11
Coordinates from ORCA-job run
  C   -0.40914297085120      0.15648461539406     -0.24699230561084
  C   0.70833643087953      0.17924832988624      0.49506425384516
  H   1.06402823802821      1.07882423311225      0.97948284506404
  C   -0.99990538310331     -0.95501422968707     -0.90435954055632
  N   -1.54216410141085     -1.84573817213230     -1.45205051949925
  N   -1.13876716054132      1.45237732942107     -0.41930485488655
  O   -0.70113917100810      2.42252974025090      0.18256939299233
  O   -2.11468049485302      1.41934792413538     -1.15920930969716
  N   1.50421988502929     -1.00959494083463      0.76254593916852
  O   2.28747092598827     -0.89636623714479      1.70652451714708
  O   1.34274380184252     -2.00109859240111      0.05572958203300
