11
Coordinates from ORCA-job run
  C   -0.62062564111758     -0.08346238127364     -0.05178132285235
  C   0.44844854012646     -0.83657119858008      0.24741377196259
  H   0.37162407987902     -1.89117549679331      0.48140980637082
  C   -1.93454396848734     -0.62691436248625     -0.07753909427773
  N   -3.02549080768007     -1.07045107471961     -0.10006122588678
  N   -0.56070961019682      1.35914515117198     -0.38129769993525
  O   -0.69908358743465      2.12117753411103      0.56350949177854
  O   -0.44050612143970      1.62357203426450     -1.56799892397617
  N   1.80735149358949     -0.31875111070365      0.28328516195811
  O   2.67204510680470     -1.14842921960299      0.56457964566811
  O   1.98249051595651      0.87186012461203      0.03748038919010
