11
Coordinates from ORCA-job run
  C   -0.44820415978647      0.18842961302761     -0.13036765051454
  C   0.88228943897090      0.04990451627275     -0.03164836710562
  H   1.57277777904599      0.81454857987168     -0.36165268171683
  C   -1.45237013524978     -0.72020283117672      0.29738160161335
  N   -2.32001166882011     -1.43894245568654      0.64058002094032
  N   -0.95889882842560      1.45664796287213     -0.73743860288108
  O   -0.13473628688491      2.19411796330001     -1.25964760537835
  O   -2.16684099960830      1.64028049705953     -0.64958281790530
  N   1.50603377695569     -1.11050671378832      0.58592954161211
  O   2.64853261054197     -0.91373918137590      1.00135522006933
  O   0.87142847326062     -2.16053795037623      0.64409134126660
