11
Coordinates from ORCA-job run
  C   -0.46172680755454      0.17061273941737     -0.10837133412285
  C   0.87603854133782      0.06721175812527     -0.10481022770228
  H   1.51835363174043      0.80712530045240     -0.56262961777813
  C   -1.40069122164450     -0.70599739750307      0.49806355021879
  N   -2.21138859358244     -1.39446663402768      1.00394644561053
  N   -1.05509688535496      1.34012744538893     -0.82309107125672
  O   -2.27832301422973      1.35742559445450     -0.89294140389867
  O   -0.27832675738586      2.16986111647745     -1.27507681050634
  N   1.57541772367842     -1.00873794986191      0.58144114928504
  O   2.73443437766080     -0.73977483979195      0.89842739898573
  O   0.98030900533455     -2.06338713313131      0.78604192116490
