11
Coordinates from ORCA-job run
  C   -0.46341846366966      0.18292808615651     -0.06587283370520
  C   0.87472672564139      0.09573554121994     -0.09571915028865
  H   1.49241035949618      0.80708270839481     -0.62749552065881
  C   -1.37865495027819     -0.70667664191787      0.55729669130919
  N   -2.17447091783330     -1.42537976153573      1.04448119368948
  N   -1.08972572572374      1.34453961618676     -0.77079304339830
  O   -0.33702253203190      2.12283683771360     -1.33875945053981
  O   -2.31163470410726      1.40939182302638     -0.70843846436998
  N   1.60172598225972     -1.00314820851660      0.52189084324308
  O   1.06716169646410     -1.62457031147351      1.43660370028110
  O   2.71990252978267     -1.20373968925429      0.04680603443792
