11
Coordinates from ORCA-job run
  C   -0.45822712158812      0.16551030898948     -0.12776142430449
  C   0.87806491606540      0.08066130975928     -0.05718977216582
  H   1.52779564112092      0.84516829211476     -0.46300574429851
  C   -1.41304885279260     -0.75159262376225      0.38712331148308
  N   -2.23843643538062     -1.47579675090147      0.81299183876166
  N   -1.03355851377587      1.35825921121802     -0.82259984581574
  O   -0.24369233652131      2.14900780904117     -1.31817201162935
  O   -2.25591253043759      1.43718659479632     -0.81958455293142
  N   1.56167501461079     -1.00300130376723      0.62919563985295
  O   0.98450943951515     -2.08148283204777      0.74986210906939
  O   2.69283077918386     -0.72192001544031      1.02714045197824
