11
Coordinates from ORCA-job run
  C   -0.42527641441120      0.15559413232544     -0.22060597005028
  C   0.77950198191835      0.17245642717118      0.37020975383166
  H   1.29504995766169      1.09423552556907      0.60400724493205
  C   -1.21991604396684     -0.96983440797230     -0.56517358504226
  N   -1.92547992935004     -1.86543305923452     -0.86137361855719
  N   -1.02132591064452      1.48146390491316     -0.58229155025973
  O   -2.05954645511792      1.43830769956099     -1.23123326357210
  O   -0.42552113138228      2.48145268540998     -0.20837443142787
  N   1.48062317641340     -1.03334054969068      0.78529946020692
  O   1.03728741734369     -2.12532994226283      0.43974160316411
  O   2.48560335153567     -0.82957241578950      1.46879435677468
