11
Coordinates from ORCA-job run
  C   -0.44747775087298      0.17832603844746     -0.14399781956314
  C   0.87072297635573      0.12216910829992      0.09759213490183
  H   1.51701866023311      0.98390393072859     -0.00250348152917
  C   -1.40172106817557     -0.86480412150574     -0.00783269003026
  N   -2.23091953009519     -1.69303630074029      0.10862134686726
  N   -1.00191491322236      1.48665032942830     -0.61110483061379
  O   -2.19471931698703      1.48974399318453     -0.89110591948508
  O   -0.22523175354342      2.42855710974003     -0.67895185441712
  N   1.52785897323435     -1.08215215564197      0.58258674578541
  O   0.99441608833762     -2.16915919176624      0.37658414635625
  O   2.59096763473573     -0.88019874017460      1.17011222172782
