11
Coordinates from ORCA-job run
  C   -0.43640873245875      0.13750851260639     -0.21048074820970
  C   0.78342707917601      0.20128876582893      0.34532149488798
  H   1.29318894158790      1.14067163366178      0.51199077342140
  C   -1.21759119003206     -1.01544558201349     -0.48798544532685
  N   -1.91111499830823     -1.93260814428543     -0.74365765484879
  N   -1.07630495851098      1.43779835712105     -0.59255426546830
  O   -0.43400803955926      2.45728643210262     -0.38597116585002
  O   -2.19653243633736      1.35596588098788     -1.08156229947021
  N   1.53151837857016     -0.97300265704393      0.76949542013850
  O   1.02427137446910     -2.08255457450778      0.62704067131413
  O   2.64055458140347     -0.72690862445800      1.24736321941186
