11
Coordinates from ORCA-job run
  C   -0.61910331030421     -0.14158584068274     -0.05989347099246
  C   0.48198883889440     -0.79680855170531      0.33329302215818
  H   0.46123387382231     -1.81415239185046      0.70377848057991
  C   -1.90580563854444     -0.74668423976921     -0.07509731121862
  N   -2.97425946464425     -1.24143302018673     -0.09416419423310
  N   -0.60078271815846      1.26707613866447     -0.52250751237950
  O   -0.29993415404075      2.11102968324532      0.30847398572797
  O   -0.92656617750688      1.42869100009618     -1.69048402622487
  N   1.79590012413138     -0.17111245473445      0.35317819221228
  O   2.54639293671342     -0.57877258584338      1.23716927929181
  O   2.04193568963748      0.68275226276633     -0.49374644492159
