11
Coordinates from ORCA-job run
  C   -0.62286077435764     -0.11644819890131     -0.08595498286925
  C   0.46607059376179     -0.84146721638744      0.20488687759669
  H   0.42934357894181     -1.90497405694393      0.40591710630340
  C   -1.91342109959694     -0.70029869969695     -0.21121101393897
  N   -2.97952777974833     -1.19237300044226     -0.29692625766610
  N   -0.58233379357216      1.34649199147616     -0.31444637344946
  O   -0.24406706185584      2.03764021783273      0.63542487334092
  O   -0.92949128369363      1.70502430377394     -1.43164117168260
  N   1.79090498746303     -0.24841749297478      0.32971137280107
  O   2.06747253981851      0.70277603426641     -0.39555190505371
  O   2.51991009283939     -0.78595388200257      1.16079147461801
