11
Coordinates from ORCA-job run
  C   -0.61800205733497     -0.11108860196270      0.03968017213361
  C   0.50076383860395     -0.57428430424974      0.61731381113263
  H   0.48918442543050     -1.34310987479155      1.37980874686350
  C   -1.90248036485691     -0.60988353648478      0.39149834636256
  N   -2.96835101729157     -1.01772003264219      0.68267886790416
  N   -0.64561392663708      0.94279334515545     -1.00080700466648
  O   -0.63071644953352      0.54169021317481     -2.15466137559213
  O   -0.74082917609224      2.08893719869198     -0.58908371316612
  N   1.83188793585441     -0.08806233983136      0.28729617068275
  O   1.93869868755692      0.76329207795824     -0.59162879640423
  O   2.74545810430053     -0.59256414501816      0.93990477474976
