11
Coordinates from ORCA-job run
  C   -0.63707838111438     -0.11364192142076     -0.00401618031606
  C   0.51148512512695     -0.79774661654670      0.09495920157734
  H   0.52248595094580     -1.87603986179698      0.20749215414156
  C   -1.89977629481735     -0.77304575401095      0.03740958950494
  N   -2.92008546192414     -1.35810892556997      0.07549257338325
  N   -0.68958261686737      1.35898480467827     -0.15941430766050
  O   0.38242669136824      1.93924156128397     -0.26832657847482
  O   -1.80949322197367      1.85704351618382     -0.16275337212019
  N   1.84522578156420     -0.19889781568713      0.06421137893211
  O   2.30299401632357      0.14500641902539      1.14518659155891
  O   2.39139841136816     -0.18379540613896     -1.03024105052655
