11
Coordinates from ORCA-job run
  C   -0.46025902898879      0.19263083434304     -0.06392390261699
  C   0.86103052108566      0.00835940341902     -0.20258006259568
  H   1.44533326409545      0.52749491880243     -0.95058153506928
  C   -1.33840505507398     -0.45685101313176      0.84394450761684
  N   -2.10272371137575     -0.99076393742795      1.56361629590941
  N   -1.10888245730085      1.19777591995474     -0.96249333080544
  O   -2.29993261646737      1.40176645958386     -0.76034940818479
  O   -0.40166909297758      1.72808894461219     -1.80719172278984
  N   1.60425075616609     -0.95900384030897      0.59081534846421
  O   1.15013667909649     -1.30334630679593      1.67884093331808
  O   2.65112074174065     -1.34615138305065      0.07090287675348
