11
Coordinates from ORCA-job run
  C   -0.62109346908785     -0.14563053587175     -0.08177677931059
  C   0.47621366090732     -0.80298870913961      0.31719721554672
  H   0.45558225174799     -1.82076149495271      0.68481700469214
  C   -1.90710441854833     -0.75187057729152     -0.11042289712006
  N   -2.97151950841731     -1.25395195992376     -0.13483833773567
  N   -0.58357844445527      1.27210376708313     -0.50962328207889
  O   -0.22579121268787      2.07748365811748      0.33766802704233
  O   -0.97437869197261      1.48666570810290     -1.64727970933207
  N   1.78492736700737     -0.16874586107582      0.36419351590786
  O   2.48073800709797     -0.49506069425282      1.32212941156201
  O   2.08500445840858      0.60175669920448     -0.54306416917379
