11
Coordinates from ORCA-job run
  C   -0.63147764448053     -0.10845518966034      0.03284493190809
  C   0.49457415205705     -0.81944195434423      0.17247942801410
  H   0.48151152328405     -1.88440287286435      0.37300036918798
  C   -1.92058298610595     -0.69683343124460      0.16694631143140
  N   -2.97758444705735     -1.20553405980276      0.26691336465892
  N   -0.63587485608471      1.34593764869374     -0.28426103187540
  O   0.19640406727742      1.72716785783110     -1.09338902650433
  O   -1.50901489925462      2.00138624148455      0.26582474368629
  N   1.82840782358163     -0.24328509503945      0.05482271148903
  O   2.57130776506043     -0.83455929645617     -0.72282353989308
  O   2.10232950172259      0.71602015140250      0.76964173789701
