11
Coordinates from ORCA-job run
  C   -0.45854073975607      0.19520104329426     -0.06401627195373
  C   0.86623577292332      0.02477601835683     -0.18399428962239
  H   1.46417878871755      0.58759582868730     -0.88823000582392
  C   -1.35079655238393     -0.51477859591099      0.78296179166389
  N   -2.12679634579762     -1.09468199988528      1.45273186204865
  N   -1.09300246356257      1.25268658659704     -0.90976207473178
  O   -2.28075902945092      1.46340525569924     -0.69567884420402
  O   -0.37837511180886      1.81528663123388     -1.72691986923759
  N   1.59317629214261     -0.98828480127621      0.56591286067641
  O   2.62728329497244     -1.37777469406944      0.02359550925917
  O   1.13839609400403     -1.36343127272665      1.64339933192531
