11
Coordinates from ORCA-job run
  C   -0.44942371381854      0.22104730245649     -0.04520817078481
  C   0.85911568097081     -0.02257887541439     -0.21105423773138
  H   1.46067678777181      0.50389278965990     -0.94037309459068
  C   -1.34946923088430     -0.43086412265111      0.83887506016661
  N   -2.13407524314972     -0.95459294600158      1.54398048071294
  N   -1.05688400862178      1.29811855914228     -0.88728418977418
  O   -0.32296579005118      1.86017566151206     -1.68754476543741
  O   -2.24592647933671      1.52019086138448     -0.69163047083603
  N   1.55983062411299     -1.06793497772246      0.51969334896803
  O   1.10267752844624     -1.44277739746724      1.59638555498966
  O   2.57644384456037     -1.48367685489842     -0.03683951568276
