11
Coordinates from ORCA-job run
  C   -0.45738321385511      0.15449182262021     -0.14052884690643
  C   0.85283346473753      0.17377447991547      0.14739755572631
  H   1.43130359163368      1.08794849246941      0.15163407977748
  C   -1.33494263016941     -0.96203958923487     -0.14601288185823
  N   -2.10822508991305     -1.85050597157191     -0.14747022080202
  N   -1.09344533444930      1.45928848454141     -0.50759921445626
  O   -0.39445075094563      2.45982481791419     -0.43609416389990
  O   -2.26673269861352      1.39985343858207     -0.85525758498178
  N   1.59261516777860     -1.01609644489767      0.53998390760392
  O   2.66528949070428     -0.78721169902201      1.10048824185887
  O   1.11213800309193     -2.11932783131629      0.29345912793803
