11
Coordinates from ORCA-job run
  C   -0.64282427067914     -0.07236517761426      0.01682392296069
  C   0.45901104809353     -0.83448553287352     -0.02427152702987
  H   0.40061405379687     -1.91678330674687     -0.04147991600017
  C   -1.94486659402773     -0.65140633764913      0.05056114036135
  N   -2.99960137548996     -1.17309235600799      0.06421586734707
  N   -0.60009409163989      1.40802378236325      0.04058360513312
  O   -1.66694272951552      1.97048271994851      0.25923098038718
  O   0.48948523148207      1.93001878320117     -0.15514127338736
  N   1.82754247814982     -0.31951320427207     -0.06004607157342
  O   2.33981657411526     -0.06771006120979      1.02175390098468
  O   2.33985967571470     -0.27416930913930     -1.17023062918327
