11
Coordinates from ORCA-job run
  C   -0.62871700231697      0.00045413683305      0.16477143160839
  C   0.53116325477839     -0.47354744264599      0.63742008359069
  H   0.58815970368673     -0.99397822426570      1.58786795450178
  C   -1.85494043962102     -0.15748257864648      0.86935161823061
  N   -2.82285338934397     -0.27517062018863      1.52770893609292
  N   -0.72511827694688      0.73679264979824     -1.11866639171843
  O   0.30153261589922      1.25913321894381     -1.53340099672440
  O   -1.83311394181999      0.74833066688708     -1.64305245348644
  N   1.82272367283438     -0.30962625556443     -0.02220449696267
  O   2.04893120701070     -1.02830233681142     -0.98712241373589
  O   2.57323259583943      0.49239678566047      0.51732672860346
