11
Coordinates from ORCA-job run
  C   -0.45981411413776      0.16958558755999     -0.11430572354349
  C   0.87563482577457      0.04437110723773     -0.08041007572131
  H   1.53004132787636      0.67317025794581     -0.66907506861341
  C   -1.43267278316457     -0.59461296108551      0.58285898326046
  N   -2.28423782150531     -1.20380106290990      1.12249630262305
  N   -1.01577366586873      1.26022128389486     -0.97684201566734
  O   -0.23182911694452      1.84701222946342     -1.70889183016324
  O   -2.21732593851902      1.46881770825425     -0.86038399558009
  N   1.56000664342182     -0.96914114053450      0.70884136639709
  O   0.91573964483940     -1.61103988302797      1.53426564086054
  O   2.76123099822776     -1.08458312679819      0.46044641614774
