11
Coordinates from ORCA-job run
  C   -0.44253768300033      0.14993874797445     -0.19804951416268
  C   0.88693749570914      0.01732087571568     -0.08886320258073
  H   1.58465372020073      0.59956322516362     -0.68120709985899
  C   -1.41783078422092     -0.55285029869509      0.55885429414440
  N   -2.23568875093520     -1.10818523609413      1.19759710002528
  N   -0.96319487394568      1.15482499367241     -1.16427448679947
  O   -0.17598870390470      1.59684978104601     -1.98811159878831
  O   -2.14160913485452      1.46304648913010     -1.02699812041181
  N   1.47473095447836     -0.88458809683492      0.88932613230566
  O   2.32584264538785     -0.37957052885184      1.61524007967818
  O   1.10268511508526     -2.05634995222630      0.88848641644848
