11
Coordinates from ORCA-job run
  C   -0.62299672752166     -0.10545596808365     -0.06139868776332
  C   0.46616867976844     -0.84768619205857      0.18409918637583
  H   0.42103511422942     -1.91290683122095      0.37358169221796
  C   -1.92435598946803     -0.67322595869783     -0.14053493060392
  N   -3.00505711769098     -1.13696865654792     -0.20219051593963
  N   -0.58285049186406      1.35778635395181     -0.28745402894620
  O   -0.80913194303120      1.70841337480036     -1.43667930246324
  O   -0.37532212502999      2.05248213880381      0.69617191289240
  N   1.80398447381306     -0.28023804815928      0.26687460293931
  O   2.01993502729065      0.78098295759912     -0.31250105953246
  O   2.60759109950437     -0.94418317038690      0.92003113082327
