11
Coordinates from ORCA-job run
  C   -0.63941940959639     -0.04615346447728      0.09825480661186
  C   0.47059310138248     -0.61488679753544      0.58720640670127
  H   0.44539554703569     -1.37163232658150      1.36279360086071
  C   -1.93910095453924     -0.37371021845309      0.57811534120082
  N   -3.00342533821509     -0.66977327602161      0.98383272156810
  N   -0.60131816680127      0.97994973721950     -0.96901841381110
  O   0.30162196249061      0.88785233644896     -1.79105545251482
  O   -1.48377370116799      1.82806505014709     -0.91762056839327
  N   1.81415591575720     -0.27596814163606      0.12391067495256
  O   2.21124913656510      0.86396793593821      0.32896703264416
  O   2.42602190708890     -1.20771083504879     -0.38538614982031
