11
Coordinates from ORCA-job run
  C   -0.42311338064443      0.14672850089095     -0.23073749695981
  C   0.72461377746954      0.18238175687248      0.46386180074567
  H   1.13367981555233      1.10404291472078      0.85551970911806
  C   -1.07438701568935     -0.98134561832078     -0.79615176662883
  N   -1.66268487980110     -1.87738175075288     -1.28459592317039
  N   -1.12058986274461      1.45382274700771     -0.45526020420875
  O   -2.14091800135158      1.40301497810911     -1.13140356844377
  O   -0.61725067493456      2.44809988278961      0.04748285872210
  N   1.51695326873782     -1.00209600327126      0.76065559314573
  O   1.13820289802692     -2.09064453984323      0.33601734386948
  O   2.52649405537902     -0.78562286820250      1.43361165381051
