11
Coordinates from ORCA-job run
  C   -0.44690464615758      0.23104360590947     -0.03595998347867
  C   0.82546331925844     -0.11524948605208     -0.28309029693905
  H   1.41781918428814      0.36357976035149     -1.05104257950102
  C   -1.32278184135462     -0.29508562610908      0.95032259364830
  N   -2.08265477733317     -0.69089184500964      1.75881025568302
  N   -1.04581742896882      1.28512167167459     -0.91412719299818
  O   -2.25478723497289      1.44700551106240     -0.80079700282347
  O   -0.28851941339070      1.87825080446983     -1.66875245195021
  N   1.53979964239935     -1.11888632844739      0.49201701983710
  O   2.75942790130150     -1.12402953550668      0.31864470837099
  O   0.89995529493035     -1.85985853234289      1.23397493015119
