11
Coordinates from ORCA-job run
  C   -0.45461335034350      0.21005989037750     -0.04298027167985
  C   0.82876088620518     -0.09358874642542     -0.28894924391930
  H   1.40308593520079      0.39952934700568     -1.06189269257549
  C   -1.30613860839295     -0.33124062381541      0.95627158620969
  N   -2.04801591128303     -0.73168513980212      1.77884914473686
  N   -1.09208396410201      1.23661067679673     -0.92641337367022
  O   -2.29960249560356      1.38560468146285     -0.78299386532168
  O   -0.36343176792947      1.82556903856172     -1.71209719395569
  N   1.57644177961513     -1.06143291101010      0.49986257044367
  O   2.79953063978136     -0.98198484405717      0.37845394744475
  O   0.95706685685206     -1.85744136909426      1.20088939228727
