11
Coordinates from ORCA-job run
  C   -0.64204290307925     -0.08420135977643     -0.02985328615909
  C   0.41435897339951     -0.60323297885086      0.61168007552976
  H   0.30888688154476     -1.42213413211200      1.31415078627412
  C   -1.95893574768184     -0.58891145403654      0.17326130190914
  N   -3.03014879228741     -1.03443556367000      0.37002863872351
  N   -0.52709041246389      1.03144829210655     -0.99819348100405
  O   -1.53252244877280      1.27539638011043     -1.65514168622784
  O   0.55531264426516      1.59971210384340     -1.05639545271091
  N   1.79435975547566     -0.14827464727991      0.44610811694666
  O   2.20180461211325      0.61594473347343      1.31005382584912
  O   2.41601743748685     -0.64031137380804     -0.48569883913040
