11
Coordinates from ORCA-job run
  C   -0.62982368761707     -0.04658096204134      0.11198757591878
  C   0.49064387089289     -0.48634582010287      0.70053927600184
  H   0.48741016844696     -1.06114403312339      1.61833545390398
  C   -1.92488408985521     -0.34635140532597      0.61679327928934
  N   -2.99427806551623     -0.59287749837090      1.04342728407064
  N   -0.62080254152326      0.77329485233025     -1.12155339029708
  O   -0.02423651798960      1.83901122584306     -1.06835355345523
  O   -1.24244916637129      0.29623256211351     -2.06180986212240
  N   1.81729639402180     -0.19337476720017      0.17411401706589
  O   1.96453614065199     -0.18197008496831     -1.04431050565962
  O   2.67758749485901      0.00110593084613      1.02983042528386
