11
Coordinates from ORCA-job run
  C   -0.45953088438759      0.17206964746878     -0.10925689062634
  C   0.87772236150255      0.12172599728453     -0.02207821390388
  H   1.52123179119908      0.83736410605536     -0.51635785297204
  C   -1.39816467916752     -0.73542347684992      0.45023657077802
  N   -2.20562178330370     -1.47766785545764      0.87922201450336
  N   -1.05463010029479      1.30322348938360     -0.88554266261469
  O   -2.27875707103581      1.35405006939536     -0.89835289674830
  O   -0.27750665257368      2.07539914004819     -1.42850306145823
  N   1.57177512474897     -0.95004194055609      0.67598894583104
  O   0.99944167719052     -1.51582357670366      1.60394508507241
  O   2.70204021612199     -1.18587560006851      0.24969896213866
