11
Coordinates from ORCA-job run
  C   -0.39891796575989      0.17919768161474     -0.24775384510707
  C   0.70241210835497      0.15329456204875      0.51721878118455
  H   1.04343992950573      1.01443041208104      1.07625519114582
  C   -0.96527104928112     -0.89028540150489     -0.99106419353650
  N   -1.47295367808275     -1.75144159388336     -1.61384146502795
  N   -1.14242867096002      1.47443579228678     -0.33512758764763
  O   -0.65818786562221      2.43421798833284      0.24751012133559
  O   -2.17735854870293      1.45167292715653     -0.99037982659096
  N   1.48655359807778     -1.05611685069021      0.71655716148916
  O   1.43952513521211     -1.93673143346931     -0.13850798028078
  O   2.14118700725832     -1.07267408397292      1.75913364303576
