11
Coordinates from ORCA-job run
  C   -0.64004622708594     -0.07193687508648      0.08180853041138
  C   0.46548518181913     -0.70327707166720      0.49894651314998
  H   0.43290341941271     -1.57703290068610      1.14116502225489
  C   -1.94759668600655     -0.48520808097108      0.45913398765688
  N   -3.01952981985621     -0.85143708365668      0.77780340452372
  N   -0.58102920212574      1.11479991107664     -0.79916168924674
  O   -1.37835574574679      2.00537287166105     -0.52952497559401
  O   0.24883156754680      1.09848642865922     -1.69937220565010
  N   1.80550022442574     -0.27124889914915      0.11515175797224
  O   2.13602452665657      0.87593020817822      0.39030166616955
  O   2.47881276096028     -1.13544850835845     -0.43625201164780
