11
Coordinates from ORCA-job run
  C   -0.62733592749662     -0.07026172776360      0.07325995733494
  C   0.46385940925154     -0.81388217564154      0.30430038207537
  H   0.41610787363192     -1.82518352129568      0.68853055343282
  C   -1.93860011972394     -0.53630897905713      0.36514528176899
  N   -3.02587096001698     -0.92262310325936      0.60060536719881
  N   -0.57832545295915      1.30058942584848     -0.48609285141196
  O   -0.28358517202730      1.39434509623504     -1.66827052322107
  O   -0.88374640336000      2.18791976638670      0.29771041241184
  N   1.81083309797776     -0.34529215676366      0.01302539588848
  O   2.01258166841997      0.86611545347669      0.00110540757151
  O   2.63508198630279     -1.23541807816592     -0.18931938304973
