11
Coordinates from ORCA-job run
  C   -0.62589546131452     -0.03185277125012      0.13044150200233
  C   0.50767109355399     -0.39594400007733      0.74508498502571
  H   0.52546147386952     -0.84779070337415      1.72914763257874
  C   -1.90894230421783     -0.26071904061519      0.69891306057981
  N   -2.96898812913854     -0.44528534267585      1.17700719101068
  N   -0.64771723846860      0.62434011507583     -1.19721810233455
  O   -1.25813384948511      0.01321590743896     -2.06407921678803
  O   -0.08801137672347      1.70772408979701     -1.28236913048710
  N   1.82191138491027     -0.17333068195510      0.15758041812111
  O   2.70903610326927      0.08894320811197      0.96679890100675
  O   1.93460830374502     -0.27730078047602     -1.06030724071545
