11
Coordinates from ORCA-job run
  C   -0.44605336029864      0.22934545965129     -0.03835603273243
  C   0.86454898382355     -0.01249433575826     -0.18913211621981
  H   1.48809550760158      0.56013341920423     -0.86272260215091
  C   -1.37112967321841     -0.47419842136600      0.77804185934458
  N   -2.17408854780782     -1.03331255517977      1.43355828342985
  N   -1.02913055633670      1.35702512593760     -0.82928766560145
  O   -2.24615177928738      1.48190706744302     -0.76100296709170
  O   -0.25068462678300      2.04807044541408     -1.47058653879326
  N   1.54062595883714     -1.10953738318658      0.48670249895522
  O   2.56718628699483     -1.49617806054519     -0.07265273398259
  O   1.05578180647484     -1.55076076161442      1.52543801484250
