11
Coordinates from ORCA-job run
  C   -0.63342205047115     -0.11702144477955      0.00312361615554
  C   0.48940234926307     -0.84519640918072     -0.04748618355353
  H   0.47975418848901     -1.92513421996890     -0.14791201251671
  C   -1.92584604547813     -0.71234306430574     -0.00694905173426
  N   -2.98536304993179     -1.22424187033125     -0.02091284218982
  N   -0.62155482456645      1.36169693244308      0.06986148742930
  O   -1.49662870163272      1.86382699660834      0.76369884304759
  O   0.23310412150173      1.93390848616441     -0.59411260034759
  N   1.82023013025427     -0.24272123798024     -0.01114402787981
  O   2.53087190522747     -0.54128192047721     -0.96506059093952
  O   2.10845197734470      0.44950775180777      0.95689336252881
