17

C	0.0	0.0	0.0
C	-0.519497	0.09124	-1.436711
Cl	1.797987	0.0	0.0
H	-1.617176	0.047741	-1.251624
N	-0.528937	1.151666	0.681919
H	-1.555599	0.969523	0.602372
H	-0.273113	1.086586	1.665243
C	-0.433243	-1.32485	0.619171
H	-0.041505	-2.176022	0.063273
H	-1.526917	-1.292232	0.587672
H	-0.077154	-1.366757	1.653802
N	-0.093546	-1.037928	-2.258877
H	0.872516	-0.900562	-2.539893
H	-0.65997	-1.053618	-3.098629
C	-0.172464	1.385671	-2.04929
N	0.084412	2.347171	-2.676274
F	-2.898698	0.0	0.0
