17

C	0.0	0.0	0.0
C	-0.283845	-0.149393	-1.554807
Cl	1.835279	0.0	0.0
H	0.502553	0.441347	-2.033029
N	-0.550586	1.268593	0.39124
H	-1.572777	1.063732	0.363669
H	-0.303966	1.427805	1.364748
C	-0.475108	-1.166542	0.843933
H	-0.199137	-0.992379	1.889055
H	-0.049391	-2.117401	0.5201
H	-1.567198	-1.154265	0.742842
N	-1.547681	0.311042	-2.082281
H	-2.295339	0.061862	-1.395788
H	-1.502433	1.324389	-2.053751
C	-0.050934	-1.544492	-1.967483
N	0.115209	-2.655993	-2.308595
F	-3.024575	0.0	0.0
