17

C	0.0	0.0	0.0
C	-0.321406	-0.074505	-1.522461
Cl	1.858636	0.0	0.0
H	0.481979	0.482348	-2.02465
N	-0.489594	1.229601	0.492305
H	-0.70462	1.897772	-0.232657
H	0.037764	1.599449	1.264112
C	-0.506362	-1.154303	0.823102
H	-0.243867	-0.989354	1.87028
H	-1.597681	-1.097267	0.703117
H	-0.098347	-2.110353	0.496217
N	-1.596924	0.529032	-1.819025
H	-2.349921	0.28033	-1.06931
H	-1.91514	0.220202	-2.730773
C	-0.145965	-1.469668	-1.991601
N	-0.018664	-2.546998	-2.447478
F	-3.258043	0.0	0.0
