17

C	0.0	0.0	0.0
C	-0.50854	-0.219008	-1.436487
Cl	1.80553	0.0	0.0
H	-1.605178	-0.246898	-1.235534
N	-0.521037	1.21197	0.570572
H	-1.546537	1.023409	0.52616
H	-0.313425	1.992173	-0.047033
C	-0.440585	-1.168523	0.868533
H	-0.044131	-2.107081	0.484857
H	-1.533647	-1.152348	0.83449
H	-0.082712	-0.991658	1.884508
N	-0.050275	-1.468349	-2.034535
H	-0.611933	-1.667652	-2.854792
H	0.915763	-1.368413	-2.328806
C	-0.204507	0.952784	-2.277455
N	0.054273	1.842712	-3.002355
F	-2.893963	0.0	0.0
