17

C	0.0	0.0	0.0
C	-0.579751	0.136354	-1.412146
Cl	1.788317	0.0	0.0
H	-1.671782	0.117332	-1.170742
N	-0.5265	1.124853	0.735875
H	-0.253889	1.02697	1.711454
H	-1.551271	0.957695	0.66762
C	-0.437107	-1.341562	0.577394
H	-0.049639	-2.174189	-0.009834
H	-0.075324	-1.423117	1.606406
H	-1.53152	-1.311198	0.558616
N	-0.242686	-0.99329	-2.276848
H	-1.059458	-1.239766	-2.820345
H	0.511241	-0.758793	-2.911509
C	-0.237908	1.428306	-2.013234
N	0.058143	2.415659	-2.580113
F	-2.955301	0.0	0.0
