17

C	0.0	0.0	0.0
C	-0.226005	-0.286749	-1.513186
Cl	1.920574	0.0	0.0
H	0.445952	-1.116447	-1.774279
N	-0.539722	1.20217	0.476883
H	-0.437038	1.893008	-0.261542
H	-1.569391	0.931557	0.480736
C	-0.401727	-1.178481	0.853873
H	-0.053597	-1.015668	1.875733
H	0.022385	-2.110693	0.471359
H	-1.496519	-1.185612	0.814255
N	0.070471	0.923983	-2.287721
H	1.076057	1.055125	-2.27771
H	-0.222941	0.783916	-3.247956
C	-1.561177	-0.780782	-1.906835
N	-2.348215	-1.344574	-2.579029
F	-2.788764	0.0	0.0
