17

C	0.0	0.0	0.0
C	-0.297917	0.00779	-1.563404
Cl	1.792831	0.0	0.0
H	0.529321	0.552661	-2.031921
N	-0.545694	1.149178	0.657234
H	-0.420716	1.95567	0.052695
H	-1.562055	0.950731	0.652041
C	-0.511767	-1.242553	0.699029
H	-1.599907	-1.228768	0.567122
H	-0.266761	-1.16162	1.760083
H	-0.067943	-2.150186	0.29033
N	-1.52616	0.702574	-1.893856
H	-2.295303	0.378937	-1.251496
H	-1.759951	0.507887	-2.860497
C	-0.203752	-1.366274	-2.107157
N	-0.151745	-2.426629	-2.614026
F	-3.084633	0.0	0.0
