17

C	0.0	0.0	0.0
C	-0.513763	-0.049509	-1.442202
Cl	1.798581	0.0	0.0
H	-1.611527	-0.077946	-1.262842
N	-0.532158	1.211978	0.565342
H	-1.557821	1.021541	0.491597
H	-0.293048	1.22997	1.553001
C	-0.432666	-1.26163	0.740272
H	-1.526338	-1.234302	0.708746
H	-0.0749	-1.207622	1.773783
H	-0.041702	-2.161438	0.265439
N	-0.081872	-1.251198	-2.150128
H	0.885232	-1.140813	-2.438099
H	-0.644416	-1.350466	-2.986942
C	-0.167983	1.182143	-2.173309
N	0.10097	2.08062	-2.882886
F	-2.900486	0.0	0.0
