17

C	0.0	0.0	0.0
C	-0.513759	-0.021476	-1.456259
Cl	1.795834	0.0	0.0
H	-1.609454	0.039193	-1.288915
N	-0.519836	1.207885	0.582
H	-0.265469	1.231248	1.565529
H	-1.546719	1.041011	0.518685
C	-0.443959	-1.263465	0.733221
H	-0.111982	-1.205326	1.774321
H	-0.029375	-2.174388	0.293359
H	-1.538596	-1.23602	0.67854
N	-0.209394	-1.209132	-2.243848
H	0.761419	-1.469161	-2.105212
H	-0.792819	-1.964186	-1.908394
C	-0.056093	1.168856	-2.181858
N	0.289396	2.111566	-2.791148
F	-2.891131	0.0	0.0
