17

C	0.0	0.0	0.0
C	-0.508687	-0.209089	-1.437794
Cl	1.805605	0.0	0.0
H	-1.604688	-0.238292	-1.237207
N	-0.52188	1.206678	0.578565
H	-1.546725	1.019579	0.531869
H	-0.312712	1.992099	-0.030935
C	-0.4413	-1.173559	0.860705
H	-0.048521	-2.10995	0.468318
H	-0.080781	-1.006079	1.877255
H	-1.534316	-1.154851	0.828076
N	-0.050242	-1.452728	-2.045752
H	-0.613761	-1.645869	-2.865704
H	0.914742	-1.350351	-2.341514
C	-0.206416	0.969747	-2.269207
N	0.050971	1.866566	-2.98547
F	-2.8953	0.0	0.0
