16

C	-0.421715	-0.043325	-1.469883
C	0.0	0.0	0.0
Cl	-0.059047	1.533724	-2.275515
H	1.094662	0.0	0.0
H	-0.312293	-0.96283	0.425434
C	0.353592	-1.1308	-2.205506
H	0.111993	-2.103488	-1.768098
H	0.103649	-1.141497	-3.267948
H	1.420332	-0.938861	-2.066264
C	-1.869116	-0.247759	-1.596649
N	-3.023772	-0.454598	-1.670788
C	-0.577092	1.141539	0.819342
H	-0.259691	1.033473	1.858864
H	-0.208179	2.102832	0.461064
H	-1.67171	1.153402	0.793805
Br	3.655302	0.0	0.0
