16

C	-0.543266	0.003048	-1.430322
C	0.0	0.0	0.0
Cl	0.185804	-1.383303	-2.322762
H	1.093538	0.0	0.0
H	-0.31896	-0.946208	0.452483
C	-2.059921	-0.163182	-1.492214
H	-2.396149	-0.23138	-2.528637
H	-2.337534	-1.080328	-0.968949
H	-2.553447	0.686712	-1.016975
C	-0.176611	1.231822	-2.141046
N	0.043156	2.242291	-2.700535
C	-0.488073	1.183864	0.830753
H	-1.569282	1.180626	0.999237
H	-0.20856	2.131229	0.363457
H	0.005884	1.150123	1.80499
Br	3.656284	0.0	0.0
