16

C	-0.367602	0.130036	-1.479513
C	0.0	0.0	0.0
Cl	-2.154592	0.441774	-1.69708
H	1.096	0.0	0.0
H	-0.35947	-0.958838	0.382635
C	0.406048	1.249533	-2.164727
H	1.472681	1.074729	-1.99884
H	0.186291	1.275725	-3.233721
H	0.131835	2.208469	-1.726584
C	-0.115437	-1.1424	-2.163599
N	0.074736	-2.166121	-2.709562
C	-0.473278	1.144892	0.886203
H	-0.094475	2.106294	0.534097
H	-1.562145	1.200104	0.954347
H	-0.068271	0.99423	1.889833
Br	3.621198	0.0	0.0
