14

C	0.0	0.0	0.0
C	-0.562709	0.173038	-1.41821
Br	1.949617	0.0	0.0
H	-1.652362	0.037431	-1.264999
H	-0.326251	-0.954249	0.415211
C	-0.404393	1.085544	0.889849
N	-0.634984	1.956682	1.643802
C	-0.068702	-0.891304	-2.286377
N	0.318854	-1.731542	-3.011054
C	-0.304687	1.552082	-2.018784
H	0.763282	1.771281	-2.087707
H	-0.79271	2.307708	-1.400391
H	-0.737474	1.602105	-3.019468
Cl	-3.433184	0.0	0.0
