14

C	0.0	0.0	0.0
C	-0.395519	0.049973	-1.519201
Br	1.943831	0.0	0.0
H	0.527458	0.27068	-2.062502
H	-0.356459	-0.911707	0.473216
C	-0.397089	1.171304	0.773283
N	-0.532255	2.146254	1.415586
C	-1.275203	1.157161	-1.907998
N	-1.744686	2.085391	-2.457505
C	-0.877974	-1.315338	-2.007421
H	-1.040604	-1.286665	-3.088149
H	-1.809452	-1.568891	-1.504577
H	-0.103152	-2.06015	-1.796308
Cl	-3.078623	0.0	0.0
