14

C	0.0	0.0	0.0
C	-0.393067	-0.623597	-1.387592
Br	1.944546	0.0	0.0
H	0.528754	-0.655183	-1.976127
H	-0.364344	-0.607702	0.824774
C	-0.393335	1.394102	0.177242
N	-0.524638	2.553024	0.323862
C	-1.279416	0.197328	-2.219301
N	-1.762078	0.803052	-3.104259
C	-0.877895	-2.062732	-1.224233
H	-1.019253	-2.522664	-2.205262
H	-1.822004	-2.057159	-0.684059
H	-0.124522	-2.638242	-0.677827
Cl	-3.097994	0.0	0.0
