12
Coordinates from ORCA-job run
  C   1.28084524904930     -0.30271264217684     -0.15741115705290
  C   -0.12578169817711     -0.15307838894928      0.42813506456913
  Br  1.44293693057769     -1.93049930818021     -1.20546578600723
  H   -0.35345888973480     -1.05078970642008      1.01314705922766
  H   2.02940198810342     -0.36610497277498      0.63106672963168
  H   1.51657290487718      0.53146892768880     -0.81877075021774
  C   -1.20906735635848      0.05473633080126     -0.63245754266996
  H   -2.18369866481506      0.19019830480526     -0.16107331082664
  H   -1.25900930997846     -0.81104593436985     -1.29290367943118
  H   -0.98996717161212      0.94196880124161     -1.23091790577999
  C   -0.09472263043737      0.98536207376625      1.35347389069723
  N   -0.05305135149420      1.91149651456806      2.07417738785993
