12
Coordinates from ORCA-job run
  C   1.22032163892963     -0.56973692584187     -0.13083888017926
  C   -0.13647556088726     -0.16596876351663      0.44440135120617
  Br  1.94706330386664      0.75699845803929     -1.34675083440234
  H   -0.42685395425043     -0.98346431972867      1.11848246760986
  H   1.11905011634148     -1.49695219355577     -0.69578957322283
  H   1.95668876809074     -0.70313211189799      0.66093940459839
  C   -1.22724237894791      0.00147763169391     -0.61583700747309
  H   -2.19253760897155      0.18535061892484     -0.14167058636814
  H   -1.30257041464949     -0.90842048100396     -1.21612379854492
  H   -1.00021699517717      0.83764513608281     -1.27662921763399
  C   -0.01855164760779      1.04000693970191      1.26898102978148
  N   0.06132473326311      2.00619601110212      1.93083564462868
