12
Coordinates from ORCA-job run
  C   1.17383309502238     -0.36582086714770     -0.43026599475327
  C   -0.07464510158851     -0.12713542944419      0.41428611373805
  Br  2.76174630674850     -0.57717292369627      0.66302495441720
  H   -0.15429574631394     -0.93509484858451      1.14925392199258
  H   1.35586213248772      0.47131650145311     -1.10421827833492
  H   1.06098517038460     -1.28358612939199     -1.00728590498122
  C   -1.32575033410386     -0.11933873509833     -0.47373648406850
  H   -2.22069103270742      0.05321164425423      0.12605842828965
  H   -1.26124553816432      0.66975243147477     -1.22602373984707
  H   -1.43046181188484     -1.08080546107772     -0.98151491569251
  C   0.03029911049423      1.13379394527306      1.15316305187128
  N   0.08336374962548      2.16187987198553      1.71725884736874
