12
Coordinates from ORCA-job run
  C   1.21905179341248     -0.56588391685526     -0.15666173988403
  C   -0.12175071127581     -0.15698609373670      0.45157783406588
  Br  1.89904560208101      0.73642000473311     -1.42457071266319
  H   -0.38632845794550     -0.96182376980980      1.15103169821421
  H   1.98053962657777     -0.67694484070924      0.61448048678605
  H   1.10594365879340     -1.50647873944771     -0.69664487530251
  C   -1.24582568363845     -0.01775326533607     -0.57743064101654
  H   -1.33440490190391     -0.94068430999312     -1.15584425151202
  H   -2.19697006669955      0.17102050806293     -0.07709664094310
  H   -1.04437178666684      0.80547833341726     -1.26249849707927
  C   0.01470502561077      1.06638672167543      1.24714701849538
  N   0.10936590165464      2.04624936799916      1.88651032083914
