15

C	-0.307598	-0.036298	-1.484772
C	0.0	0.0	0.0
Br	-0.223089	1.842579	-2.101138
H	1.089159	0.0	0.0
H	-0.414457	0.842325	0.541198
N	0.565389	-0.812214	-2.284745
H	0.350733	-1.785735	-2.102679
H	1.508361	-0.630474	-1.913576
N	-1.766395	-0.458444	-1.729605
O	-2.002671	-1.218418	-2.661168
O	-2.595251	0.013196	-0.956978
N	-0.430704	-1.215459	0.672456
O	-0.614875	-1.155989	1.889211
O	-0.508689	-2.26021	0.009234
H	2.614784	0.0	0.0
