15

C	-0.287051	-0.006307	-1.476225
C	0.0	0.0	0.0
Br	0.037591	1.782872	-2.345586
H	1.089147	0.0	0.0
H	-0.300639	-0.960455	0.415773
N	0.527673	-1.014665	-2.008468
H	1.480938	-0.887796	-1.632368
H	0.522669	-1.003916	-3.020233
N	-1.73582	-0.331827	-1.849582
O	-1.959322	-0.577847	-3.02921
O	-2.556904	-0.375935	-0.939908
N	-0.575435	1.025538	0.869344
O	-0.356295	0.856865	2.070926
O	-1.202838	1.975922	0.401888
H	2.649635	0.0	0.0
