15

C	-0.201772	-0.132846	-1.489871
C	0.0	0.0	0.0
Br	-0.515342	1.910033	-2.160574
H	1.087999	0.0	0.0
H	-0.445828	0.870604	0.460326
N	0.842148	-0.745493	-2.067217
H	1.744676	-0.567568	-1.575979
H	0.834565	-0.857399	-3.067881
N	-1.537982	-0.694304	-1.961483
O	-1.561616	-1.179811	-3.087396
O	-2.482242	-0.624318	-1.188587
N	-0.444516	-1.190811	0.735225
O	-0.435533	-2.279832	0.158361
O	-0.745785	-1.024093	1.920123
H	2.657738	0.0	0.0
