15

C	-0.359949	0.16221	-1.457545
C	0.0	0.0	0.0
Br	-2.201319	0.850193	-1.681984
H	1.091886	0.0	0.0
H	-0.303237	0.897318	0.537278
N	0.554219	1.060736	-2.103434
H	0.347361	2.003902	-1.793806
H	1.490638	0.813699	-1.741042
N	-0.24431	-1.167592	-2.224498
O	0.91296	-1.504735	-2.42853
O	-1.249205	-1.773329	-2.562847
N	-0.541528	-1.13533	0.722797
O	-0.497128	-2.24509	0.180772
O	-0.926412	-0.939849	1.882804
H	2.59243	0.0	0.0
