15

C	-0.578679	-0.024151	-1.387469
C	0.0	0.0	0.0
Br	0.507141	-1.02441	-2.699101
H	1.085187	0.0	0.0
H	-0.346659	0.883108	0.534939
N	-1.897543	-0.524763	-1.449677
H	-2.287188	-0.389919	-2.374235
H	-2.473979	-0.06924	-0.750374
N	-0.504179	1.434764	-1.931224
O	-1.317133	1.725705	-2.80796
O	0.351631	2.181988	-1.474826
N	-0.438701	-1.162115	0.75581
O	-0.106514	-2.273673	0.338695
O	-1.044434	-0.964375	1.824437
H	2.545976	0.0	0.0
