15

C	-0.54527	0.010564	-1.396836
C	0.0	0.0	0.0
Br	0.414211	1.185495	-2.601676
H	1.08683	0.0	0.0
H	-0.297036	-0.905605	0.526486
N	-0.490984	-1.307463	-1.931922
H	-0.795978	-1.328069	-2.896317
H	-1.047638	-1.932951	-1.362229
N	-2.056379	0.471118	-1.371769
O	-2.503829	1.248112	-2.200633
O	-2.72235	-0.13663	-0.533511
N	-0.43257	1.118494	0.806154
O	-0.355667	0.982253	2.033817
O	-0.741259	2.17687	0.236045
H	2.535249	0.0	0.0
