15

C	-0.582971	-0.008255	-1.386898
C	0.0	0.0	0.0
Br	0.453623	-1.078306	-2.677648
H	1.085163	0.0	0.0
H	-0.356619	0.880695	0.534247
N	-1.923274	-0.447388	-1.432486
H	-2.469185	0.016367	-0.71448
H	-2.323088	-0.290929	-2.349408
N	-0.4434	1.440424	-1.948722
O	0.419508	2.166567	-1.478481
O	-1.220814	1.742841	-2.851422
N	-0.479771	-1.162303	0.742403
O	-1.227707	-0.959555	1.713867
O	-0.076774	-2.270646	0.392114
H	2.587924	0.0	0.0
