15

C	-0.226377	0.071089	-1.492411
C	0.0	0.0	0.0
Br	-0.646423	2.172223	-1.872741
H	1.091204	0.0	0.0
H	-0.446377	0.793356	0.583514
N	0.822536	-0.407617	-2.175701
H	1.734623	-0.307779	-1.682897
H	0.785585	-0.41731	-3.182741
N	-1.554367	-0.482656	-2.002179
O	-1.573312	-0.884192	-3.160891
O	-2.496633	-0.476017	-1.222114
N	-0.420333	-1.286151	0.566596
O	-0.699373	-1.295571	1.766997
O	-0.39307	-2.28414	-0.155347
H	2.657352	0.0	0.0
