15
Coordinates from ORCA-job run
  C   -0.44368127571752     -0.10398857808030      0.26662600242624
  C   1.06452117403312     -0.21864256466156      0.12245906887351
  F   -0.71467573721363      0.42008096075110      1.50201282765831
  H   1.28392490080736     -0.65179967515024     -0.85368163906677
  H   1.41603300074716     -0.92113846350953      0.89279545662757
  C   -1.14618805070450      0.70492375473646     -0.79020107433626
  H   -2.21030451613780      0.76441625207613     -0.55382323392121
  H   -1.01589146640383      0.24287871009150     -1.76797501581102
  H   -0.71324637210010      1.70379933213645     -0.79706848154828
  N   -1.00525891362448     -1.51685605377234      0.25693079441267
  O   -0.78664010445209     -2.15275254782873     -0.77175504668815
  O   -1.61251971887649     -1.91291930711260      1.24206428191492
  N   1.63910488555222      1.11538096386458      0.20920810710132
  H   2.59129766246891      1.10679333962562     -0.13006526078754
  H   1.65352453162166      1.42082387683346      1.17347321314468
