15
Coordinates from ORCA-job run
  C   -0.46727348877699      0.09397951520909      0.13621624516159
  C   1.01416388008329      0.38348722273602      0.02608124966773
  F   -0.86890770980701      0.37438735253110      1.41594335203539
  H   1.13769321672374      1.46741209342406      0.17060066891329
  H   1.33387043077644      0.13336831645884     -0.98610136954221
  C   -1.35421161929221      0.82540711360525     -0.83794292081633
  H   -1.09207035217285      0.56522972390686     -1.86237950693375
  H   -1.23870466477573      1.90044601883928     -0.69092196302060
  H   -2.39616553563722      0.55829140361742     -0.65226846831711
  N   -0.65292572218183     -1.40119462646248     -0.06668574567132
  O   -0.29969138164670     -1.81470282467851     -1.16676122908111
  O   -1.13807536387338     -2.05736702556944      0.84098836339824
  N   1.72644881689726     -0.45567189840836      0.97353401324845
  H   2.71864724430656     -0.44645202031330      0.78332944365424
  H   1.57820224937662     -0.12462036489585      1.91736786730350
