15
Coordinates from ORCA-job run
  C   -0.44120309466685     -0.07078171719434      0.28094272734486
  C   1.05958335403485     -0.24394694137887      0.11876826308448
  F   -0.67142443718596      0.54681249402232      1.48086771039336
  H   1.40434659759781     -0.90196262996309      0.93035704938827
  H   1.24577960674707     -0.75121756418526     -0.82813634683922
  C   -1.13879886655415      0.68466314580480     -0.81790469002590
  H   -2.19546528943167      0.79596219715751     -0.56722637648208
  H   -0.67452629697609      1.66561353609289     -0.90396461473106
  H   -1.04321518542634      0.15075071184352     -1.76254502700113
  N   -1.04668205479202     -1.46178779847997      0.38044990981479
  O   -0.86741725294888     -2.17516219949426     -0.60399827913465
  O   -1.64779506292405     -1.76745070927748      1.40086962310053
  N   1.67689158138393      1.07352613253018      0.10132688540196
  H   1.71762592566608      1.44568507173134      1.04110096187967
  H   2.62230047547627      1.01029627079070     -0.25090779619389
