15
Coordinates from ORCA-job run
  C   -0.51109591095797      0.15023852942641      0.17397979429009
  C   0.97268400009407      0.47123452655352      0.13068262026756
  F   -1.02422738758707      0.51755026355752      1.38098965512493
  H   1.31977899743313      0.39006100070569     -0.90416161767233
  H   1.05422966260406      1.51903381138362      0.43292475706954
  C   -1.33349716622190      0.76441247877049     -0.93157183694037
  H   -1.22805387910318      1.85033740938990     -0.89552150732475
  H   -2.38492346344102      0.51121035038022     -0.78462607751038
  H   -1.00353262689462      0.39994133284460     -1.90419333066024
  N   -0.65783107870864     -1.36030372951813      0.07788509741465
  O   -0.01098912659944     -1.88544110684583     -0.82715946026398
  O   -1.41097984296762     -1.92447789599754      0.85498056605793
  N   1.69152961631734     -0.37436639392091      1.07025094768296
  H   2.42810886070343      0.13700766083459      1.53266261966244
  H   2.09979934532942     -1.16643823756416      0.59387777280195
