15
Coordinates from ORCA-job run
  C   -0.47914968586790      0.13121486144525      0.25573010128863
  C   0.97735667364800      0.47891196158547      0.00262529434553
  F   -0.80153855757090      0.42613134736903      1.54570919949903
  H   1.09547856983605      1.51350956570157      0.33670406376124
  H   1.16395908243907      0.44919370039585     -1.07508449358443
  C   -1.46929205097849      0.78756809358053     -0.67452866935199
  H   -1.28719176572255      0.48467840940601     -1.70545645729889
  H   -2.48223238319933      0.50301308898782     -0.38425378645694
  H   -1.37496603591727      1.87196929029649     -0.59204365289622
  N   -0.62560101706928     -1.37408878014847      0.10072319168632
  O   -0.12213013135783     -1.84033532138294     -0.92014470354304
  O   -1.24638093353133     -1.99029674745294      0.95202339896389
  N   1.83769952742814     -0.40080524880087      0.77791973154010
  H   2.20312778012425     -1.14295530455538      0.19816036604714
  H   2.61186092773936      0.10329108357258      1.18291641599962
