15
Coordinates from ORCA-job run
  C   -0.39092667913164     -0.12533589594468      0.29154937406555
  C   1.13057468809142     -0.25346313946642      0.20592118280635
  F   -0.70679709200814      0.45508097147462      1.49070079701454
  H   1.44443352241373     -0.88308809735893      1.04477297958385
  H   1.38682294034579     -0.77803412699772     -0.71578910689592
  C   -1.06281738218077      0.63836151248021     -0.81990314416082
  H   -0.70182293489378      1.66721900326233     -0.81618957047855
  H   -2.14154555022903      0.65384224389814     -0.65412991569366
  H   -0.85275271116035      0.17678720101502     -1.78354622543148
  N   -0.95367603168121     -1.53472286640411      0.31829924911934
  O   -1.49508380181715     -1.93036981237932      1.34140950651911
  O   -0.78355141746646     -2.17645822732547     -0.71625672801561
  N   1.85263042636001      0.99914985502435      0.27284046853549
  H   1.69726663316918      1.56570419628117     -0.54956988196822
  H   1.57724539018842      1.52632718244080      1.09089101500003
