15
Coordinates from ORCA-job run
  C   -0.40494730383741     -0.11498659112576      0.27596503583752
  C   1.11795139315028     -0.25584496742939      0.26424019158441
  F   -0.77103558903204      0.49933452741108      1.44357310910926
  H   1.38756660487115     -0.86675364060882      1.13180837057729
  H   1.41182873168050     -0.80472868192723     -0.63171585655301
  C   -1.01848427855876      0.62370514002958     -0.88496913285359
  H   -0.76859098191626      0.13529222258711     -1.82557360740853
  H   -0.64871398803012      1.64945712442066     -0.89104773589037
  H   -2.10348180458179      0.65215609585586     -0.76950819651070
  N   -0.97941468199750     -1.51930172692629      0.31382829949634
  O   -0.76712313090792     -2.18927459126297     -0.69478224793305
  O   -1.56979640807380     -1.88444153228022      1.32110232820543
  N   1.84611666942664      0.99300195108627      0.33386920819972
  H   1.73464248163472      1.53944898204977     -0.50901166056997
  H   1.53648228617231      1.54293568812034      1.12422189470924
