15
Coordinates from ORCA-job run
  C   -0.42441052906125      0.09863710536184      0.19540338281026
  C   1.03137215364247      0.52362050598576      0.04203289381837
  F   -0.75025215850871      0.13580331341329      1.52460769082878
  H   1.08983528531978      1.55310665041716      0.40939874199271
  H   1.28418844225378      0.53002770494896     -1.01913461148457
  C   -1.42894123454279      0.89590013424495     -0.59459246234240
  H   -2.43586763191340      0.52679549337943     -0.39051116556828
  H   -1.37201742787660      1.94134384802534     -0.28679442928261
  H   -1.22393438664460      0.81834266511468     -1.66130896570412
  N   -0.51099325728334     -1.35751723107444     -0.22951060319845
  O   -0.21676982095521     -1.56905748365958     -1.40388291007049
  O   -0.82641256062727     -2.19592134368844      0.60342030062791
  N   1.99141966435277     -0.28974893427022      0.75791482604977
  H   1.70506574670546     -0.41197340924321      1.72059730886234
  H   2.08871771513892     -1.20235901895554      0.33236000266079
