18

C	-0.358719	-0.015116	-1.453056
C	-0.00933	0.010423	0.052515
F	-1.668033	-0.580017	-1.560572
H	1.080614	-0.029046	0.059061
N	-0.362017	1.313486	-1.961902
H	-0.387159	1.235889	-2.971037
H	-1.176792	1.813317	-1.6299
N	0.517911	-0.796516	-2.259673
H	0.399942	-1.758347	-1.959943
H	1.475536	-0.542263	-1.929735
N	-0.473417	-1.255804	0.676429
O	-1.178195	-1.202465	1.690827
O	-0.104597	-2.31574	0.165819
C	-0.526534	1.203709	0.823588
H	-1.615378	1.290367	0.767666
H	-0.251917	1.12139	1.875263
H	-0.056493	2.09694	0.411747
H	2.737599	-0.13046	-0.672374
