18

C	-0.302385	0.016126	-1.466194
C	0.007164	0.007594	0.048344
F	-1.596899	-0.570733	-1.623481
H	1.097824	-0.009686	0.082537
N	-0.319155	1.357828	-1.939442
H	-0.316405	1.307003	-2.950602
H	-1.152358	1.832401	-1.616211
N	0.610494	-0.725989	-2.269749
H	1.553771	-0.46412	-1.906359
H	0.502238	-1.697832	-2.000209
N	-0.445464	-1.284012	0.625956
O	-1.173772	-1.272818	1.625092
O	-0.044102	-2.322048	0.095174
C	-0.554955	1.168791	0.836773
H	-0.093665	2.082403	0.461366
H	-0.306076	1.063664	1.892801
H	-1.643634	1.234658	0.754504
H	2.77262	-0.065253	-0.602099
