18

C	-0.444567	-0.028035	-1.391621
C	0.044894	-0.13489	0.061201
F	-1.891914	-0.049251	-1.300355
H	1.115109	-0.330088	0.021106
N	-0.030743	1.208573	-1.911629
H	0.051947	1.143234	-2.920912
H	0.945794	1.457761	-1.539236
N	-0.054275	-1.160633	-2.182347
H	-0.406182	-2.018066	-1.774542
H	-0.468907	-1.049542	-3.101141
N	-0.596193	-1.338929	0.690405
O	-1.517171	-1.17661	1.488166
O	-0.165082	-2.449448	0.360246
C	-0.244634	1.106492	0.872791
H	-0.047856	0.913874	1.930241
H	-1.280177	1.419331	0.750341
H	0.440202	1.878503	0.521063
H	2.325649	1.718207	-0.900775
