18

C	-0.36272	-0.025563	-1.455145
C	-0.031075	-0.10355	0.050653
F	-0.091297	-1.351937	-1.915113
H	1.038375	-0.309861	0.122828
N	-1.729968	0.199205	-1.849571
H	-2.351706	-0.381637	-1.300585
H	-1.941445	1.171929	-1.677051
N	0.458895	0.959509	-2.004106
H	1.434574	0.941939	-1.595623
H	0.461976	0.882115	-3.013602
N	-0.743185	-1.266231	0.653147
O	-1.977302	-1.212593	0.727298
O	-0.074825	-2.213057	1.061818
C	-0.368106	1.158156	0.813678
H	-0.192519	1.012674	1.883406
H	-1.408739	1.451285	0.662951
H	0.30446	1.937076	0.455273
H	2.764672	0.906087	-0.672604
