16

C	0.0	0.0	0.0
C	-0.591841	0.029786	-1.382524
F	1.39952	0.0	0.0
H	-1.699129	0.106677	-1.163551
H	-0.311907	0.914637	0.505376
C	-0.482774	-1.209803	0.759083
H	-0.141721	-2.120913	0.265899
H	-0.100261	-1.177004	1.78327
H	-1.578675	-1.167768	0.765293
N	-0.272737	-1.112318	-2.172147
H	0.699364	-1.073114	-2.455503
H	-0.841766	-1.123576	-3.008869
N	-0.192348	1.332511	-2.057708
O	0.213952	1.285052	-3.223366
O	-0.330922	2.375855	-1.423239
H	-3.174555	0.0	0.0
