16

C	0.0	0.0	0.0
C	-0.549616	0.088738	-1.409593
F	1.39644	0.0	0.0
H	-1.636421	0.263857	-1.254856
H	-0.316729	0.904503	0.525908
C	-0.514943	-1.217879	0.716763
H	-0.163054	-1.216313	1.751717
H	-1.612899	-1.151362	0.691164
H	-0.166874	-2.132935	0.229935
N	-0.328002	-1.025602	-2.280078
H	-1.045217	-1.715569	-2.0989
H	0.58668	-1.431281	-2.125921
N	0.045916	1.328432	-2.023402
O	-0.332928	2.404697	-1.558833
O	0.899931	1.206877	-2.900814
H	-3.215917	0.0	0.0
