16

C	0.0	0.0	0.0
C	-0.631272	-0.017371	-1.36631
F	1.389547	0.0	0.0
H	-1.732356	0.098111	-1.104721
H	-0.311998	0.930059	0.478938
C	-0.480241	-1.184852	0.802007
H	-0.138569	-2.109541	0.335692
H	-0.092956	-1.118152	1.822574
H	-1.57575	-1.14804	0.811392
N	-0.404519	-1.200273	-2.12494
H	-1.097405	-1.273565	-2.858002
H	0.511471	-1.177247	-2.552486
N	-0.22185	1.23745	-2.108283
O	-0.343116	2.311645	-1.521716
O	0.180894	1.13019	-3.272774
H	-3.17285	0.0	0.0
