16

C	0.0	0.0	0.0
C	-0.548436	-0.01751	-1.420619
F	1.390347	0.0	0.0
H	-0.295719	0.917908	-1.928032
H	-0.308596	0.94122	0.47587
C	-0.421181	-1.181874	0.858316
H	-0.215203	-2.096961	0.302122
H	-1.488244	-1.13554	1.088675
H	0.150822	-1.153843	1.792116
N	-2.027184	-0.195964	-1.308541
H	-2.480946	0.264465	-2.096515
H	-2.067938	-1.222594	-1.468801
N	-0.111961	-1.07965	-2.305811
O	0.965714	-0.864111	-3.010886
O	-0.512094	-2.30037	-1.900272
H	-2.894512	0.0	0.0
