19

C	-0.410277	0.001179	-1.471699
C	0.0	0.0	0.0
Cl	0.377498	1.305061	-2.369853
H	1.095634	0.0	0.0
N	-0.138819	-1.22201	-2.122062
H	-0.702957	-1.963373	-1.731518
H	-0.297313	-1.152621	-3.119108
N	-1.963735	0.313972	-1.513123
O	-2.362776	1.471334	-1.518527
O	-2.6916	-0.679549	-1.448679
C	-0.436363	-1.275595	0.719441
H	-1.52216	-1.418839	0.703268
H	0.058557	-2.154056	0.301702
H	-0.11656	-1.20395	1.761774
C	-0.46859	1.240166	0.753042
H	-1.546853	1.225737	0.946811
H	0.053696	1.270977	1.712284
H	-0.226522	2.157624	0.21574
Br	3.589591	0.0	0.0
