19

C	-0.286767	0.093088	-1.500313
C	0.0	0.0	0.0
Cl	-1.974672	0.606453	-1.880614
H	1.098082	0.0	0.0
N	0.623164	0.974791	-2.09749
H	1.567471	0.794382	-1.749851
H	0.60125	0.929932	-3.107475
N	-0.188764	-1.356157	-2.11177
O	-1.141322	-2.120238	-1.998974
O	0.895267	-1.635077	-2.615703
C	-0.534293	-1.239649	0.696324
H	-0.319813	-1.154041	1.764823
H	-1.61499	-1.343111	0.563595
H	-0.05041	-2.149619	0.339176
C	-0.447519	1.277781	0.704137
H	-1.529396	1.287584	0.865798
H	0.053312	1.331768	1.674075
H	-0.166854	2.159121	0.126618
Br	3.5553	0.0	0.0
