19

C	-0.303515	0.063817	-1.494845
C	0.0	0.0	0.0
Cl	-2.013609	0.485664	-1.858108
H	1.098055	0.0	0.0
N	0.551467	0.988543	-2.112479
H	1.511377	0.830227	-1.802893
H	0.491503	0.944857	-3.12092
N	-0.121405	-1.381294	-2.086243
O	0.997332	-1.616783	-2.533267
O	-1.046158	-2.182739	-2.015254
C	-0.51855	-1.237927	0.712923
H	-1.599038	-1.353888	0.587896
H	-0.027014	-2.146399	0.362431
H	-0.298411	-1.139516	1.778925
C	-0.457179	1.280641	0.692085
H	-1.537857	1.277913	0.862195
H	0.04985	1.353006	1.657566
H	-0.193431	2.158185	0.101446
Br	3.586632	0.0	0.0
