19

C	-0.540124	-0.030388	-1.423747
C	0.0	0.0	0.0
Cl	0.298776	-1.23138	-2.428069
H	1.093317	0.0	0.0
N	-1.935008	-0.290025	-1.481287
H	-2.42286	0.419577	-0.948465
H	-2.258018	-0.237244	-2.439498
N	-0.204702	1.357271	-2.06929
O	0.959203	1.614135	-2.321576
O	-1.160718	2.126036	-2.205468
C	-0.436915	-1.253906	0.755198
H	0.095174	-1.283515	1.709973
H	-0.171174	-2.155614	0.200844
H	-1.514413	-1.267824	0.94224
C	-0.434478	1.264177	0.744664
H	-0.021944	1.216683	1.754679
H	-1.522965	1.362667	0.832608
H	-0.03471	2.167812	0.281332
Br	3.630748	0.0	0.0
