19

C	-0.338105	0.065029	-1.491831
C	0.0	0.0	0.0
Cl	-2.058216	0.472085	-1.768443
H	1.097559	0.0	0.0
N	0.469418	0.959988	-2.265945
H	1.440598	0.826824	-1.978537
H	0.195604	1.908506	-2.049634
N	-0.10042	-1.338967	-2.076171
O	-1.017714	-2.153384	-2.059355
O	1.047311	-1.555645	-2.43998
C	-0.515785	-1.238101	0.718524
H	-0.259459	-1.161228	1.778109
H	-1.601464	-1.337238	0.626113
H	-0.049584	-2.1484	0.339048
C	-0.429693	1.273578	0.722294
H	0.070867	1.302865	1.692907
H	-0.127653	2.172474	0.180448
H	-1.510783	1.306493	0.881946
Br	3.565431	0.0	0.0
