14
Coordinates from ORCA-job run
  C   -0.81530034968202     -0.18265128253655     -0.09194429777431
  C   0.38832094958017      0.79352207272616     -0.03936899964209
  Br  -2.32519415226543      0.57873169690696      0.89519509007671
  H   0.06378423522616      1.79252243059073     -0.33639016600551
  N   -0.46268486794048     -1.42839649754486      0.51742734602540
  H   -1.23217746196598     -2.08527731815195      0.46982521270419
  H   0.36015221027902     -1.83358548993628      0.08113401605380
  C   -1.24625278418994     -0.25990234074252     -1.49858719147026
  N   -1.56566071525448     -0.38315937661581     -2.62465664188537
  C   1.45665154627288      0.30496329527802     -0.90376104128787
  N   2.28792863719841     -0.10977919823362     -1.62342550286355
  N   0.91053650509726      0.90861811778635      1.37880366611461
  O   0.44508057075348      1.82932122156759      2.03878837666630
  O   1.73381567689096      0.07607266890579      1.73496013328796
