14
Coordinates from ORCA-job run
  C   -0.82855061321674     -0.17897870314383     -0.29192992132556
  C   0.29756613281350      0.80460363278045      0.15223985480019
  Br  -2.22761765006532      0.99794409020740     -1.04071185548075
  H   -0.12734037935414      1.52183850835712      0.85712087523911
  N   -1.38446028677190     -0.96615376420929      0.75322359438606
  H   -0.82939657688959     -1.78544259656888      0.96486723736501
  H   -1.58382867620870     -0.43064919383090      1.58837738823106
  C   -0.35429694334982     -1.05210020472287     -1.36450482155204
  N   0.01620114750149     -1.78009030501671     -2.21005490700208
  C   0.95352101214611      1.47484462021675     -0.95776536156419
  N   1.47832675298882      2.02469478059628     -1.85362625790761
  N   1.30536091783105     -0.00065713689483      0.94043530985109
  O   2.11401083959785     -0.66314028303279      0.30100136927807
  O   1.17050432297738      0.03228655526210      2.16032749568162
