14
Coordinates from ORCA-job run
  C   -0.58395613942527     -0.43366597044805     -0.17700180063936
  C   0.61732154480315      0.36444291997575      0.38507578878157
  Br  -0.84349957063019      0.12396107483854     -2.08818596179506
  H   0.87795240351950     -0.08082645214207      1.35027386604350
  N   -1.69836798852730     -0.18565293288109      0.66259126021051
  H   -2.00753690674300      0.77883996232874      0.60881811350457
  H   -2.47151549910434     -0.80519076989453      0.45331401898983
  C   -0.31207393143484     -1.86988324065585     -0.20299327037166
  N   -0.18206260763970     -3.03813471782846     -0.19399832913328
  C   0.26721171968370      1.76730946931564      0.54846975368132
  N   -0.07977272237702      2.87584109097347      0.72345291010948
  N   1.84614624684793      0.21523986894474     -0.48631634868508
  O   2.30878474408868     -0.91863586079609     -0.51731389270767
  O   2.26436870693870      1.20735555826928     -1.06618610798868
