15

C	-0.526298	0.02793	-1.42337
C	0.0	0.0	0.0
Cl	0.268941	-1.179735	-2.403751
H	1.09643	0.0	0.0
H	-0.387443	1.005781	-1.88009
N	-2.028154	-0.206307	-1.384225
O	-2.621949	0.575949	-0.644479
O	-2.544663	-1.089531	-2.049941
N	-0.479824	-1.137117	0.721315
H	0.30988	-1.569841	1.182456
H	-1.136613	-0.837533	1.433642
N	-0.345682	1.316659	0.669287
O	-0.112476	2.336192	0.031463
O	-0.784297	1.284175	1.815788
Cl	3.204818	0.0	0.0
