15

C	-0.591559	-0.081262	-1.39766
C	0.0	0.0	0.0
Cl	-2.361912	-0.045088	-1.35131
H	1.091302	0.0	0.0
H	-0.282888	-1.033801	-1.818967
N	-0.069685	0.963071	-2.366884
O	-0.772192	1.914621	-2.671095
O	1.056752	0.719435	-2.777045
N	-0.420111	-1.137125	0.74674
H	-1.311189	-0.973305	1.193513
H	0.275531	-1.330263	1.453446
N	-0.411099	1.32142	0.631859
O	-0.076809	2.336589	0.029381
O	-1.029657	1.291973	1.695257
Cl	3.231374	0.0	0.0
