15

C	-0.517454	0.009246	-1.426175
C	0.0	0.0	0.0
Cl	0.263525	-1.228559	-2.391429
H	1.096688	0.0	0.0
H	-0.35457	0.980746	-1.885521
N	-2.022866	-0.200454	-1.388251
O	-2.635169	0.756149	-0.921252
O	-2.511868	-1.249729	-1.774428
N	-0.589943	-1.103805	0.727482
H	-0.278214	-1.036914	1.689901
H	-0.173269	-1.948804	0.348718
N	-0.371706	1.294701	0.664027
O	-0.177555	2.322431	0.023865
O	-0.762299	1.245651	1.827025
Cl	3.252651	0.0	0.0
