15

C	-0.649763	0.057581	-1.375278
C	0.0	0.0	0.0
Cl	0.00848	1.336046	-2.382983
H	1.08916	0.0	0.0
H	-1.725656	0.195175	-1.286982
N	-0.48788	-1.282256	-2.042329
O	-1.517138	-1.951594	-2.119191
O	0.624476	-1.605194	-2.425446
N	-0.452925	-1.164267	0.683203
H	-1.391795	-1.057901	1.042325
H	0.198842	-1.406837	1.416016
N	-0.473375	1.281007	0.689304
O	-1.674499	1.31301	0.986336
O	0.332626	2.175728	0.907201
Cl	3.305018	0.0	0.0
