15

C	-0.424214	-0.008494	-1.457818
C	0.0	0.0	0.0
Cl	-0.139101	-1.573728	-2.208459
H	1.094024	0.0	0.0
H	0.118614	0.741139	-2.02452
N	-1.886948	0.331471	-1.636543
O	-2.634651	0.168814	-0.673283
O	-2.226597	0.738229	-2.741812
N	-0.480078	-1.060802	0.792696
H	0.121356	-1.187623	1.593232
H	-1.435951	-0.916132	1.082553
N	-0.372569	1.386849	0.533501
O	-0.301687	2.332253	-0.251961
O	-0.683266	1.474926	1.716883
Cl	3.234344	0.0	0.0
