19

C	0.0	0.0	0.0
C	-0.222021	-0.022225	-1.570128
F	1.402397	0.0	0.0
H	-0.003029	0.979809	-1.943737
C	-0.526218	1.289179	0.576375
H	-0.088911	2.150571	0.066137
H	-0.264136	1.321944	1.636608
H	-1.616696	1.247319	0.460904
N	-0.543674	-1.099249	0.716026
H	-0.332112	-1.954678	0.213442
H	-1.56606	-0.929858	0.661307
C	-1.532151	-0.545929	-2.113074
H	-2.366966	-0.11875	-1.533504
H	-1.580873	-1.624828	-1.952397
H	-1.588546	-0.346495	-3.188764
N	0.872999	-0.854519	-2.177348
O	1.663582	-0.309315	-2.948111
O	0.904813	-2.0519	-1.890998
F	-3.088517	0.0	0.0
