19

C	0.0	0.0	0.0
C	-0.253143	0.509949	-1.469444
F	1.426212	0.0	0.0
H	0.673577	1.023989	-1.72968
C	-0.418849	1.041986	1.016557
H	-1.512086	1.054322	0.994907
H	-0.054025	0.732576	2.002432
H	0.008117	2.021564	0.782511
N	-0.575432	-1.284948	0.160932
H	-1.601647	-1.049999	0.108841
H	-0.364735	-1.63341	1.090712
C	-1.453395	1.373637	-1.795612
H	-2.357915	0.890835	-1.414881
H	-1.484861	1.545695	-2.876
H	-1.337504	2.341409	-1.299327
N	-0.224328	-0.695843	-2.372548
O	0.879085	-1.191511	-2.607005
O	-1.285924	-1.120204	-2.820456
F	-2.951717	0.0	0.0
