19

C	0.0	0.0	0.0
C	-0.176426	-0.029143	-1.572868
F	1.400074	0.0	0.0
H	0.407646	0.814184	-1.946057
C	-0.502984	1.321566	0.531968
H	-0.19482	1.403854	1.57704
H	-1.596085	1.281063	0.458679
H	-0.081909	2.1567	-0.03459
N	-0.571878	-1.055633	0.746548
H	-0.408868	-1.933793	0.266484
H	-1.592839	-0.844666	0.679146
C	-1.554379	-0.057063	-2.205218
H	-1.462031	-0.376297	-3.250026
H	-1.971295	0.949574	-2.180715
H	-2.257074	-0.652453	-1.626718
N	0.595575	-1.204503	-2.091559
O	1.578944	-0.988066	-2.801728
O	0.191174	-2.333896	-1.805067
F	-3.014322	0.0	0.0
