15
Coordinates from ORCA-job run
  C   -0.53241960240621      0.12423501642355      0.17035926193223
  C   0.97485298101491      0.04297927368135      0.52765834414190
  F   -1.11298355233336      0.69078780160085      1.32772660377418
  H   1.05831985671423     -0.49172322598820      1.48042587348638
  C   -1.14303550459919     -1.24627803449739     -0.01259798783361
  H   -0.73044108982930     -1.74153026351288     -0.89118483834657
  H   -0.96754828264172     -1.85897835519664      0.87285176953262
  H   -2.22266461686957     -1.13645231960800     -0.13639546934705
  N   -0.70842597565748      0.93293957297268     -0.97048621678543
  H   -0.42425018310884      1.89135508461654     -0.80598869692238
  H   -1.66618666092795      0.91605267752228     -1.29480531325532
  C   1.52474727201414      1.39037031457287      0.70612876111201
  N   1.92671579327599      2.48583764789282      0.83285216899921
  C   1.71955850102392     -0.68935785923534     -0.49836798479444
  N   2.30376106433043     -1.30723733124449     -1.30717627569375
