15
Coordinates from ORCA-job run
  C   -0.52520068121845      0.18692358610939      0.13151147232324
  C   0.95197921926284      0.00466611482686      0.56790175551599
  F   -1.09579988750090      0.91020031135051      1.20355113373797
  H   0.94478134288359     -0.44042176949464      1.56905873615789
  C   -1.25422732666577     -1.13416190473001      0.04389906722489
  H   -1.17972030915168     -1.66996728301278      0.99118465962206
  H   -2.31132578303256     -0.94044061007572     -0.15029507158639
  H   -0.85004733927972     -1.74883191230674     -0.75993656814031
  N   -0.57904695772415      0.89682411165106     -1.08497987960234
  H   -1.52272843182835      0.94215589253799     -1.44675724085229
  H   -0.20643738493044      1.83479151365451     -0.99563545463232
  C   1.61996534952475      1.30739668404356      0.64825246072544
  N   2.11935570381205      2.36868549526771      0.69324744816516
  C   1.66623678956413     -0.88746225084569     -0.34702540823900
  N   2.22421569628465     -1.63035797897601     -1.06397711041999
