15
Coordinates from ORCA-job run
  C   -0.46878997646750      0.15809060741257     -0.07284220884180
  C   1.06612592572503     -0.06184371933217     -0.02155153930914
  F   -0.69886286172229      1.33924480895819      0.65513613778139
  H   1.28178186738078     -1.00113639533637     -0.54258041602238
  C   -1.21921739311625     -0.95578611911535      0.62088679937138
  H   -1.04056280514520     -1.90925885188347      0.12228922425402
  H   -0.91980458218328     -1.02265205069764      1.66676755971423
  H   -2.28836298336699     -0.73447715977613      0.58957273368628
  N   -0.85439622006549      0.28129928435169     -1.42898853770017
  H   -0.46700816733654      1.11805266010361     -1.85043224371195
  H   -1.86242848193263      0.30779011285417     -1.51485816927901
  C   1.54356142522539     -0.16154770604599      1.35998913428565
  N   1.90793565323605     -0.27369614674603      2.46986962993799
  C   1.75495992850512      1.02402158855070     -0.72590832140369
  N   2.26406867126379      1.89389908670224     -1.32734978276280
