15
Coordinates from ORCA-job run
  C   -0.49991671446914      0.27386105631908      0.18007390195551
  C   0.97176466313316     -0.02438716699397      0.57275756329250
  F   -1.00249391423941      1.06285575512171      1.20020085793403
  H   0.96086097821733     -0.58968588007865      1.51202813184138
  C   -1.33141792896412     -0.99483988947701      0.13597898093257
  H   -0.98142678745154     -1.66329504178432     -0.65301234017886
  H   -1.29613980408539     -1.52024262423670      1.09315317408215
  H   -2.36875527246320     -0.72340021308612     -0.07023333430188
  N   -0.50034443239107      1.08826920815881     -1.00266221521693
  H   -0.23733161844241      0.54914047293241     -1.81927434179805
  H   -1.42779746335443      1.46917955648381     -1.14971936568850
  C   1.71575321169892      1.21959577741574      0.78762690873815
  N   2.32667566459596      2.19965115675037      0.99370709102383
  C   1.60798267297884     -0.84079557881340     -0.46312725337924
  N   2.06358674523648     -1.50490658871178     -1.31749775923664
