15

C	-0.529166	0.020733	-1.444753
C	0.0	0.0	0.0
F	0.057757	-0.91762	-2.251255
H	1.093544	0.0	0.0
C	-1.994746	-0.188752	-1.440429
N	-3.158738	-0.336362	-1.386262
C	-0.25858	1.350633	-2.025257
N	-0.038513	2.373463	-2.558148
N	-0.42061	-1.291815	0.672754
O	-0.540705	-2.292637	-0.028362
O	-0.582007	-1.250673	1.889806
N	-0.463224	1.154388	0.689719
H	-1.30826	0.973578	1.213571
H	0.255735	1.478471	1.321995
Br	3.32898	0.0	0.0
