15

C	-0.518372	-0.117087	-1.450063
C	0.0	0.0	0.0
F	-0.169425	1.044893	-2.099877
H	1.100723	0.0	0.0
C	0.038211	-1.233239	-2.231947
N	0.444556	-2.056357	-2.964076
C	-1.994222	-0.203033	-1.440713
N	-3.166583	-0.247885	-1.398967
N	-0.423769	-1.232618	0.76801
O	-0.529764	-1.12066	1.985334
O	-0.611006	-2.268804	0.130988
N	-0.454795	1.203766	0.592644
H	0.270826	1.572675	1.191821
H	-1.307037	1.08101	1.124915
Br	3.324134	0.0	0.0
