15

C	-0.559123	-0.198578	-1.401081
C	0.0	0.0	0.0
F	-1.907947	0.077223	-1.474316
H	1.112724	0.0	0.0
C	0.127913	0.754572	-2.293091
N	0.613143	1.530948	-3.022285
C	-0.32877	-1.561205	-1.908396
N	-0.148049	-2.614347	-2.390194
N	-0.477327	-1.074899	0.923046
O	0.178385	-1.216971	1.960324
O	-1.519401	-1.684208	0.639758
N	-0.496784	1.25099	0.577551
H	-0.031953	1.309149	1.48718
H	-0.076487	2.00685	0.034138
Br	3.332492	0.0	0.0
