15

C	-0.471542	-0.191922	-1.452083
C	0.0	0.0	0.0
F	0.158737	-1.234498	-2.078762
H	1.111336	0.0	0.0
C	-1.934258	-0.41397	-1.511796
N	-3.097427	-0.569299	-1.57322
C	-0.167287	1.044892	-2.199363
N	0.055782	2.003825	-2.838424
N	-0.435209	-1.184654	0.839622
O	-0.554158	-0.982547	2.045863
O	-0.6167	-2.261414	0.276929
N	-0.474021	1.238197	0.506405
H	-1.364902	1.147677	0.97798
H	0.206377	1.628561	1.144919
Br	3.322445	0.0	0.0
