15

C	-0.524791	0.006402	-1.440414
C	0.0	0.0	0.0
F	-0.19529	1.248677	-1.960289
H	1.099245	0.0	0.0
C	0.074598	-1.014332	-2.313876
N	0.51757	-1.759425	-3.106441
C	-1.995561	-0.108917	-1.472669
N	-3.166132	-0.165295	-1.522734
N	-0.444084	-1.243459	0.685994
O	-0.752788	-2.206556	-0.013425
O	-0.437337	-1.232173	1.911453
N	-0.565453	1.13771	0.697058
H	-0.040135	1.948639	0.38595
H	-0.338023	1.013221	1.677551
Br	3.359233	0.0	0.0
