15

C	-0.56437	0.000132	-1.420782
C	0.0	0.0	0.0
F	-1.950815	-0.152927	-1.335833
H	1.092622	0.0	0.0
C	-0.304779	1.312588	-2.038082
N	-0.148584	2.328183	-2.605909
C	-0.053264	-1.038228	-2.330207
N	0.282274	-1.79673	-3.161659
N	-0.41528	-1.311552	0.65646
O	-0.259052	-2.338927	0.004519
O	-0.851155	-1.25471	1.803845
N	-0.456226	1.144992	0.698906
H	0.215232	1.391378	1.413276
H	-1.363913	0.998837	1.119034
Br	3.323249	0.0	0.0
