14
Coordinates from ORCA-job run
  C   1.00678256186482     -0.05695723518190     -0.00420486692276
  C   -0.42284605838656      0.51951942844786     -0.00851023920209
  Br  2.12395743758616      1.20653988422656     -1.03531444572908
  H   -0.40042841170424      1.49102110850536      0.50652159330828
  C   1.07875730955886     -1.35893427084723     -0.65799768034073
  N   1.17250136973408     -2.40658018265854     -1.18241375298968
  C   1.55820331978393     -0.08851611688272      1.34754539150889
  N   1.99388130349150     -0.05764276050424      2.43895411498371
  N   -1.32725392863866     -0.35030016183683      0.84233336240122
  O   -0.86077983570323     -1.35595288816860      1.36533905479385
  O   -2.48222241137262      0.05148292845811      0.92360188741703
  N   -0.98968493804083      0.49391154665229     -1.32515527220691
  H   -1.95919212264714      0.78503188161783     -1.27322304157191
  H   -0.49167559552607      1.12737683817205     -1.93747610544981
