14
Coordinates from ORCA-job run
  C   0.88256497726996     -0.35470268902798     -0.06190468723298
  C   -0.50753531068885      0.29158722737517      0.10153802967054
  Br  1.00407527637841     -1.47956845370877     -1.65670595738687
  H   -0.45399722387570      0.91858621132660      1.00323959597684
  C   1.24581161727124     -1.12559241331579      1.12407639114842
  N   1.56466587695168     -1.68644699021716      2.10485237917965
  C   1.84803805183406      0.73599162672809     -0.22835002505223
  N   2.59161288075651      1.62876146769651     -0.41394784918878
  N   -1.57333267146081     -0.73662987793861      0.46222069849114
  O   -2.66110580972536     -0.23377481694769      0.71884024242215
  O   -1.29295184593823     -1.93017822661100      0.45960501214174
  N   -0.94822664175467      0.96766019669875     -1.07374743761763
  H   -1.51112290543798      1.77466367381519     -0.84155033595078
  H   -0.18949627158026      1.22864306412668     -1.69616605660122
