14
Coordinates from ORCA-job run
  C   0.83386320123107     -0.38517543191552     -0.18139654222719
  C   -0.48947687010665      0.32095171224015      0.19170994467357
  Br  0.64233734009166     -1.47232191030978     -1.80263499623254
  H   -0.29319788423336      0.90168135907379      1.10159341449748
  C   1.35159139285225     -1.21043232087893      0.90706094750133
  N   1.82781493201177     -1.80746896939225      1.80116609587535
  C   1.80582894137483      0.66875623297901     -0.48171150938884
  N   2.55839221677001      1.53986889800224     -0.72101113036929
  N   -1.54102732654721     -0.69818823155089      0.65942375575007
  O   -1.25016258174376     -1.88920874106100      0.69040245387738
  O   -2.60606451621620     -0.19236030885897      0.98267809759230
  N   -1.03379916603848      1.09844494044770     -0.85586339948099
  H   -0.50683312102187      1.09638099123962     -1.71519563319969
  H   -1.29826655842404      2.02807177998483     -0.57522149886893
