14
Coordinates from ORCA-job run
  C   0.92941417058463     -0.26572996860938      0.35910368522510
  C   -0.46635465633300      0.38650767041889      0.23908073322126
  Br  1.34400186747099     -0.64930295167958      2.23378181237306
  H   -0.53051380701682      1.19194723371568      0.98399263885592
  C   1.89498137875542      0.73611014126120     -0.09639807149281
  N   2.61651663525997      1.58449703690923     -0.47381559006122
  C   1.06009673924393     -1.47247244409498     -0.45333061249553
  N   1.22355424119946     -2.42443924195941     -1.12296551838401
  N   -1.57079709562908     -0.57656580213390      0.61334162976633
  O   -2.69355780206751     -0.08329098133529      0.56723540704131
  O   -1.28911018212546     -1.72730375889333      0.91925567669796
  N   -0.70323912934635      0.75019829700759     -1.13120234532568
  H   -1.67861029770311      1.00255547624296     -1.24579067911518
  H   -0.13538206229308      1.54828929315032     -1.39128876630651
