14
Coordinates from ORCA-job run
  C   1.00413272142758     -0.07319859012330     -0.02595471086750
  C   -0.41661908750437      0.52499898769208     -0.02584137000291
  Br  2.11158292023826      1.11224403907444     -1.15421403578607
  H   -0.36567323812415      1.52325372148268      0.43301042791576
  C   1.03928033864101     -1.41094831839409     -0.60687543464272
  N   1.10468001374582     -2.48185482942204     -1.08660008842360
  C   1.59005233418406     -0.03929312342874      1.31133345259045
  N   2.07090926515577      0.04503562289472      2.38070430075314
  N   -1.30976591129686     -0.28081076049563      0.89683066357405
  O   -0.84417703837520     -1.26329122260705      1.46298177516080
  O   -2.45581643783379      0.14396936904608      0.98661998173699
  N   -1.02001111405160      0.43445734944292     -1.32294495585161
  H   -1.98215593567644      0.74743861110355     -1.26279005137408
  H   -0.52741883053010      1.01999914373438     -1.98525995478270
