16

C	0.0	0.0	0.0
C	-0.655963	0.08085	-1.336429
F	1.331993	0.0	0.0
H	-0.45927	1.091866	-1.704038
H	-1.738193	-0.008827	-1.155102
N	-0.417662	1.18527	0.872497
O	0.05818	2.254558	0.502726
O	-1.152737	0.987254	1.826531
N	-0.36496	-1.25932	0.793602
O	-1.223034	-2.000752	0.336894
O	0.290226	-1.427807	1.817995
C	-0.138906	-0.95778	-2.325116
H	-0.346366	-1.969022	-1.978791
H	0.934262	-0.851294	-2.496915
H	-0.651789	-0.825029	-3.279237
Br	-4.061657	0.0	0.0
