14

C	0.0	0.0	0.0
C	-0.32483	-0.372884	-1.46031
Br	1.908666	0.0	0.0
H	0.420439	-1.099401	-1.788381
H	-0.160835	0.540628	-2.033771
N	-0.441949	1.405139	0.38133
O	-0.545389	2.189087	-0.551941
O	-0.516697	1.688298	1.563839
N	-0.416859	-1.106108	0.958242
O	-0.484689	-2.210241	0.432892
O	-0.507865	-0.871578	2.149096
C	-1.633884	-0.924088	-1.815263
N	-2.434299	-1.483216	-2.475478
F	-2.238989	0.0	0.0
