14

C	0.0	0.0	0.0
C	-0.327622	0.12184	-1.501588
Br	1.908866	0.0	0.0
H	0.425359	0.768251	-1.954935
H	-0.178422	-0.88021	-1.907237
N	-0.408498	1.254014	0.760108
O	-0.506106	2.249441	0.053857
O	-0.458451	1.227398	1.976731
N	-0.448892	-1.318862	0.614473
O	-0.57816	-1.388171	1.822169
O	-0.504955	-2.258069	-0.168331
C	-1.630395	0.624627	-1.938827
N	-2.432416	1.116814	-2.647814
F	-2.240602	0.0	0.0
