14

C	0.0	0.0	0.0
C	-0.311578	0.117438	-1.503271
Br	1.908985	0.0	0.0
H	-0.022831	-0.841478	-1.936731
H	0.363438	0.870565	-1.911869
N	-0.42483	1.249827	0.755031
O	-0.535654	2.244248	0.050302
O	-0.486093	1.219887	1.971154
N	-0.450104	-1.319251	0.606679
O	-0.557669	-2.242313	-0.1888
O	-0.529536	-1.405691	1.819171
C	-1.660449	0.455159	-1.964098
N	-2.471791	0.7851	-2.753502
F	-2.253056	0.0	0.0
