12
Coordinates from ORCA-job run
  C   0.68989003020193      0.74944896981709      0.30669738172811
  C   -0.35967074047034     -0.06439087294792     -0.45305224484569
  F   0.34308297311788      0.76173504263131      1.64432155466880
  H   -0.04463193000837     -0.11543843001435     -1.50083584583839
  H   0.71088603606605      1.78570587934644     -0.04258784495256
  C   2.01935285258874      0.14648508216921      0.14830983944738
  N   3.09511267333367     -0.29360872503974     -0.00982442375885
  C   -1.65082117414626      0.65517122307843     -0.39841369961971
  N   -2.69712985946282      1.18614857512662     -0.34581227244927
  N   -0.38624542824457     -1.40698483386528      0.08894538953940
  H   -0.97257452736014     -2.01141356813976     -0.47141135459133
  H   -0.74725090561576     -1.39385834216205      1.03466352067211
