12
Coordinates from ORCA-job run
  C   0.94974799559653      0.01923197479964      0.09728819825206
  C   -0.54091557544161      0.08788179717441     -0.29550206497711
  F   1.67599723818121     -0.12745927701304     -1.07047980115129
  H   -0.67211411976328      0.99853188046017     -0.89052432090516
  H   1.13490544667525     -0.85970442077331      0.72227659441120
  C   1.38808321179696      1.23367513855516      0.79349210748637
  N   1.71643267257802      2.21722685339126      1.34401203583626
  C   -1.33984464210658      0.21247623726911      0.92849233644694
  N   -1.94391405516432      0.27550206430925      1.93276824765798
  N   -0.99971021972482     -1.03715051141786     -1.08303037425892
  H   -0.43763090036505     -1.11799493914877     -1.92099715871518
  H   -0.93203705226230     -1.90121679760601     -0.55879580008316
