12
Coordinates from ORCA-job run
  C   0.66042837919671      0.73977858792341      0.47307731869777
  C   -0.36111449011903      0.03850408981959     -0.43780594593467
  F   0.16180739627903      0.86034085574910      1.74266070370649
  H   0.02982571282262      0.11021590855452     -1.46590630489092
  H   0.87598301775918      1.74282484109969      0.09122953275810
  C   1.89898969946897     -0.05344380412404      0.49214922331210
  N   2.87095813798608     -0.70908193342681      0.44513058667395
  C   -1.61536655039399      0.79733174450290     -0.39270584242726
  N   -2.61910416630568      1.40466631665571     -0.38081138885289
  N   -0.58068231815997     -1.32092370062651      0.03124932383208
  H   -1.47192237777272     -1.67677670738683     -0.28733522118176
  H   0.15119755923878     -1.93143619874073     -0.31093198569300
