12
Coordinates from ORCA-job run
  C   0.78654796827400      0.54134424345470      0.46342320561316
  C   -0.46046482778611      0.14068999915998     -0.32698608474105
  F   0.76476168019526     -0.12650230338492      1.67320161758166
  H   -0.40588712234747      0.63203634338979     -1.30438338359444
  H   0.78887407188453      1.61459584069957      0.67416102883331
  C   2.00284428461624      0.18082351367217     -0.27605935003337
  N   2.98706242925782     -0.04423721224941     -0.87337390970353
  C   -1.65467387906810      0.65768713469725      0.37582858250171
  N   -2.62247617148589      1.04816719827511      0.91451679917326
  N   -0.44056246324646     -1.29371172683453     -0.52763065486729
  H   -0.56141681472399     -1.77002944815713      0.35755565892493
  H   -1.18360915556982     -1.58086358272260     -1.15125350968835
