12
Coordinates from ORCA-job run
  C   0.67697957943551      0.77307432974084      0.38643115396359
  C   -0.36823013452908     -0.00077374935941     -0.43398265814743
  F   0.19974155386396      1.02827708674893      1.64422396877673
  H   0.00499508184300     -0.03665297125788     -1.47055685426669
  H   0.89971768485751      1.72929391917949     -0.09779613824536
  C   1.90616680155312     -0.03059247923107      0.46801650881132
  N   2.87357957386343     -0.69474354125774      0.47087033489167
  C   -1.61246696863850      0.77604631701477     -0.44389751501153
  N   -2.61158778588290      1.39000703329008     -0.47775927293999
  N   -0.59702163965230     -1.30353472097367      0.17159785037082
  H   0.12331023108116     -1.95425518075568     -0.11712120003798
  H   -1.49618397779490     -1.67814604313863     -0.10002617816516
