12
Coordinates from ORCA-job run
  C   0.64652348839666      0.62582839555709      0.45949851986592
  C   -0.46846982689173      0.09290803613853     -0.46367837233502
  F   0.31734229131726      0.31464098174894      1.76362254498224
  H   -0.18470525964878      0.32506249031572     -1.49656224281970
  H   0.74589155407785      1.71270614476829      0.38364484023197
  C   1.91826557400701     -0.02217653980374      0.11200428071471
  N   2.90911457154015     -0.55151351692163     -0.22805791419800
  C   -1.69954855721706      0.83688712427626     -0.15551706996470
  N   -2.66592434159879      1.44472634981035      0.11459798299290
  N   -0.71477408228792     -1.32901659770780     -0.36302537374899
  H   -0.87081927848945     -1.59285653946246      0.60189385690828
  H   0.06810386679479     -1.85619632871956     -0.72942105262961
