12
Coordinates from ORCA-job run
  C   1.05399884631083      0.18510310005049     -0.04763548431490
  C   -0.45501334217427      0.04170689223283     -0.30032043624583
  F   1.67127448651064      0.47896346581651     -1.23812262666738
  H   -0.77186494425098      0.96175541423222     -0.80130859855840
  H   1.46000366924777     -0.76077492516782      0.32507617915774
  C   1.33309362232435      1.25890129459090      0.91737219866979
  N   1.55296657939318      2.12445752049036      1.67897402957114
  C   -1.16226374506076     -0.05945383202885      0.99133832249120
  N   -1.73164542543045     -0.21792967016152      2.00684919378353
  N   -0.68460018877276     -1.07743102630027     -1.19420979240850
  H   -0.68616155592018     -1.95153004048483     -0.68245195047570
  H   -1.57878800217738     -0.98376819327004     -1.65756103500273
