12
Coordinates from ORCA-job run
  C   1.06688284671111      0.09335589948550      0.04847420423824
  C   -0.41428689831996      0.02311633539810     -0.35429438951477
  F   1.83014292279097      0.12274792781581     -1.09226694736490
  H   -0.58690314041172      0.86002278112831     -1.03815208272411
  H   1.33934312200193     -0.79932719082073      0.62058760925139
  C   1.34563868747167      1.29750800687814      0.84506083367944
  N   1.56936336275646      2.26842871133106      1.46545327882827
  C   -1.25946012177309      0.20900622852181      0.84173315730776
  N   -1.95363694139436      0.26673114418819      1.78796120616950
  N   -0.65704467188625     -1.21714159935617     -1.06611967747772
  H   -1.48553580353481     -1.13995592790636     -1.64118905367369
  H   -0.79550336441198     -1.98249231666364     -0.41724813871943
