12
Coordinates from ORCA-job run
  C   1.00533304426761      0.01810365799581      0.17468850883063
  C   -0.46046242829960      0.01805172223611     -0.26878250760814
  F   1.78064315615632     -0.08955267682971     -0.96661361358663
  H   -0.61527365459895      0.91806024559857     -0.88386675370713
  H   1.19520068205558     -0.85835272528229      0.79903847654671
  C   1.35963587745422      1.25295245025067      0.88416653037542
  N   1.63387982083722      2.24614608034636      1.44621905341034
  C   -1.31775850127460      0.12202059490519      0.91582512649820
  N   -2.01101919056434      0.20115227118577      1.85944226916924
  N   -0.70890983945612     -1.24190598531955     -0.95479114095951
  H   -0.17232449404849     -1.25994577261070     -1.81354137279228
  H   -1.68994447252889     -1.32572986247626     -1.19078457617683
