12
Coordinates from ORCA-job run
  C   0.74251848443667      0.51659126960651      0.45186752778208
  C   -0.55987366415508      0.18681487833978     -0.30690625585684
  F   0.71400742039378     -0.13392817121434      1.66876184600338
  H   -0.51312178050560      0.68728424262530     -1.28089996203256
  H   0.83681409116233      1.58983785635034      0.64190455808170
  C   1.89230787067023      0.03885483814349     -0.32794609747103
  N   2.77193879488525     -0.34860209772816     -1.00157101995986
  C   -1.68011664820094      0.77060046888541      0.44639463916992
  N   -2.55349458666736      1.25013252950995      1.06576232627848
  N   -0.79561951307857     -1.22369820451239     -0.52567292547452
  H   -0.73321134183843     -1.73176204213671      0.34784525465188
  H   -0.12214912710226     -1.60312556786917     -1.17953989117263
