12
Coordinates from ORCA-job run
  C   0.80543153556266      0.69149097924496      0.02921082674302
  C   -0.36969753478888     -0.18256888892717     -0.41271635113429
  F   0.47621101161078      1.28166435262588      1.23513123526926
  H   -0.07617324289555     -0.68836861310166     -1.33878330201906
  H   0.99248102277002      1.49136960415955     -0.69289238787443
  C   2.01792374628490     -0.12018800416475      0.19285888438015
  N   3.01298893741386     -0.73726789896803      0.26560146784345
  C   -1.52481770834231      0.69119992418246     -0.71262907958691
  N   -2.47057663794027      1.35722322673442     -0.91558266377591
  N   -0.61149575166969     -1.18326809620608      0.60606881795762
  H   -0.95524993931419     -0.74301794349755      1.45048489394703
  H   -1.29702543869135     -1.85826864208203      0.29324765825005
