12
Coordinates from ORCA-job run
  C   1.05949509702881      0.15451874019895     -0.01787486813922
  C   -0.44291384377093      0.03578583200308     -0.31838172321922
  F   1.72716516908001      0.36404156092615     -1.19892603923368
  H   -0.71591925419161      0.93396555147666     -0.88105463856799
  H   1.42565249090738     -0.77850532057595      0.42238261491976
  C   1.33293826074833      1.27461883409286      0.89474256264471
  N   1.54932846188151      2.17977861257768      1.60990055414430
  C   -1.19820993841597      0.02568837177177      0.94975320983945
  N   -1.80758652828125     -0.05859724163583      1.95078886232260
  N   -0.67132418760159     -1.12552207690670     -1.15708756446842
  H   -0.71284888344074     -1.96943705899857     -0.59847324317128
  H   -1.54677684394394     -1.03633580493007     -1.65576972707099
