12
Coordinates from ORCA-job run
  C   1.01322597254710      0.07089224298818      0.10435387958068
  C   -0.47817171927330      0.00185685015119     -0.23650353722738
  F   1.70961349912031      0.05418517160694     -1.09171965787389
  H   -0.72648615753754      0.91465541559524     -0.79993141571818
  H   1.29654821925545     -0.81673686141862      0.67516122128430
  C   1.34742014942218      1.29513709238729      0.84134298180624
  N   1.60165758305101      2.27345032477704      1.43781913253308
  C   -1.25353383645640      0.00857321959150      1.00756694268834
  N   -1.88185663949636      0.01091318633526      1.99870804575761
  N   -0.70376796896303     -1.24266555102380     -0.95781470782905
  H   -0.23246530776593     -1.19383252817987     -1.85290831345395
  H   -1.69318379390350     -1.37642856281037     -1.12607457154779
