12
Coordinates from ORCA-job run
  C   1.05731889295030      0.17626679883315     -0.03428249074803
  C   -0.44432857120906      0.01402323480842     -0.31695946933728
  F   1.71159225689864      0.34771635929694     -1.22899511261527
  H   -0.73928386970344      0.87988685239445     -0.91793376267749
  H   1.44587410046032     -0.72923443105736      0.44272932126905
  C   1.31492025207727      1.33928669758640      0.82780466557272
  N   1.51733778657976      2.27019844236365      1.51341141304753
  C   -1.19208812317267      0.04677603092012      0.95538667118768
  N   -1.80236189277227     -0.01136344585366      1.95776322048943
  N   -0.65507672643142     -1.18899759448131     -1.09956338755844
  H   -1.53419664856548     -1.13897875980342     -1.59726444849040
  H   -0.67870745711197     -2.00658018500735     -0.50209662013949
