12
Coordinates from ORCA-job run
  C   1.00655287195618      0.53928206308490     -0.20532013059168
  C   -0.36582040514847     -0.01738944448059     -0.59832082778362
  F   1.05470641079005      1.88757529759326     -0.47450225401419
  H   -0.46849077925048      0.15034286026309     -1.67480130344517
  H   1.76498568545548      0.02816561805555     -0.80256334279598
  C   1.26560875491142      0.30162375681281      1.22184023015587
  N   1.44267892060388      0.06180907933212      2.35712809584944
  C   -1.43679750467796      0.73516379075556      0.08277184313408
  N   -2.31179350494832      1.29160905974034      0.63433108005697
  N   -0.35827004460036     -1.44755676576256     -0.34741292214135
  H   -0.46886224262113     -1.63543302120965      0.64282401083084
  H   -1.12249816247025     -1.89619229418477     -0.83597447925520
