12
Coordinates from ORCA-job run
  C   0.97686768290678      0.55049129373627     -0.29696278813730
  C   -0.43623438820589      0.01533914777169     -0.55030730540268
  F   0.99933751232302      1.91200311136034     -0.49593234627460
  H   -0.66755494429192      0.24131786770457     -1.59567209247556
  H   1.65469153703948      0.07469664972818     -1.00915731041149
  C   1.40622283394298      0.23595141522711      1.07297406335086
  N   1.72099500232721     -0.05900882133307      2.16464593335386
  C   -1.41187382483725      0.72839284928672      0.29657482116271
  N   -2.20808673385585      1.24399022181689      0.98921642966334
  N   -0.40722335848553     -1.42618697363762     -0.37915646048359
  H   -1.22404189040219     -1.84923545019452     -0.80074229961191
  H   -0.40409942846084     -1.66775131146657      0.60551935526635
