12
Coordinates from ORCA-job run
  C   0.98294827401494      0.53809835547528     -0.30827299449927
  C   -0.43282786588301      0.00622025721961     -0.55385616631102
  F   1.01564145993369      1.89356214956460     -0.54258879349204
  H   -0.65747549106565      0.20760494278674     -1.60571146032713
  H   1.65992474416082      0.03846605945408     -1.00482834823239
  C   1.40398609806703      0.25579870662493      1.07126134780016
  N   1.70581562569649     -0.01908595928811      2.17176078838821
  C   -1.40738199115384      0.74562029453697      0.27148779016304
  N   -2.20335794736628      1.26690571907764      0.96021213346529
  N   -0.41496824198851     -1.43049821263039     -0.34604254835170
  H   -0.41645808710248     -1.64660452169208      0.64457159226144
  H   -1.23384657731319     -1.85808779112926     -0.75899334086461
