12
Coordinates from ORCA-job run
  C   1.05764835046968      0.17223290454409     -0.02950140884857
  C   -0.44354555343779      0.01133161207520     -0.31495959943348
  F   1.71473842413896      0.34209113627780     -1.22296445073627
  H   -0.73664934220347      0.87708650521541     -0.91701875309380
  H   1.44430701566779     -0.73327222500256      0.44892981339529
  C   1.31432269045081      1.33785589320252      0.82949790251398
  N   1.51937554984329      2.28815022198910      1.48711955775041
  C   -1.19349433774366      0.04730771234742      0.95603527207941
  N   -1.80839640849206      0.00061893593008      1.95617292854169
  N   -0.65443097312103     -1.19204059843197     -1.09697215172043
  H   -0.68033935672063     -2.00915802098360     -0.49896630462167
  H   -1.53253605885189     -1.14120407716345     -1.59637280582657
