12
Coordinates from ORCA-job run
  C   1.03258830381808      0.50331930518915     -0.16705865760759
  C   -0.36155176535680      0.03776749294961     -0.59983799507395
  F   1.14453546701217      1.86266329723556     -0.34624725318907
  H   -0.44955329114477      0.28028899028410     -1.66330251635468
  H   1.76969476353686     -0.00241985649661     -0.79478640213845
  C   1.27156607921010      0.16180453673151      1.24248027457641
  N   1.42222484325882     -0.13960413244549      2.36683329206887
  C   -1.40140289574005      0.79248686215235      0.12584107733521
  N   -2.25546004665822      1.34388526770030      0.71390118513128
  N   -0.42144886359249     -1.40433052734299     -0.44256897733130
  H   -0.55246069563922     -1.65042499844920      0.53228255254031
  H   -1.19873189870444     -1.78543623750829     -0.96653657995703
