12
Coordinates from ORCA-job run
  C   0.79133015796743      0.73870341321478      0.18417008883135
  C   -0.37516897436371     -0.05780373502842     -0.42370962855653
  F   0.38783699222637      1.37450138558171      1.32772510742928
  H   -0.03680368557694     -0.41266877462859     -1.41091684010322
  H   1.13801046844710      1.49566415891535     -0.52666269032909
  C   1.89236741613726     -0.18894756332399      0.48534766904914
  N   2.74972946490575     -0.96878380688395      0.66947161605468
  C   -1.49301048006131      0.86453891314406     -0.64998523258607
  N   -2.38986208804406      1.59233165231931     -0.85574195457015
  N   -0.77548770146283     -1.11378319317767      0.49356766554976
  H   -1.72563766368405     -1.40990717648307      0.31427695998148
  H   -0.16430390649102     -1.91484527364950      0.39145723924938
