12
Coordinates from ORCA-job run
  C   1.01197815936280      0.07745373586781      0.10235804330866
  C   -0.47957398700889     -0.00128903678480     -0.23556828926998
  F   1.70560469620725      0.07448647278737     -1.09539530617140
  H   -0.73632689649639      0.91354510293099     -0.79205027538026
  H   1.30342439360936     -0.81200930208123      0.66631983573838
  C   1.33902469743112      1.29846699888718      0.84757993524744
  N   1.59008982720628      2.27256732243628      1.45195749387281
  C   -1.25245288474183     -0.00765894382170      1.01005338839948
  N   -1.87849712749765     -0.00556439147587      2.00283122996734
  N   -0.69691737233393     -1.24240159058121     -0.96451817443165
  H   -0.22241943109594     -1.18692372035932     -1.85752298397768
  H   -1.68493407464215     -1.38067264780550     -1.13704489730315
