12
Coordinates from ORCA-job run
  C   0.92347903357864      0.46739656376753     -0.30040261466642
  C   -0.55441690349064      0.08352421702775     -0.51585738229241
  F   1.08703784798342      1.82100623674644     -0.49017151032861
  H   -0.80631714186016      0.37975400851616     -1.53994723001145
  H   1.53847525861289     -0.05535059085698     -1.04009541783822
  C   1.36207327039885      0.08540738578343      1.04875499815204
  N   1.68573617779335     -0.27892374816072      2.11666246281458
  C   -1.39389354000645      0.86954536346865      0.39746592738231
  N   -2.04769763502472      1.48987667838491      1.14892349662810
  N   -0.83960294755203     -1.32684459770779     -0.35778394145206
  H   -0.34347820891763     -1.88316824657519     -1.04183949848415
  H   -0.61239521151551     -1.65122327039416      0.57429071009629
