12
Coordinates from ORCA-job run
  C   0.95220957661723      0.07886125662715      0.03474230892465
  C   -0.56351866712552      0.06593577715253     -0.25432279466396
  F   1.60320889396376      0.04486651053520     -1.18520176987747
  H   -0.79391768346080      0.99495325395823     -0.78762980969112
  H   1.23736449710007     -0.81743397499659      0.59402262847373
  C   1.35757682809058      1.28141535608839      0.77022008482476
  N   1.65535637512149      2.25056531977249      1.36205787797650
  C   -1.28283093253768      0.07333119437184      1.02405694573563
  N   -1.82400867866530      0.04814674194710      2.06524133037935
  N   -1.00265326153852     -1.04551907885428     -1.07201835298603
  H   -0.84276183690897     -1.92894793693946     -0.60273166940478
  H   -0.49602511065635     -1.04417441966261     -1.94843677969123
