13

C	0.0	0.0	0.0
C	-0.417198	-0.12006	-1.491677
F	1.373108	0.0	0.0
H	0.547869	-0.171093	-2.008716
H	-0.36962	0.943425	0.400262
C	-0.406255	-1.126502	0.856254
N	-0.525342	-2.047027	1.575363
N	-1.075608	1.096217	-1.936729
H	-2.001521	1.094779	-1.498631
H	-1.212859	1.038551	-2.940201
C	-1.077494	-1.398467	-1.838593
N	-1.427708	-2.428313	-2.284234
Br	-3.41909	0.0	0.0
