13

C	0.0	0.0	0.0
C	-0.562884	0.1378	-1.42575
F	1.36931	0.0	0.0
H	-1.538948	0.626092	-1.310918
H	-0.347503	0.847887	0.596136
C	-0.420045	-1.251889	0.654486
N	-0.582624	-2.264949	1.223866
N	-0.682044	-1.176394	-2.063409
H	-0.896873	-1.029079	-3.042226
H	-1.521059	-1.586482	-1.654357
C	0.320184	1.007738	-2.20364
N	0.980317	1.727608	-2.852566
Br	-3.53029	0.0	0.0
