13

C	0.0	0.0	0.0
C	-0.216122	-0.436301	-1.471452
F	1.383953	0.0	0.0
H	0.426198	-1.329497	-1.547809
H	-0.395949	0.991194	0.201571
C	-0.413937	-1.003197	0.990759
N	-0.464993	-1.856006	1.798249
N	0.289428	0.672672	-2.296125
H	0.017988	0.51625	-3.258582
H	1.299733	0.67616	-2.243504
C	-1.496585	-0.875521	-2.043919
N	-2.12551	-1.366218	-2.91403
Br	-3.231293	0.0	0.0
