13

C	0.0	0.0	0.0
C	-0.459763	0.131834	-1.460446
F	1.380141	0.0	0.0
H	-1.555098	0.203883	-1.428564
H	-0.36818	0.8278	0.608193
C	-0.415373	-1.29038	0.573999
N	-0.560724	-2.362333	1.030795
N	-0.063777	-0.979819	-2.30991
H	0.887142	-1.256145	-2.094304
H	-0.678408	-1.762088	-2.118678
C	0.091324	1.386096	-1.992916
N	0.536534	2.392207	-2.402734
Br	-3.482991	0.0	0.0
