16

C	0.0	0.0	0.0
C	-0.56772	-0.084276	-1.408712
Cl	1.765495	0.0	0.0
H	-1.650952	-0.123471	-1.239077
H	-0.340421	0.925924	0.453137
N	-0.437722	-1.085359	0.947095
O	-0.59937	-2.217853	0.50775
O	-0.542509	-0.750308	2.122734
C	-0.12246	-1.265334	-2.258821
H	-0.437692	-2.213261	-1.828805
H	0.965816	-1.279025	-2.380098
H	-0.57348	-1.161185	-3.248694
N	-0.25183	1.214469	-2.013738
H	0.579174	1.134609	-2.589302
H	-1.022951	1.501406	-2.600129
Br	-3.798255	0.0	0.0
