16

C	0.0	0.0	0.0
C	-0.59571	-0.212832	-1.39998
Cl	1.763953	0.0	0.0
H	-1.562509	-0.681142	-1.206124
H	-0.364825	0.914531	0.459528
N	-0.37867	-1.097195	0.973116
O	-0.485088	-2.235647	0.531399
O	-0.491122	-0.765228	2.147883
C	0.228375	-1.100054	-2.319017
H	1.138996	-0.598012	-2.654333
H	0.497741	-2.036743	-1.831988
H	-0.381502	-1.314206	-3.197704
N	-0.891227	1.057263	-2.050692
H	-0.129938	1.716425	-1.922107
H	-1.732102	1.428149	-1.612483
Br	-3.665416	0.0	0.0
