16

C	0.0	0.0	0.0
C	-0.501974	-0.090065	-1.462301
Cl	1.774753	0.0	0.0
H	0.192487	-0.779373	-1.955236
H	-0.37138	0.861143	0.55291
N	-0.415118	-1.210214	0.790316
O	-0.238056	-2.303885	0.261108
O	-0.875241	-1.010191	1.910373
C	-0.385854	1.293524	-2.092119
H	-1.106288	1.97052	-1.623644
H	0.6171	1.717445	-1.996619
H	-0.644103	1.212561	-3.148322
N	-1.831703	-0.593012	-1.663217
H	-2.577997	-0.069812	-1.200968
H	-1.924104	-1.55366	-1.35976
Br	-4.692821	0.0	0.0
