12

C	-0.379389	-0.006939	-1.460643
C	0.0	0.0	0.0
Br	-2.325328	0.135071	-1.770206
H	1.097342	0.0	0.0
H	0.055459	0.837777	-1.991933
H	-0.078394	-0.933508	-1.949409
H	-0.331322	0.935151	0.462442
C	-0.51275	-1.201033	0.780964
H	-0.168313	-2.13063	0.318546
H	-0.118799	-1.180394	1.799498
H	-1.604913	-1.225181	0.830799
Cl	3.564972	0.0	0.0
