15

C	0.0	0.0	0.0
C	-0.39655	0.112938	-1.46779
F	1.42449	0.0	0.0
H	-1.487285	0.169846	-1.482392
H	-0.317369	-0.964508	0.403999
N	-0.465523	1.048496	0.838494
H	-1.437935	0.835628	1.058236
H	-0.47634	1.89582	0.277704
N	0.010308	-1.046606	-2.274005
H	-0.631836	-1.809656	-2.084115
H	0.931399	-1.340763	-1.962744
N	0.147429	1.362564	-1.97923
H	1.158841	1.28943	-1.979276
H	-0.150874	1.453442	-2.942551
Br	-3.767975	0.0	0.0
