15

C	0.0	0.0	0.0
C	-0.469284	0.060361	-1.447
F	1.385077	0.0	0.0
H	-1.550258	-0.10765	-1.42003
H	-0.296351	-0.970483	0.413314
N	-0.48485	1.134162	0.73491
H	-1.504949	1.100242	0.648417
H	-0.268663	1.00634	1.717162
N	0.138706	-1.053198	-2.164125
H	1.103886	-0.791774	-2.334266
H	-0.30973	-1.124497	-3.06996
N	-0.11916	1.368395	-2.019812
H	-0.887247	1.674196	-2.60582
H	-0.058931	2.029572	-1.250636
Br	-3.832931	0.0	0.0
