15

C	0.0	0.0	0.0
C	-0.529815	-0.181739	-1.431808
F	1.414124	0.0	0.0
H	0.340781	-0.363696	-2.070031
H	-0.271129	-0.874735	0.591981
N	-0.517035	1.157299	0.604249
H	-0.361163	1.972948	0.02966
H	-0.193943	1.277725	1.551981
N	-1.158112	1.06299	-1.884041
H	-1.384933	0.962663	-2.867665
H	-2.047246	1.138282	-1.386958
N	-1.357541	-1.383924	-1.444357
H	-1.685245	-1.536777	-2.393081
H	-2.19986	-1.187355	-0.896582
Br	-4.344315	0.0	0.0
