15

C	0.0	0.0	0.0
C	-0.502945	0.252529	-1.41166
F	1.41257	0.0	0.0
H	-1.583462	0.409651	-1.315079
H	-0.293486	-0.990687	0.355301
N	-0.503185	0.992664	0.857673
H	-0.311002	1.905116	0.467912
H	-0.150091	0.907147	1.797722
N	-0.165575	-0.891483	-2.271968
H	-0.702493	-0.79205	-3.128883
H	-0.521983	-1.733358	-1.827415
N	0.105586	1.484615	-1.88989
H	-0.405094	1.827158	-2.692865
H	1.051555	1.262618	-2.177174
Br	-4.307067	0.0	0.0
