15

C	0.0	0.0	0.0
C	-0.325879	0.125882	-1.496015
F	1.402188	0.0	0.0
H	0.232775	1.025714	-1.804037
H	-0.294287	-0.988519	0.373632
N	-0.494062	1.113443	0.748154
H	-0.372876	0.933452	1.738036
H	-1.499194	1.156854	0.58605
N	-1.690398	0.307258	-1.908538
H	-2.327207	-0.337109	-1.448257
H	-2.027556	1.228017	-1.661588
N	0.161393	-1.096369	-2.136261
H	-0.094083	-1.031528	-3.113959
H	1.169919	-1.138412	-2.060296
Br	-4.395584	0.0	0.0
