15

C	0.0	0.0	0.0
C	-0.408916	-0.013719	-1.471541
F	1.423122	0.0	0.0
H	0.061489	-0.90231	-1.922002
H	-0.300169	-0.919698	0.507876
N	-0.537619	1.116609	0.650245
H	-0.3061	1.96303	0.150702
H	-0.318884	1.167024	1.632525
N	0.09046	1.237457	-2.054914
H	-0.397245	1.351107	-2.933986
H	1.08621	1.168969	-2.222844
N	-1.822659	-0.079737	-1.725456
H	-2.361738	0.473944	-1.062545
H	-2.181954	-1.020244	-1.62742
Br	-4.892952	0.0	0.0
