16
Coordinates from ORCA-job run
  C   -0.60840240516758      0.43953362718193      0.03971105162685
  C   0.92146232781369      0.52715940136735     -0.14548166081755
  H   -0.88497270536213      1.41314842029404      0.47762419256962
  H   1.16834282658042      1.37596176873496     -0.78798038142134
  C   -1.04629165792411     -0.65847073116484      0.99590289375411
  H   -0.83095443115528     -1.64035841516407      0.57563047290039
  H   -0.55014384772722     -0.57140243513816      1.96354720154546
  H   -2.12381640738223     -0.57659764076629      1.16258744200915
  N   -1.18069005243779      0.19911304499062     -1.27537607826599
  H   -2.16215580252390     -0.03249364361391     -1.18958941264046
  H   -1.10168362586809      1.01529796587952     -1.87070345204694
  N   1.42316524362932     -0.68206514731215     -0.89241239508441
  O   1.70155257000409     -0.51171620469320     -2.07272060569167
  O   1.48486976110028     -1.73432639326190     -0.26600222004030
  C   1.62383048809685      0.64871933336593      1.12609525881532
  N   2.16588771832368      0.78849704930016      2.15816769278777
