16
Coordinates from ORCA-job run
  C   -0.55771305242439      0.36864801115068     -0.08427055666645
  C   0.93892204983477      0.25072254329471      0.23137841987659
  H   -0.72658123826593      1.41487022077313     -0.36606082299756
  H   1.25455430951384      1.03523863521126      0.92927550440388
  C   -1.37679622754450      0.03772722540221      1.15411516622242
  H   -1.06765175951996      0.63787789914334      2.01309399098063
  H   -2.43248613098941      0.24462250902196      0.96279775235248
  H   -1.26998229112420     -1.01838817423769      1.41172213997623
  N   -0.85089284667915     -0.56209496029689     -1.16331626945111
  H   -1.79276085830368     -0.92161974012310     -1.08805177719732
  H   -0.75005244716369     -0.11380813405120     -2.06481984530372
  N   1.74788364805693      0.51178729272650     -1.02728352359126
  O   2.77611548625301     -0.12922067064761     -1.19285964977383
  O   1.31672946838295      1.39592024722228     -1.76124028792474
  C   1.28571268408255     -1.05844178510921      0.77059724256039
  N   1.50599920589086     -2.09484111948036      1.27592251653337
