16
Coordinates from ORCA-job run
  C   -0.53164250968736      0.40966728862482     -0.05963711090404
  C   0.95985898498568      0.17607875517502      0.21209311265625
  H   -0.63156650807714      1.47256349633608     -0.31005795743994
  H   1.34894327593510      0.91495031071047      0.92261396895241
  C   -1.34124062947135      0.10392130550456      1.19131889528124
  H   -2.38360990824006      0.39112745071238      1.03384000609561
  H   -1.30459710433620     -0.96384496750573      1.41858185570867
  H   -0.96825332147599      0.65619037152707      2.05701899941169
  N   -0.91808533346534     -0.46724437754265     -1.15461958638880
  H   -1.88121744849686     -0.76057187390918     -1.06290723534434
  H   -0.80940540149215     -0.00116288842433     -2.04597229376713
  N   1.75442056511067      0.41473726365034     -1.05997626037042
  O   1.36814168074972      1.34533639210336     -1.76066646275451
  O   2.73174259408779     -0.29047914694236     -1.26746247530936
  C   1.22448665580758     -1.16946768777403      0.70651166459075
  N   1.38202440806593     -2.23180169224583      1.18032087958192
