16
Coordinates from ORCA-job run
  C   -0.53444976781411      0.20658536042839      0.22254872465803
  C   0.88790551023154      0.15257228751994     -0.36656065505623
  H   -0.42905795614228      0.45867310583322      1.28741343278466
  H   0.84114063749261     -0.15039748953481     -1.41350707562279
  C   -1.21890433164919     -1.14265674249049      0.08151574027943
  H   -0.68742506471603     -1.92881338671980      0.61960592589122
  H   -2.22893812188663     -1.08765063961126      0.49579771824838
  H   -1.29193787588589     -1.42065586753739     -0.97256055659604
  N   -1.24663079159888      1.21081693845727     -0.55701087128307
  H   -2.24513371764796      1.10280589811571     -0.43022673645908
  H   -0.99721042757357      2.14510240889032     -0.25283778699256
  N   1.67762972541941     -0.89911134145914      0.36054447180360
  O   1.95722122020087     -0.66377052676238      1.53182943495543
  O   1.92040616723319     -1.93095962732539     -0.25833476232209
  C   1.55728101805161      1.44141374865565     -0.22930387478278
  N   2.04010377628530      2.50604587354014     -0.11891312950610
