16
Coordinates from ORCA-job run
  C   -0.54024047493693      0.37050290987217     -0.09395296101576
  C   0.94970282455377      0.24857915868279      0.26357693242114
  H   -0.68643402751900      1.41977915559738     -0.36477755981199
  H   1.21113447692120      0.92771358350254      1.08039636120559
  C   -1.40998082155427      0.01960169015178      1.10960589658271
  H   -2.46181833128193      0.16779690436790      0.85521453962408
  H   -1.17918971056926      0.64472452856973      1.97722434079188
  H   -1.27441530205539     -1.02749302754256      1.39430420654622
  N   -0.76259546510487     -0.42661599161138     -1.28924625180073
  H   -0.90435128879689     -1.40251054002200     -1.05333550799339
  H   -1.57934247353800     -0.10176995295334     -1.78926430067532
  N   1.75951334164063      0.71463429463855     -0.92498831573406
  O   2.50145403499022     -0.08304907237096     -1.47920168100071
  O   1.58137473319884      1.88782303248684     -1.23150251761776
  C   1.30101401823441     -1.12333895655337      0.61091396315769
  N   1.49417446581747     -2.23537771681606      0.93503285532042
