16
Coordinates from ORCA-job run
  C   -0.57262637337193      0.26718087911350      0.25666466820318
  C   0.84481910715780      0.08411842438602     -0.35412030629809
  H   -0.42068349924023      0.65287178266918      1.26971183606046
  H   0.77739204016638     -0.34144085945612     -1.35816777173762
  C   -1.29803606625300     -1.06753472225044      0.31805744423739
  H   -1.39626001700707     -1.50387289477105     -0.68096859828685
  H   -0.78259543856864     -1.78890561959769      0.95381696526211
  H   -2.29759037917694     -0.90113018961607      0.72019723954956
  N   -1.36737347179979      1.23231574897468     -0.47236080038524
  H   -0.94357733341495      2.15206378842272     -0.47206203964288
  H   -1.51965606116113      0.93961436509157     -1.43016750783086
  N   1.61189500487885     -0.91216038077666      0.46997550870405
  O   1.92320851673104     -0.55741539447497      1.60245862571204
  O   1.79988881371704     -2.01614894222058     -0.03238382798140
  C   1.56380964937518      1.35185725814260     -0.37973854110638
  N   2.07938550796738      2.40658675636332     -0.40991289445946
