12
Coordinates from ORCA-job run
  C   1.09332827065981     -0.05154686808616     -0.12206275046217
  C   -0.08960770558786      0.60164539834259     -0.00345799924718
  H   2.02146108227449      0.50780285763404     -0.19779076320150
  N   1.21855160948589     -1.41622423269230     -0.24519493314763
  H   0.45334501065328     -1.97361143005539      0.09967429109233
  H   2.12295775541401     -1.79762725317949     -0.02524408292631
  C   -0.07500670248907      2.02451346017307      0.05491614619318
  N   -0.09141968617474      3.20071490879121      0.10943975049188
  C   -1.40621756798526     -0.13108171005869      0.06917643240542
  H   -2.24301888719871      0.56600200887133      0.03708800221530
  H   -1.51197877195631     -0.82153241484131     -0.77370372400456
  H   -1.49339440709553     -0.70905472489891      0.99615963059124
