12
Coordinates from ORCA-job run
  C   0.56359505115296     -0.78954365996224     -0.19995166501781
  C   -0.28217266411891      0.24333643512971      0.04739424095169
  H   0.16287126170895     -1.79973230181988     -0.24029081077320
  N   1.89996274270437     -0.69005795073351     -0.50447481359426
  H   2.46602731274414     -1.48964284061433     -0.27613914650977
  H   2.33893249184746      0.19486253827777     -0.29459202942716
  C   0.27442434385953      1.55548663648004      0.10726484564439
  N   0.77539675543330      2.62084246233256      0.15809191059453
  C   -1.76222754938437      0.07390406746556      0.25984031994403
  H   -2.06986923280124      0.46133202631648      1.23464475465220
  H   -2.33698156180427      0.60388100841590     -0.50444139891478
  H   -2.03095895134194     -0.98366842128803      0.21265379245014
