12
Coordinates from ORCA-job run
  C   0.57675160208912     -0.79987396802469     -0.09180552705341
  C   -0.28160733894852      0.24128234978422      0.05956839955954
  H   0.17299981845996     -1.80435235615399     -0.19236097809396
  N   1.94823273893929     -0.73618613087641     -0.03972734000308
  H   2.44481196379241     -1.45189098964413     -0.54287288789907
  H   2.35608121106524      0.18367045341972     -0.12721497750229
  C   0.27657112234159      1.54872845552221      0.17612181873270
  N   0.77749231282793      2.61204532343607      0.25972977389564
  C   -1.77732898824796      0.08436419749573      0.11412325136062
  H   -2.17717459387553      0.41700490189336      1.07581737294471
  H   -2.05107198840299     -0.96424253221976     -0.02154443577291
  H   -2.26675786004053      0.66945029536766     -0.66883447016850
