12
Coordinates from ORCA-job run
  C   0.60024595941680     -0.74324799553848     -0.26038962420792
  C   -0.29061753581223      0.23166538028849      0.05482485303999
  H   0.22751648782084     -1.73029139579638     -0.52377572353549
  N   1.96147527704897     -0.59409254693663     -0.37651620254468
  H   2.35384935911785      0.24032404856092      0.03534825332510
  H   2.51119920324653     -1.42182887283582     -0.21997751588833
  C   0.22672209963684      1.51325108975828      0.40771528660815
  N   0.69557974514687      2.55395699888606      0.70055876922300
  C   -1.78174167429967      0.02889132554547      0.04810315618102
  H   -2.02015976796301     -1.00217239928302     -0.22210563747271
  H   -2.26929079183322      0.68998098737448     -0.67341730754261
  H   -2.21477836152658      0.23356337997662      1.03063169281448
