12
Coordinates from ORCA-job run
  C   1.08927080754421     -0.08435332194697      0.13886738644273
  C   -0.07957882806674      0.59988915892096      0.06327045941690
  H   2.02480736813503      0.44663488985045      0.29025307398056
  N   1.18903336475866     -1.45658463718232      0.12299096532349
  H   2.09152713878634     -1.83020018293580     -0.11714690594187
  H   0.42241262709328     -1.96056521625944     -0.29365288330146
  C   -0.04023351281009      2.02066683308509      0.15246423142626
  N   -0.03570907372079      3.19636676618043      0.21886953834197
  C   -1.40605059616802     -0.09687389562921     -0.11099871106180
  H   -1.48051752546991     -0.57781037585199     -1.09290019310681
  H   -2.23202703570187      0.60870578778398     -0.02707996529723
  H   -1.54293473438010     -0.86687580601519      0.65506300377726
