12
Coordinates from ORCA-job run
  C   0.60582503452164     -0.73231035748546     -0.23448001156212
  C   -0.29061323830375      0.16838192013713      0.24393486570562
  H   0.25504075264889     -1.73130457588135     -0.48433426393729
  N   1.93647224131749     -0.49130146227276     -0.51721338452563
  H   2.47911418709595     -1.33212526599239     -0.63511348119356
  H   2.39812429890095      0.18469019368994      0.07796564344762
  C   0.21982712988755      1.47720965922076      0.51265274049207
  N   0.67458713039453      2.53176214763415      0.77438994686678
  C   -1.78187551295671      0.01394871477092      0.09684592130214
  H   -2.31962372423776      0.37781616420564      0.97557389856235
  H   -2.13693726845085      0.57275535014128     -0.77295010793106
  H   -2.03994103081793     -1.03952248816788     -0.03827176722692
