12
Coordinates from ORCA-job run
  C   0.55522556723325     -0.79947950168604     -0.18390893881029
  C   -0.28023372680812      0.24545614764588      0.04765235635031
  H   0.15128927820467     -1.80926975678302     -0.17288376796153
  N   1.88240815982905     -0.71644270130140     -0.52943578459122
  H   2.45346397630152     -1.50865583376923     -0.28828502574701
  H   2.33029163006448      0.17412193812497     -0.36784793498275
  C   0.28263865967998      1.55619405950408      0.03897871872298
  N   0.79061340733836      2.61954137302654      0.02994199839609
  C   -1.75453653415119      0.09149865699612      0.30635294658532
  H   -2.03334660172316      0.51385927776169      1.27529923374912
  H   -2.02961162831460     -0.96546636887309      0.30278691817043
  H   -2.34720229856401      0.59864266305170     -0.45965071827483
