12
Coordinates from ORCA-job run
  C   1.04323156817095     -0.14637849595010     -0.32115390600750
  C   -0.06188729236476      0.60046831282970     -0.07418960591895
  H   1.93476628577674      0.31683608085323     -0.73426429371087
  N   1.16733313528789     -1.47952752051469     -0.00454624949200
  H   1.88676865880408     -1.98450975759474     -0.49351682757418
  H   0.31157297625358     -2.00079533406429      0.10048084200727
  C   -0.03062068475144      1.98601170828589     -0.40218804619881
  N   -0.03322534686657      3.13333577886454     -0.66752995469558
  C   -1.31081275705306      0.00896071792937      0.53031903572948
  H   -1.07774209034861     -0.52710911305028      1.45586275205448
  H   -1.79486077104074     -0.69422854055332     -0.15680305561863
  H   -2.03552368186805      0.78693616296469      0.76852930942528
