12
Coordinates from ORCA-job run
  C   1.07110521516861     -0.14584851338471     -0.21299455423898
  C   -0.05337667031901      0.60099443482431     -0.07833661787624
  H   2.00183015109024      0.31862194164035     -0.52609473363020
  N   1.15933432738915     -1.48141974168147      0.10317062398810
  H   1.92591043838166     -1.98556226962575     -0.30856081884880
  H   0.29688445167889     -2.00182497501408      0.11883908048599
  C   0.01431678860527      1.99041448780554     -0.38328533867560
  N   0.04007705015324      3.14122059582588     -0.63133354543245
  C   -1.35910200981737      0.00626658417095      0.38757023573936
  H   -1.76292864899591     -0.70006802022475     -0.34648991806587
  H   -1.22743340787404     -0.52647268175273      1.33480180780116
  H   -2.10761768546073      0.78267815741646      0.54271377875353
