12
Coordinates from ORCA-job run
  C   0.61582745092306     -0.74699718434310     -0.20477996347635
  C   -0.29748757520838      0.22713355327656      0.04148019495002
  H   0.27115176564977     -1.77055683282456     -0.33304289882866
  N   1.96278779964215     -0.56655099963368     -0.40522660493059
  H   2.55239946594273     -1.35328482289737     -0.19329324917308
  H   2.34251064819031      0.32302056722756     -0.11526983999166
  C   0.18550853937437      1.55765193502424      0.21791562113756
  N   0.62838648159077      2.63964494526585      0.36617616768487
  C   -1.77750589192461     -0.02624593334515      0.13833379996191
  H   -2.16863007091685      0.27246839182498      1.11463164357815
  H   -1.98740687994598     -1.08891260862158     -0.00261965800207
  H   -2.32754173331734      0.53162898904624     -0.62430521291011
