12
Coordinates from ORCA-job run
  C   0.60848117360768     -0.77969648919535     -0.05885830870002
  C   -0.29540381002907      0.23031938683374      0.01948091749266
  H   0.29407500966102     -1.78753174785105      0.20208269877236
  N   1.89438861400459     -0.68502424485880     -0.53450248147476
  H   2.54846688364297     -1.36017836499548     -0.17602025634094
  H   2.27195953131817      0.24842675977385     -0.61093052978872
  C   0.14682364197038      1.54375876915956     -0.31853104215283
  N   0.55424052556790      2.61399247810062     -0.59625633341573
  C   -1.72774508886060      0.03428544465212      0.43726083541066
  H   -1.90365861567759     -1.01072360122037      0.70160225004732
  H   -1.97565723511455      0.65231196765629      1.30408412880150
  H   -2.41697063009090      0.30105964194486     -0.36841187865150
