12
Coordinates from ORCA-job run
  C   1.09404119050381     -0.11559479623444     -0.00575668666573
  C   -0.05650413152929      0.60143261330886      0.03563456571746
  H   2.05312331099514      0.38742808754776      0.07936869989629
  N   1.16230541511878     -1.47028033347689     -0.24050615982026
  H   2.02207878797536     -1.91860604145524      0.02667499621364
  H   0.34272301981858     -2.01027467345797     -0.01355990139527
  C   0.03032671320189      2.00532055840503      0.26007384497022
  N   0.07127535011641      3.16615869415018      0.45394450850002
  C   -1.41392601502322     -0.03773880598963     -0.11677334944796
  H   -2.17591187004661      0.71464956581040     -0.32016225189586
  H   -1.41458538140501     -0.74622360049175     -0.95106160554779
  H   -1.71294638972584     -0.57527126811632      0.79012333947523
