12
Coordinates from ORCA-job run
  C   0.57693765884447     -0.78516896137104     -0.18020462448005
  C   -0.28461628944906      0.24252107402435      0.03222271768943
  H   0.17803906352686     -1.78983497921180     -0.30089197094004
  N   1.93573435275517     -0.68179758756006     -0.35802859767932
  H   2.35677939362314      0.18919491979411     -0.06844602342877
  H   2.47543019846712     -1.49487318633561     -0.11344300410666
  C   0.26858318640939      1.54715515843762      0.19653168451982
  N   0.76727858053147      2.60578235514547      0.33583587452498
  C   -1.77876680797448      0.07620718927726      0.10181002355740
  H   -2.04623525786382     -0.97528801850035     -0.02357213980484
  H   -2.17227713054140      0.41783104416468      1.06269786546404
  H   -2.27788694832886      0.64827099213538     -0.68451180531599
