12
Coordinates from ORCA-job run
  C   0.60104248526219     -0.72836558494349     -0.30070707904957
  C   -0.29060150796160      0.22719138590723      0.06727319396756
  H   0.22922887441138     -1.70017306790029     -0.61702052565024
  N   1.96199970750767     -0.57095698376599     -0.40840729776250
  H   2.35141569482170      0.24129190624531      0.04843913629856
  H   2.51436052345729     -1.40423647348852     -0.29500073076518
  C   0.22587476008071      1.48844729154616      0.48847766897939
  N   0.69419051585816      2.51191082033841      0.83752613862517
  C   -1.78150913565926      0.02449557889811      0.04938709821274
  H   -2.26939254616210      0.71802347632353     -0.64091975270907
  H   -2.21534394079855      0.18327325084899      1.04010027394747
  H   -2.02026543081760     -0.99290160000947     -0.26814812409431
