12
Coordinates from ORCA-job run
  C   0.95595191721217     -0.23281194729095     -0.49414489034695
  C   -0.15385999487828      0.51750312846693     -0.28112630454469
  H   1.70844481033752      0.09408369371536     -1.20617818728098
  N   1.18235653664454     -1.46487406315173      0.07495403793363
  H   2.13851009917852     -1.77701928038121      0.08471355963081
  H   0.68565098700410     -1.66722627030553      0.92799778486317
  C   -0.28408773878707      1.74948392189652     -0.98357868503258
  N   -0.41559248218215      2.77418218252634     -1.54880563540983
  C   -1.24156181399448      0.08662034659656      0.67086316952466
  H   -0.89282730349655      0.09621864711378      1.70982536875697
  H   -1.58132486894980     -0.92743857905394      0.43709998681737
  H   -2.10266014808853      0.75127821986787      0.60737979508842
