11
Coordinates from ORCA-job run
  C   -0.53764965786196      0.28760021311855     -0.24235190745670
  C   0.72490153261743      0.51200841373691      0.19993155181191
  H   1.08386264723504      1.53110724129597      0.30090249756623
  C   -1.41583015121551      1.40107913077115     -0.42750797197142
  N   -2.15404676555965      2.31013458047903     -0.54368137724616
  N   -1.03768858999041     -0.98077258876072     -0.61688556629475
  H   -1.73815110061962     -1.36218863147783      0.00306720151671
  H   -0.30523667843965     -1.64665950538185     -0.81285025545927
  N   1.65506649614731     -0.49819618749829      0.41371572641068
  H   1.25978920103414     -1.34866694633349      0.78974133930802
  H   2.46498306665289     -0.20544571994941      0.93591876181474
