11
Coordinates from ORCA-job run
  C   -0.48851059446663     -0.08441468651306     -0.28458979949779
  C   0.77373959408793     -0.34513864541357      0.14023572223106
  H   1.19384136360850     -1.33376778154608     -0.03349772436222
  C   -1.04588264944384      1.20356108282230     -0.00776338800963
  N   -1.46589240885248      2.26420473194878      0.28450659020275
  N   -1.27854708375883     -0.95182352911086     -1.08344091104581
  H   -2.13039877691086     -1.23234395833892     -0.61401126668167
  H   -0.75702504631243     -1.77164235089392     -1.36243629998784
  N   1.66541276528731      0.58389929767239      0.65644783359490
  H   1.24212123085836      1.45405924830766      0.94964373830468
  H   2.29114160590297      0.21240659106528      1.35390550525157
