11
Coordinates from ORCA-job run
  C   -0.43776972336510     -0.10308332235866     -0.32321900531446
  C   0.75530290125871     -0.33680643642703      0.27185543835872
  H   1.05583124015499     -1.37183401415852      0.42087845131516
  C   -0.90069779611188      1.24273662337298     -0.53426158296993
  N   -1.40009364057189      2.29692056370003     -0.70275203477828
  N   -1.33017121440279     -1.08120785907256     -0.80392074333463
  H   -2.28680322916143     -0.89930898750258     -0.53636942612492
  H   -1.06853386857536     -2.01965871715937     -0.55531436791142
  N   1.66356307361462      0.69226728174938      0.59676304405904
  H   1.36954793568264      1.26789607489321      1.37586175156062
  H   2.57982432147747      0.31307879296313      0.79247847514011
