11
Coordinates from ORCA-job run
  C   -0.43672579145453      0.23639584902685     -0.22991765476796
  C   0.83859288822377      0.51876185667817      0.13880594402173
  H   1.23659424723051      1.52059510085828      0.00601747659190
  C   -1.26808790465754      1.24800983519852     -0.79928542616468
  N   -1.98786593385523      2.06725485728112     -1.24459292128626
  N   -0.92097716251771     -1.10190586780675     -0.04579847779051
  H   -1.82383018614311     -1.09455520216965      0.41299602052512
  H   -1.03269903396378     -1.57185081146795     -0.93704117785213
  N   1.70563219518765     -0.43041226368097      0.60341192503518
  H   2.44508299107738     -0.11085791828530      1.20573761278373
  H   1.24528369087259     -1.28343543563231      0.88966667890387
