11
Coordinates from ORCA-job run
  C   -0.49828641436175      0.21127380633161     -0.05393562252833
  C   0.70868552486870      0.50371264470778      0.49277951339649
  H   0.86451171481999      1.45610414413587      0.99092422491865
  C   -1.57440473203605      1.14748990269517      0.01843440806098
  N   -2.48760458382669      1.89133108828759      0.03936219341699
  N   -0.67162643249924     -1.05859036225133     -0.69806528496794
  H   -1.09980042272432     -0.94059097704051     -1.60819853220687
  H   -1.27291546473653     -1.66215586535042     -0.14870778501751
  N   1.74438242766695     -0.39147179364569      0.53440810450256
  H   2.67092756591094      0.00277348311862      0.54100198642997
  H   1.61613081691801     -1.16087607098868     -0.10900320600499
