11
Coordinates from ORCA-job run
  C   -0.44549996618428      0.24085134346238     -0.20451849199680
  C   0.84459392621583      0.51908792777007      0.11178239833734
  H   1.23450000356103      1.52411856473897     -0.01995771686494
  C   -1.30299958758975      1.25959502283783     -0.71983659550767
  N   -2.05146953206898      2.06876402305280     -1.13533429629994
  N   -0.92110318431476     -1.10069095586185     -0.02220189008198
  H   -1.80191813502111     -1.10144313674599      0.47773269922421
  H   -1.07534861913190     -1.55403504752444     -0.91585878402010
  N   1.73252915447909     -0.43575286386547      0.52172810141869
  H   1.28774333528150     -1.29518870850113      0.81306865980087
  H   2.49897260477333     -0.12530616936318      1.09439591599032
