11
Coordinates from ORCA-job run
  C   -0.53492328148055     -0.11340908913396     -0.17100838161977
  C   0.79005088948008     -0.31865580225341      0.04114207569825
  H   1.22446652572948     -1.27614099098949     -0.23699955853198
  C   -1.08920160316091      1.15419461855111      0.18865126443991
  N   -1.47852759036357      2.22491901005345      0.48678648911187
  N   -1.45660768272382     -1.09266547277014     -0.63113557121268
  H   -1.01780210678060     -2.00133059895436     -0.69809782476394
  H   -1.84994737017046     -0.84618537876420     -1.53108170993509
  N   1.69492976664617      0.61480893805378      0.52058735780630
  H   1.27738625752113      1.42660234578246      0.95448210884567
  H   2.44017619530304      0.22686242042477      1.07667375016145
