11
Coordinates from ORCA-job run
  C   -0.49998794055503      0.20106660195234     -0.07494614184025
  C   0.63695428143851      0.45429819862329      0.62024728249064
  H   0.70468925928227      1.33411203969319      1.25396050138951
  C   -1.61581406433283      1.08913066363140      0.01649351632269
  N   -2.55076894702705      1.80533434615905      0.04143216516679
  N   -0.56122476209344     -0.97756025186483     -0.88806160272628
  H   -0.95057849741699     -0.76691050385558     -1.79831820330736
  H   -1.13936413803577     -1.69213173468654     -0.45960862133404
  N   1.70642407553273     -0.40664166846416      0.64653923096618
  H   1.66017632702362     -1.07518420460186     -0.11117410831618
  H   2.60749440618397      0.03448651341371      0.75143598118830
