11
Coordinates from ORCA-job run
  C   -0.49988940904975      0.21730766287790     -0.02974631646940
  C   0.67899515814122      0.38844319929892      0.62025103987892
  H   0.80122146441578      1.20645711918546      1.32426360494724
  C   -1.59564233867173      1.10195918017667      0.20601103823226
  N   -2.52378818288859      1.81157804028269      0.35666537226402
  N   -0.62318947310430     -0.87980621565193     -0.94666424888978
  H   -1.24210924784847     -1.59204608276050     -0.57563517967633
  H   -1.01055895200932     -0.56519910007718     -1.82802098646286
  N   1.72686077921020     -0.48179348252629      0.50227256804140
  H   2.64601226390833     -0.10657633949025      0.66501887135594
  H   1.64208793789662     -1.09932398131549     -0.29341576322139
