11
Coordinates from ORCA-job run
  C   -0.60120005056195      0.25189215017126     -0.06774840468546
  C   0.71849644769476      0.55924499431272     -0.00808120396814
  H   1.02587863576631      1.59974773838615      0.00613473560399
  C   -1.56367979566078      1.30526459101736      0.03072165667518
  N   -2.36093319012688      2.16245830064342      0.15063436576615
  N   -1.10943034498432     -1.04632771573600     -0.30553842530779
  H   -1.56380602571465     -1.47622318224950      0.48767754611580
  H   -0.43015612490944     -1.66130862670953     -0.72838681489573
  N   1.73412661432594     -0.38476307186492     -0.09742157435954
  H   2.63683124039313     -0.04361875201952      0.19040656038888
  H   1.51487259377787     -1.26736642595143      0.34260155866666
