11
Coordinates from ORCA-job run
  C   -0.52189675283479      0.16030672449468     -0.02120092961012
  C   0.67676551148769      0.55865629536095      0.47552331683454
  H   0.75044272427039      1.47163535310979      1.05922594027271
  C   -1.69803674910607      0.93648547986361      0.20827148651898
  N   -2.69730114681042      1.53596696285887      0.38088172037655
  N   -0.57466974241924     -1.04810663988368     -0.79345771923385
  H   -0.74667274079521     -0.84481885537200     -1.77156859108669
  H   -1.32427746103631     -1.64635448072779     -0.46785150558440
  N   1.84632792793431     -0.09616803500270      0.20878095463000
  H   1.70672275969220     -1.02512253053568     -0.16391185388636
  H   2.58359566961746     -0.00248027416604      0.88630718076864
