11
Coordinates from ORCA-job run
  C   -0.52480781297640     -0.10451038143205     -0.19993083100927
  C   0.74879844470021     -0.38326128414673      0.17680045501944
  H   1.18323670100177     -1.34035502280566     -0.10462217180235
  C   -1.06593416085202      1.17732867843060      0.13238726955492
  N   -1.44070823840744      2.26253476197950      0.39429554092868
  N   -1.41742457042857     -1.02366016878690     -0.81050761772288
  H   -1.71902770988529     -0.71123365131954     -1.72484478105766
  H   -1.00438436578101     -1.94334400759946     -0.88438103483947
  N   1.53047152500769      0.38335056912696      1.02856293394043
  H   2.51627831041415      0.35910933996040      0.81995546302569
  H   1.19450187720692      1.32604116659289      1.17328477396248
