11
Coordinates from ORCA-job run
  C   -0.52240786490274      0.15818736205864     -0.02158483912139
  C   0.59641873359530      0.33826232638097      0.72537308093120
  H   0.58216639881903      1.01160798185988      1.57748460416819
  C   -1.73237266438704      0.84245078751312      0.30465601956998
  N   -2.74972660618664      1.39352565554417      0.52606640497067
  N   -0.46367866629798     -0.74555972459431     -1.13483550871872
  H   -0.99941326484210     -1.58553593625941     -0.94708440247464
  H   -0.85112460839113     -0.31368200476097     -1.96501033106007
  N   1.75199092688199     -0.36006512477837      0.51306461152762
  H   2.60750711455924      0.07898565623399      0.80773112398759
  H   1.78064050115207     -0.81717697919771     -0.38786076378044
