11
Coordinates from ORCA-job run
  C   -0.48499979234682     -0.12830766137079     -0.27706324733194
  C   0.63163704697482     -0.33277653462466      0.46716663474069
  H   0.86747626158800     -1.34272958035336      0.79491434968846
  C   -0.78761649608215      1.20719720503714     -0.68739112969191
  N   -0.98850061830966      2.33175920481648     -0.97358536172488
  N   -1.33996421442760     -1.14730436109453     -0.77714114016695
  H   -0.96571369802813     -2.06528203070837     -0.57737913893605
  H   -2.27375928028841     -1.07730722043192     -0.39172341100847
  N   1.49251980978071      0.64749470317654      0.93508639104647
  H   2.45589566895464      0.35953253500034      1.00060090356633
  H   1.39402531218459      1.54772374055313      0.48651514981824
