11
Coordinates from ORCA-job run
  C   -0.51922225799036      0.16913513377640      0.00648677186198
  C   0.66304845102276      0.39474519778351      0.63337192565254
  H   0.73505282710662      1.15222668394204      1.40842853021967
  C   -1.68410671594443      0.91500981010234      0.36040373333243
  N   -2.66863989737533      1.51257192873170      0.60798287404943
  N   -0.57323695188337     -0.84544141481009     -1.00698451284770
  H   -1.02218760669555     -0.49081048798799     -1.84272734089322
  H   -1.10635169030566     -1.64663294650793     -0.68806566152812
  N   1.78294843259470     -0.35315098163868      0.39899871744434
  H   1.72419044999131     -0.90058720020411     -0.44845778991378
  H   2.66850495947933      0.09193427681281      0.57056275262243
