11
Coordinates from ORCA-job run
  C   -0.49492427565067      0.22710110137177     -0.04785820941216
  C   0.75908141437036      0.52776680309169      0.37539953453544
  H   0.97384994990296      1.50514168531161      0.79766805874220
  C   -1.54464980623900      1.19025089254185      0.04659729653517
  N   -2.44573693950550      1.94595296879807      0.11512362246021
  N   -0.73507263149556     -1.07285292053217     -0.60625338556478
  H   -1.55382136378457     -1.49563072737260     -0.18595129326252
  H   -0.89858135955528     -1.01253061954142     -1.60492327451729
  N   1.81874340496720     -0.32175445964335      0.22285736879978
  H   1.54201536015263     -1.27044416215664      0.01135995651611
  H   2.57709624683742     -0.22300056186882      0.87598032516784
