11
Coordinates from ORCA-job run
  C   -0.45103941226875     -0.11286519045286     -0.33793067978875
  C   0.77253482836506     -0.32293502499231      0.20488718936851
  H   1.15796042291421     -1.34113507527008      0.24332210124145
  C   -0.95494383171698      1.22406521754287     -0.40496181850353
  N   -1.37652925627006      2.32266578119029     -0.42992600530519
  N   -1.26965886605777     -1.10812482567665     -0.91972741848154
  H   -0.97260305453461     -2.03907834841299     -0.66071359585837
  H   -2.24429317094625     -0.98401908469181     -0.68293721725226
  N   1.60386858544400      0.70718235047357      0.66747417527232
  H   2.52426494377308      0.38372412006488      0.91468252384949
  H   1.20943881129808      1.27152008022508      1.40583074545787
