11
Coordinates from ORCA-job run
  C   -0.52647986611918      0.14501530967398      0.01073820478689
  C   0.60139831674374      0.24093265468504      0.75960434917698
  H   0.58640994069341      0.77676052022919      1.70424291417084
  C   -1.74687200464137      0.73827263255862      0.45478174811906
  N   -2.77341036975822      1.22117419707754      0.77223252545656
  N   -0.46587146799224     -0.57773754776012     -1.22767813736366
  H   -0.97745120986701     -1.45047786236395     -1.16154431737905
  H   -0.87912575294982     -0.03581992281977     -1.97688650116905
  N   1.76976786662716     -0.38497287748962      0.42652795148316
  H   2.61964323535701      0.02680282964496      0.77248911214074
  H   1.79299131190653     -0.69994993343587     -0.53350784942246
