11
Coordinates from ORCA-job run
  C   -0.54678881747573     -0.11169419715092     -0.13875217882617
  C   0.79196789631614     -0.30879442873251     -0.02876436627090
  H   1.21731137683269     -1.24320763604197     -0.38805383874145
  C   -1.08697944752913      1.12756898214560      0.32652342934640
  N   -1.46194862975378      2.17651448636168      0.70868905868409
  N   -1.48723736260340     -1.07587178875131     -0.59393488206976
  H   -1.91997870829234     -0.79651132051260     -1.46610827287234
  H   -1.04974687174187     -1.97945793825924     -0.71563134188698
  N   1.71713524435858      0.60976543036254      0.43835825574636
  H   2.50347974770066      0.20580345175261      0.92155332177373
  H   1.32278557218818      1.39588495882612      0.93612081511702
