11
Coordinates from ORCA-job run
  C   -0.42724835298998     -0.17836973252112     -0.23507707732387
  C   0.80538819305265     -0.38210174043392      0.29407990286489
  H   1.15999802640239     -1.40743313621000      0.33892034583575
  C   -0.94199010856559      1.15590936425892     -0.30372289124456
  N   -1.34888614763172      2.26155650394011     -0.33985035736726
  N   -1.18207869467038     -1.29484920464117     -0.71661484151190
  H   -1.35864879793537     -1.20942325668080     -1.70998125971506
  H   -2.07816419876383     -1.35123552092994     -0.24872830357986
  N   1.68546259356709      0.58476038505234      0.70114999528237
  H   2.37223056413865      0.30859967923822      1.38125675017506
  H   1.31293692339610      1.51258665892738      0.83856773658444
