11
Coordinates from ORCA-job run
  C   -0.50783468256153     -0.08516175940687     -0.21098774680856
  C   0.75521488526614     -0.36244795033866      0.20153880693571
  H   1.23694963258514     -1.25579170652293     -0.20111402954590
  C   -1.21887260009258      1.03785862150033      0.34144916736568
  N   -1.78817739230887      1.98473676658891      0.76176932591130
  N   -1.14756492590370     -0.74625372282901     -1.29878816550060
  H   -2.13345400499511     -0.89968491799774     -1.10519982679816
  H   -0.70373890988921     -1.63552401446319     -1.49408089454178
  N   1.48866341704643      0.47407146349835      1.05092834852387
  H   2.40213897558065      0.09793721702509      1.28706492315954
  H   1.61567560527262      1.38926000294574      0.66842009129889
