11
Coordinates from ORCA-job run
  C   -0.50857988906518      0.19617205201710     -0.04769812348328
  C   0.66085761375157      0.46296941314209      0.58773856992598
  H   0.75252027189659      1.33803794618203      1.22431953041653
  C   -1.63654144844473      1.05617869663769      0.11384255651655
  N   -2.58939101279775      1.74306271488499      0.20356350137347
  N   -0.58631951637516     -0.97615605500216     -0.87134803796132
  H   -0.98036913210753     -0.75235364845320     -1.77701324117353
  H   -1.17743275325380     -1.67990543005425     -0.44380518442082
  N   1.74021673519641     -0.37423221973218      0.53866488971967
  H   2.64446560177971      0.04400317851449      0.67612061245875
  H   1.68057352941986     -1.05777664813659     -0.20338507337201
