11
Coordinates from ORCA-job run
  C   -0.63716638848886      0.15399707517413      0.04248704680050
  C   0.58121570648719      0.34775961707068      0.60602266217620
  H   0.69013909212337      1.06570590155752      1.41240477908967
  C   -1.72163594626775      1.00274860438955      0.42853979771194
  N   -2.60653824405955      1.72401776181283      0.71415098945632
  N   -0.94365024685691     -0.89481049973065     -0.85591410022492
  H   -1.10505965535627     -0.60276822071265     -1.80949391387321
  H   -0.28288831074633     -1.65606083517670     -0.80462592812433
  N   1.70014369498256     -0.41776206481408      0.30383688027330
  H   2.56829257264607     -0.02187248224247      0.62568667794473
  H   1.75714772553647     -0.70095485732817     -0.66409489123019
