11
Coordinates from ORCA-job run
  C   -0.43292619986148     -0.19554953578941     -0.20943554228215
  C   0.74216834397765     -0.36067104394557      0.44814189872446
  H   0.97674362176340     -1.36154423796638      0.79824325060678
  C   -0.79022581509962      1.11044801676943     -0.67498335123008
  N   -1.06777966195560      2.19706502893933     -1.03802447739442
  N   -1.28576145620679     -1.32380609809495     -0.42571237571301
  H   -1.39430500840791     -1.51060242419407     -1.41508844396009
  H   -2.20718179324496     -1.15757984820414     -0.04022207221072
  N   1.70725020646210      0.59268175057520      0.64000964743520
  H   1.43122713711650      1.55220898416139      0.49175803608974
  H   2.31879062545670      0.45634940774917      1.42631342993431
