11
Coordinates from ORCA-job run
  C   -0.42830279702108      0.26717936877309     -0.20901574532605
  C   0.79682793953023      0.50567355867620      0.32433509113602
  H   1.17304963539542      1.52202246423469      0.39629369875569
  C   -1.24090002124330      1.34514357274569     -0.67382891370691
  N   -1.94272755138270      2.19907608310295     -1.08126297722905
  N   -0.89114047127752     -1.08936811489709     -0.27996618473306
  H   -1.23885431876102     -1.29916051620413     -1.20781548548443
  H   -1.64903715418691     -1.24710039185527      0.37463600140738
  N   1.57491303407497     -0.47722837900288      0.86810603123022
  H   2.56784230726866     -0.31845941612338      0.87725448302029
  H   1.28032939760325     -1.40877822944986      0.61026400092990
