11
Coordinates from ORCA-job run
  C   -0.43703829845999      0.26814260197021     -0.18940343454654
  C   0.82833475641963      0.49933178698284      0.24397640905310
  H   1.23015091057807      1.50852135463887      0.24405501985247
  C   -1.25881506582831      1.34555926411250     -0.63904550956651
  N   -1.96999137736176      2.19987906942448     -1.02915885506926
  N   -0.93203075987873     -1.07872473456261     -0.16786441951759
  H   -1.64535985644510     -1.19039605945723      0.54376107835947
  H   -1.34852569362609     -1.31944572725262     -1.05922278187761
  N   1.62354910839031     -0.47837065384095      0.77182147010508
  H   1.29205061473968     -1.41274574538287      0.57633246636654
  H   2.61767566147228     -0.34275115663263      0.70374855684087
