11
Coordinates from ORCA-job run
  C   -0.51864467450698      0.17113508173955     -0.01737560119521
  C   0.62449906924448      0.36452187082594      0.68822348657080
  H   0.65174348752347      1.08810588708194      1.49778666243581
  C   -1.70087528453620      0.90711059677536      0.29721588672857
  N   -2.69713154615219      1.49855204315255      0.51058931463363
  N   -0.51359599999405     -0.79938559364042     -1.07483193453626
  H   -0.91257649711233     -0.40760841161522     -1.91930700546265
  H   -1.06620266120848     -1.61096757473055     -0.82236845122901
  N   1.75517769394017     -0.37728062977550      0.48911344389556
  H   1.74696922653979     -0.88871307777435     -0.38258360178298
  H   2.62963718626231      0.05552980796070      0.73353779994175
