11
Coordinates from ORCA-job run
  C   -0.44052960008894     -0.18459073484148     -0.20259301567993
  C   0.69010902143140     -0.35765672703895      0.52705408760234
  H   0.90116288284907     -1.36241152753981      0.88110873799835
  C   -0.75122736076553      1.12021355078973     -0.70372202299311
  N   -0.98083213168645      2.20061899862157     -1.11530707748534
  N   -1.29793785684073     -1.30238461502242     -0.45252111827138
  H   -1.43466097193147     -1.43667259310121     -1.44663811663079
  H   -2.20818561448919     -1.16049818328963     -0.03192235102507
  N   1.55110275000575      0.62541960634138      0.93745344823431
  H   2.49466689239056      0.33986375119762      1.13458967632625
  H   1.47633198912554      1.51809847388321      0.47249775192437
