11
Coordinates from ORCA-job run
  C   -0.52924115298625     -0.11024269410394     -0.18959314622928
  C   0.74381546093474     -0.36201421512730      0.20862468828875
  H   1.09050818963400     -1.39244291779216      0.23968159571476
  C   -0.96634506331653      1.24997867934840     -0.23734780800635
  N   -1.25585912270543      2.39087275811802     -0.27439500084990
  N   -1.51383696205130     -1.09519137012894     -0.47314612650539
  H   -1.17417582244069     -2.02219759663004     -0.25433665395714
  H   -1.80533840299073     -1.06776212526408     -1.44246098707645
  N   1.70578061472093      0.58622835034846      0.51737162535696
  H   1.34815915521416      1.51901505140721      0.67045741042091
  H   2.35553310598711      0.30475607982437      1.23414440284313
