11
Coordinates from ORCA-job run
  C   -0.47451825005929     -0.08380365835297     -0.30950816813101
  C   0.70795518703200     -0.37949049772243      0.28795963585209
  H   1.12723017926003     -1.37477004450676      0.15923163020555
  C   -1.01908670286110      1.22437718872926     -0.12068653394279
  N   -1.42195625538448      2.31037591197613      0.09175954491030
  N   -1.18334347242847     -0.93516005213888     -1.19985266356726
  H   -0.64925837895609     -1.76801745283754     -1.40887252126608
  H   -2.08535462675880     -1.20333840828220     -0.82601892661304
  N   1.42569678674257      0.45043667598868      1.13409189454544
  H   2.42557819861010      0.33844980370606      1.08056405381145
  H   1.14805733480354      1.42194053344066      1.11133205419534
