11
Coordinates from ORCA-job run
  C   -0.51072764274283      0.18634952266664     -0.05429336874497
  C   0.59931640978923      0.37951430651562      0.70225783337466
  H   0.59111322065471      1.10548671389427      1.51001616954263
  C   -1.70044389129672      0.93514651090290      0.19475153391176
  N   -2.70923514799374      1.51798341786433      0.36904687559421
  N   -0.45469462524111     -0.77488581352475     -1.11838603468588
  H   -1.26104076598741     -1.38707664454646     -1.08854330364425
  H   -0.45224043200075     -0.31380113095434     -2.02137177516160
  N   1.78893787902044     -0.24395245962431      0.44798742653965
  H   1.69745764353998     -1.03797664215967     -0.17056571648445
  H   2.41155735225819     -0.36778778103422      1.22810035975824
