11
Coordinates from ORCA-job run
  C   -0.61584735699281      0.21663055248634     -0.06355533737767
  C   0.66050401126110      0.59339425697197      0.19835010542912
  H   0.86744112249399      1.61724249518495      0.49218778457471
  C   -1.67712176008457      1.14229442928877      0.18562148202642
  N   -2.55746544639491      1.88610492647246      0.42346955886059
  N   -0.97898236266293     -1.01555690961257     -0.65537520695984
  H   -1.45306927558445     -1.65923204372566     -0.03782593779712
  H   -0.21148319579900     -1.45700546222702     -1.13979259826235
  N   1.76266619131129     -0.22561164510757     -0.01330352713853
  H   1.59476834893332     -1.20150124233962      0.18646406782922
  H   2.60858972351896      0.10224064260796      0.42375960881545
