11
Coordinates from ORCA-job run
  C   -0.48737967200837     -0.11939326806968     -0.27955140798043
  C   0.57297359568310     -0.31413863032408      0.54565287137589
  H   0.65080611613637     -1.25312927349501      1.08895433365574
  C   -0.56757073076038      1.11510874651861     -0.99588208742549
  N   -0.56078147723044      2.14281169564186     -1.57094911853440
  N   -1.59198431842283     -1.00245371482179     -0.42379326564371
  H   -1.64331645117506     -1.39252433933053     -1.35721686224373
  H   -1.54461122970159     -1.75593537676665      0.24916056067099
  N   1.64082813958948      0.55022147779017      0.72097161419126
  H   2.03995400945294      0.54269362588187      1.64593045645337
  H   1.49108201843677      1.48773905697524      0.37472290548050
