11
Coordinates from ORCA-job run
  C   -0.53321665434724      0.11790361913472     -0.01179595815860
  C   0.63444329835567      0.59655715539719      0.48805456294803
  H   0.63900228540157      1.49131409444391      1.10369778190147
  C   -1.76711730063897      0.78322746257414      0.25966846231337
  N   -2.81117587490172      1.28796563692326      0.46666055875103
  N   -0.49575560476446     -1.06292635688026     -0.82645452089397
  H   -0.69873316923962     -0.84054542011362     -1.79450142086156
  H   -1.18842615656393     -1.73259192181968     -0.51396738961902
  N   1.85075455573077      0.05108051868017      0.18657829110427
  H   1.78356386357592     -0.87224713324698     -0.21880988698938
  H   2.58566075739201      0.18026234490716      0.86086951950437
