11
Coordinates from ORCA-job run
  C   -0.50462003675368      0.20887754743638      0.00281313634154
  C   0.63189525921387      0.20863289710513      0.74476496007232
  H   0.69021509456462      0.79617619845536      1.65638635806657
  C   -1.63967062921749      0.97316391636531      0.41048437350717
  N   -2.59726808418127      1.59639003187835      0.69742289797636
  N   -0.54232656774192     -0.58655851642430     -1.19111967626048
  H   -1.15676578681109     -1.38447780754050     -1.07438286955357
  H   -0.89102875563772     -0.04220869210349     -1.97104386730132
  N   1.71205116488175     -0.57491995443127      0.44895696852429
  H   1.68867991588568     -0.94522734038795     -0.49117409519104
  H   2.60883842579725     -0.24984828035305      0.76789181381815
