11
Coordinates from ORCA-job run
  C   -0.53543411406597      0.10682560817532      0.00641319369174
  C   0.61973146270920      0.50720433304915      0.59564754091376
  H   0.60308692930514      1.27173305491276      1.36694475516397
  C   -1.78383414471977      0.68731745855673      0.38503766710443
  N   -2.83882364638945      1.12566865742167      0.67223681661258
  N   -0.47019537054482     -0.90095140386778     -1.01330786657866
  H   -1.15206292134118     -1.62891153741399     -0.83761868371375
  H   -0.67124108356169     -0.50596473565773     -1.92513991402531
  N   1.84851574335068      0.05088904589057      0.20894051363963
  H   2.57748192811278      0.06715428567623      0.90156587368782
  H   1.80277521714509     -0.78196476674293     -0.36171989649623
