11
Coordinates from ORCA-job run
  C   -0.62237434204153      0.20359056229277     -0.04118294549616
  C   0.54190912052685      0.35680856459583      0.63756306826502
  H   0.62403938767094      1.13296272982542      1.39139763521751
  C   -1.66937519647714      1.15773039144470      0.15475359187806
  N   -2.51847289039639      1.96236601321682      0.28241714171166
  N   -0.91706297878191     -0.89412425455016     -0.88285105555071
  H   -0.95812145023660     -0.67510228556062     -1.86815090406671
  H   -0.33150805662075     -1.69544645420291     -0.70006543125426
  N   1.62006103367330     -0.51220589475975      0.52518209524985
  H   2.47963596419395     -0.14988149131486      0.90465514779499
  H   1.75226940848926     -0.88669788098725     -0.40371834374926
