11
Coordinates from ORCA-job run
  C   -0.60792978439190      0.24414120665504     -0.03627955673435
  C   0.66410260756391      0.51763919053736      0.34686940107933
  H   0.91840915924026      1.51539887527653      0.68947815610964
  C   -1.55575684915286      1.31206326634093     -0.11397405652332
  N   -2.33106991167701      2.19132967326911     -0.21750748149457
  N   -1.10164949085875     -1.05680791877109     -0.28967676951949
  H   -1.30618494499553     -1.25207452378950     -1.25942438902387
  H   -0.53342751470800     -1.77873256409070      0.12808531795678
  N   1.65801535879516     -0.44674680899326      0.45920373241006
  H   2.58919835293593     -0.07033795193020      0.53221838646231
  H   1.60529301724880     -1.17587244450424     -0.23799274072253
