11
Coordinates from ORCA-job run
  C   -0.42124216322654     -0.20819604326063     -0.22052622038044
  C   0.62836866926632     -0.28771578707006      0.63549218274438
  H   0.69732624692635     -1.17876297217324      1.25228533677453
  C   -0.55962921562519      0.95521030680108     -1.04356869263665
  N   -0.65844156670023      1.92716395486868     -1.70309967984638
  N   -1.36131447929723     -1.28474882303984     -0.28713693787318
  H   -1.35668497971188     -1.71221004473479     -1.20521904583775
  H   -2.30090850329299     -0.95417385798498     -0.10531671043040
  N   1.66248358540301      0.60469976407841      0.73857770965049
  H   1.52300353758280      1.51151952530657      0.31782637807509
  H   2.14603886867558      0.62821397720881      1.61968567976030
