11
Coordinates from ORCA-job run
  C   -0.54044999213570      0.05946002323393      0.05404879403821
  C   0.62003045294275      0.45560308766635      0.63613839076826
  H   0.60039669843334      1.08224355714094      1.52299712137673
  C   -1.79914304554931      0.46500992719648      0.59194629381752
  N   -2.86126621398772      0.76275988144271      1.00560379611638
  N   -0.47076301422652     -0.76359357275560     -1.11957646338307
  H   -1.08289335579896     -1.56535304210512     -1.02880990517274
  H   -0.76200673784262     -0.24631297502763     -1.94139744564059
  N   1.84928011484175      0.17156355086676      0.11109211391770
  H   1.82589068200795     -0.56062687314964     -0.58505022449243
  H   2.62192441131504      0.14024643549081      0.75400752865404
