11
Coordinates from ORCA-job run
  C   -0.60033329409311      0.25527324453137     -0.07064575082905
  C   0.57378867997653      0.37760541215501      0.59733824007423
  H   0.66081259338363      1.10345302619137      1.39925456742180
  C   -1.74016805735119      0.98587722791955      0.38975463767175
  N   -2.69138098082106      1.55331183382540      0.78728194679210
  N   -0.76770249509839     -0.49316506266255     -1.25900108070646
  H   0.10411066381598     -0.67151728671435     -1.73497505435066
  H   -1.32064444787997     -1.33249961797929     -1.15832501436792
  N   1.73898864372309     -0.28594200268170      0.23388644475493
  H   2.45558913483149     -0.27477512618377      0.94129501516214
  H   1.58693955951300     -1.21762164840103     -0.12586395162286
