11
Coordinates from ORCA-job run
  C   -0.42658697524771     -0.19402888450331     -0.22340077889849
  C   0.76709891199765     -0.36777747209994      0.39762463809338
  H   1.05769015944210     -1.38687558684176      0.63501369657521
  C   -0.85695683005876      1.13409937134893     -0.54127028820624
  N   -1.19482271860347      2.23728301035975     -0.78269300813202
  N   -1.22559632783484     -1.33542848596635     -0.54962251866061
  H   -1.34244385729120     -1.41929640566814     -1.55214896344711
  H   -2.14731171886566     -1.25881004497058     -0.13748783239373
  N   1.68648351317161      0.60780368633143      0.67940840798800
  H   2.31968755974738      0.41936633821527      1.43720807701461
  H   1.36175828354289      1.56266447379471      0.63836857006699
