17

C	0.0	0.0	0.0
C	-0.18035	0.190206	-1.554643
Br	2.049235	0.0	0.0
H	0.506106	-0.564673	-1.964723
C	-0.282229	1.209224	0.792325
N	-0.45828	2.08265	1.560588
N	-0.617829	-1.169287	0.460721
H	-1.676333	-0.843182	0.287263
H	-0.487229	-1.235968	1.467072
N	0.215511	1.557102	-1.900435
H	-0.160933	1.785754	-2.811385
H	1.223087	1.633796	-1.94332
C	-1.525047	-0.100957	-2.200243
H	-1.883573	-1.092552	-1.93734
H	-1.354489	-0.056557	-3.287525
H	-2.286557	0.598474	-1.878697
F	-2.801093	0.0	0.0
