17

C	0.0	0.0	0.0
C	-0.376738	0.389069	-1.501134
Br	2.05982	0.0	0.0
H	0.542432	0.776314	-1.946482
C	-0.251347	1.172637	0.864597
N	-0.444469	2.106401	1.554205
N	-0.592259	-1.195199	0.453686
H	-0.41085	-1.301929	1.447411
H	-1.627162	-0.942916	0.328671
N	-1.392104	1.416854	-1.631693
H	-1.044964	2.277064	-1.219505
H	-2.184065	1.083969	-1.056462
C	-0.826781	-0.851269	-2.259437
H	-0.909441	-0.590131	-3.317055
H	-0.135674	-1.68556	-2.132307
H	-1.810086	-1.130547	-1.88456
F	-2.854747	0.0	0.0
