16

C	-0.451185	-0.068623	-1.455706
C	0.0	0.0	0.0
Br	-0.005881	1.758427	-2.268682
H	1.091761	0.0	0.0
H	-0.393262	0.908492	0.470005
C	0.348985	-1.079461	-2.250659
H	1.413975	-0.881995	-2.104196
H	0.095493	-1.04344	-3.314349
H	0.119211	-2.077361	-1.866369
N	-1.855949	-0.306063	-1.565903
H	-2.142506	-0.316217	-2.53807
H	-2.36873	0.427024	-1.088593
N	-0.412606	-1.192388	0.749887
H	0.365157	-1.84167	0.749482
H	-1.208588	-1.631325	0.304504
H	3.02367	0.0	0.0
