16

C	-0.226902	-0.017613	-1.498261
C	0.0	0.0	0.0
Br	-2.248958	-0.247549	-1.896155
H	1.098924	0.0	0.0
H	-0.3477	-0.947816	0.418766
C	0.156611	1.293117	-2.157387
H	0.030354	1.23266	-3.241889
H	1.21601	1.452456	-1.918413
H	-0.434347	2.132143	-1.787349
N	0.457825	-1.159411	-2.013888
H	1.375865	-1.180964	-1.553936
H	0.602298	-1.066039	-3.012722
N	-0.514768	1.124493	0.755957
H	0.090027	1.923372	0.613552
H	-1.448836	1.361649	0.440339
H	2.921675	0.0	0.0
