16

C	-0.425882	-0.058955	-1.473548
C	0.0	0.0	0.0
Br	-0.210646	1.757277	-2.228035
H	1.093828	0.0	0.0
H	-0.39937	0.90658	0.459488
C	0.489553	-0.983174	-2.263241
H	0.245181	-0.967095	-3.329762
H	0.34728	-2.004951	-1.890371
H	1.535932	-0.710174	-2.091746
N	-1.855279	-0.365141	-1.61234
H	-2.127848	-0.194672	-2.575445
H	-1.950886	-1.366701	-1.464322
N	-0.415059	-1.163521	0.77855
H	0.213122	-1.936857	0.610081
H	-1.372132	-1.433394	0.599543
H	3.081101	0.0	0.0
