15

C	-0.577387	0.030143	-1.415061
C	0.0	0.0	0.0
Br	-0.05965	-1.522457	-2.506768
H	1.100343	0.0	0.0
H	-1.669391	-0.006312	-1.360577
C	-0.209968	1.236062	-2.15092
N	0.040631	2.20511	-2.765312
C	-0.509603	-1.1883	0.788624
H	-1.597345	-1.135413	0.933961
H	-0.019641	-1.190405	1.76722
H	-0.262663	-2.130068	0.299388
N	-0.475277	1.265087	0.599523
H	-0.712075	1.094546	1.571527
H	0.326216	1.893863	0.605952
H	2.892083	0.0	0.0
