15

C	-0.406908	-0.018423	-1.483529
C	0.0	0.0	0.0
Br	0.148049	1.611071	-2.427554
H	1.095434	0.0	0.0
H	0.118586	-0.830785	-1.989884
C	-1.846831	-0.147063	-1.664207
N	-3.015177	-0.259456	-1.732325
C	-0.455151	-1.301484	0.646368
H	-0.09041	-2.167324	0.085528
H	-1.545168	-1.368142	0.735169
H	-0.016967	-1.336914	1.644699
N	-0.484486	1.134851	0.757528
H	0.060528	1.951687	0.509568
H	-1.461983	1.324109	0.561968
H	2.906489	0.0	0.0
