15

C	-0.455543	-0.009025	-1.451801
C	0.0	0.0	0.0
Br	0.022198	1.64996	-2.3964
H	1.10197	0.0	0.0
H	0.09338	-0.789048	-1.98537
C	-1.891895	-0.210504	-1.610434
N	-3.04088	-0.426246	-1.733277
C	-0.451865	-1.288692	0.66948
H	0.050652	-1.36699	1.638502
H	-0.14849	-2.160992	0.08467
H	-1.535966	-1.311417	0.820445
N	-0.580489	1.151047	0.702211
H	-0.428718	0.991664	1.693419
H	-0.001101	1.954697	0.473111
H	2.913895	0.0	0.0
