15

C	-0.290247	0.017586	-1.49472
C	0.0	0.0	0.0
Br	-2.193387	0.44407	-1.945016
H	1.098431	0.0	0.0
H	0.27686	0.829386	-1.953778
C	0.015361	-1.231612	-2.176815
N	0.224287	-2.24804	-2.725955
C	-0.570646	-1.199881	0.722092
H	-1.666043	-1.178962	0.736081
H	-0.212372	-1.169463	1.752036
H	-0.239987	-2.137962	0.269096
N	-0.355055	1.246452	0.663237
H	0.403782	1.904767	0.524999
H	-1.212689	1.637487	0.293205
H	2.802778	0.0	0.0
