17

C	-0.36859	-0.082247	-1.493015
C	0.0	0.0	0.0
Br	0.124663	1.785279	-2.204973
H	1.090355	0.0	0.0
C	0.548649	-1.021687	-2.256106
H	1.562759	-0.849588	-1.883203
H	0.25198	-2.051014	-2.051116
H	0.486564	-0.827363	-3.330347
N	-1.744118	-0.351857	-1.680503
H	-1.985093	-0.377815	-2.664669
H	-2.323076	0.336099	-1.210848
N	-0.441604	-1.257068	0.682532
O	-1.207678	-1.171598	1.645416
O	0.01707	-2.312854	0.256258
C	-0.607458	1.130186	0.674328
N	-1.099653	2.049418	1.218286
F	2.502691	0.0	0.0
