17

C	-0.182206	0.073904	-1.540887
C	0.0	0.0	0.0
Br	-0.043573	-1.931737	-2.232434
H	1.092296	0.0	0.0
C	-1.525477	0.519908	-2.073745
H	-1.705041	1.547683	-1.743774
H	-1.523316	0.488646	-3.16567
H	-2.320061	-0.124271	-1.70183
N	0.893592	0.835866	-1.963831
H	1.771491	0.58746	-1.456624
H	0.980347	0.917248	-2.965951
N	-0.646071	-1.176194	0.640281
O	0.077762	-2.025453	1.145637
O	-1.880209	-1.207972	0.62573
C	-0.531944	1.203621	0.612619
N	-0.947295	2.184855	1.109776
F	2.585557	0.0	0.0
