17

C	-0.093496	-0.066216	-1.531786
C	0.0	0.0	0.0
Br	-1.967056	-0.414269	-2.156829
H	1.094866	0.0	0.0
C	0.331022	1.290865	-2.082329
H	0.3764	1.238072	-3.172819
H	-0.341875	2.099942	-1.795086
H	1.333541	1.464455	-1.678163
N	0.749265	-1.147769	-1.95572
H	0.947524	-1.038494	-2.944014
H	1.622636	-1.036158	-1.418621
N	-0.512702	-1.222165	0.67276
O	-1.588397	-1.143277	1.272742
O	0.174115	-2.23491	0.589259
C	-0.603008	1.180557	0.575107
N	-1.032328	2.173557	1.03583
F	2.553957	0.0	0.0
