17

C	-0.524059	-0.010784	-1.441574
C	0.0	0.0	0.0
Br	0.248126	1.694113	-2.26942
H	1.090345	0.0	0.0
C	0.068102	-1.149942	-2.244264
H	1.143441	-1.16751	-2.06707
H	-0.376425	-2.08763	-1.905963
H	-0.151862	-1.014827	-3.306024
N	-1.940591	-0.001917	-1.492882
H	-2.266002	0.053954	-2.450331
H	-2.328086	0.772706	-0.965163
N	-0.458945	-1.274977	0.654188
O	-1.470861	-1.258349	1.359397
O	0.217851	-2.277014	0.429653
C	-0.551081	1.113347	0.752311
N	-1.002734	2.015938	1.356032
F	2.494205	0.0	0.0
