17

C	-0.531368	-0.056997	-1.4498
C	0.0	0.0	0.0
Br	0.441494	-1.434394	-2.47947
H	1.090101	0.0	0.0
C	-2.010048	-0.435047	-1.517483
H	-2.207003	-1.429355	-1.114099
H	-2.590466	0.299238	-0.948231
H	-2.339314	-0.41866	-2.559418
N	-0.219911	1.20139	-2.087074
H	-0.614436	1.211064	-3.018668
H	-0.605239	1.968027	-1.549681
N	-0.486416	-1.183323	0.76048
O	0.095238	-2.244314	0.562057
O	-1.454171	-1.051944	1.520431
C	-0.519371	1.196507	0.634603
N	-0.93162	2.214669	1.056936
F	2.460432	0.0	0.0
