17

C	-0.360507	-0.125723	-1.513185
C	0.0	0.0	0.0
Br	-0.035888	1.681272	-2.263608
H	1.090293	0.0	0.0
C	0.624879	-1.06626	-2.186953
H	1.622341	-0.825645	-1.805697
H	0.554396	-0.961349	-3.270443
H	0.393761	-2.097913	-1.910268
N	-1.725905	-0.467758	-1.819307
H	-2.364392	0.069886	-1.242815
H	-1.868666	-1.452996	-1.626195
N	-0.482286	-1.255262	0.655859
O	-1.538151	-1.224043	1.30058
O	0.181657	-2.274692	0.469752
C	-0.62362	1.124919	0.663707
N	-1.103969	2.047685	1.212267
F	2.523605	0.0	0.0
