17

C	-0.318157	0.068651	-1.478913
C	0.0	0.0	0.0
Br	-2.446381	0.309067	-1.663799
H	1.106733	0.0	0.0
C	0.274665	1.345462	-2.041073
H	1.337605	1.304051	-1.781159
H	0.142078	1.374546	-3.125707
H	-0.186394	2.230748	-1.607849
N	0.103707	-1.033623	-2.205234
H	-0.094966	-0.945166	-3.189889
H	-0.199354	-1.911698	-1.813528
N	-0.454565	-1.196108	0.734446
O	-0.56954	-1.098817	1.954393
O	-0.626067	-2.248196	0.11156
C	-0.41816	1.186666	0.71518
N	-0.691073	2.18894	1.266815
F	2.451593	0.0	0.0
