17

C	-0.34631	-0.137559	-1.496746
C	0.0	0.0	0.0
Br	-0.102332	1.672734	-2.271621
H	1.107521	0.0	0.0
C	0.69057	-1.015619	-2.194601
H	0.595967	-0.925697	-3.280188
H	0.520433	-2.051453	-1.902429
H	1.682058	-0.712971	-1.849558
N	-1.741319	-0.474713	-1.706561
H	-1.91858	-0.510627	-2.705383
H	-1.87001	-1.411042	-1.333805
N	-0.361649	-1.212291	0.787767
O	-0.546112	-2.27842	0.188693
O	-0.383228	-1.102839	2.010539
C	-0.570589	1.149372	0.668763
N	-1.000078	2.083259	1.239618
F	2.497719	0.0	0.0
