17

C	-0.392617	-0.110641	-1.490984
C	0.0	0.0	0.0
Br	0.328359	1.550592	-2.284333
H	1.090751	0.0	0.0
C	0.382777	-1.273297	-2.088362
H	0.328313	-1.239398	-3.175923
H	1.415969	-1.198491	-1.739264
H	-0.056613	-2.212831	-1.745568
N	-1.796368	-0.133083	-1.847974
H	-2.239719	0.701599	-1.474823
H	-2.200234	-0.934951	-1.374391
N	-0.413806	-1.213322	0.788114
O	-1.26966	-1.981336	0.329381
O	0.133739	-1.364604	1.874302
C	-0.587454	1.131003	0.677457
N	-1.09549	2.042031	1.221074
F	2.499798	0.0	0.0
