17

C	-0.077339	0.0243	-1.54214
C	0.0	0.0	0.0
Br	-1.928975	-0.322535	-2.172004
H	1.107097	0.0	0.0
C	0.343389	1.411935	-1.996641
H	-0.34429	2.189407	-1.663837
H	1.336184	1.581488	-1.567929
H	0.407658	1.407743	-3.084643
N	0.816494	-0.932103	-2.158479
H	0.530627	-1.85783	-1.859354
H	1.712189	-0.751501	-1.681191
N	-0.460904	-1.241674	0.658257
O	-0.866157	-1.15431	1.817545
O	-0.362441	-2.302601	0.041843
C	-0.582135	1.147005	0.655843
N	-1.027573	2.120292	1.142425
F	2.525627	0.0	0.0
