17

C	-0.365988	-0.026796	-1.508034
C	0.0	0.0	0.0
Br	-0.01884	1.827597	-2.124156
H	1.093618	0.0	0.0
C	0.613551	-0.915089	-2.259856
H	1.615364	-0.695469	-1.881452
H	0.379217	-1.962125	-2.059294
H	0.531624	-0.728021	-3.33129
N	-1.738177	-0.315908	-1.85791
H	-2.356692	0.293356	-1.331857
H	-1.915549	-1.273983	-1.574828
N	-0.365413	-1.267211	0.701857
O	-0.66986	-2.262303	0.034446
O	-0.283395	-1.26381	1.926793
C	-0.600967	1.083554	0.747365
N	-1.119542	1.953906	1.346489
F	2.494603	0.0	0.0
