16

C	0.0	0.0	0.0
C	-0.54805	-0.106828	-1.423689
F	1.366589	0.0	0.0
H	-1.64862	-0.084566	-1.372497
C	-0.384084	1.299638	0.618908
N	-0.602673	2.287839	1.215634
N	-0.471009	-1.147475	0.704599
H	-0.207917	-1.056263	1.679951
H	-1.496777	-1.13464	0.653601
N	-0.102716	-1.401673	-2.028021
O	1.064504	-1.453999	-2.408438
O	-0.92997	-2.302272	-2.082732
N	-0.079608	0.963867	-2.351534
O	0.567189	1.90225	-1.897669
O	-0.41669	0.816235	-3.522466
Cl	-3.435501	0.0	0.0
