16

C	0.0	0.0	0.0
C	-0.544938	-0.114562	-1.427168
F	1.366569	0.0	0.0
H	-1.646388	-0.079938	-1.389873
C	-0.385815	1.302524	0.609983
N	-0.62217	2.298593	1.186326
N	-0.476594	-1.141469	0.708959
H	-1.503383	-1.111663	0.663545
H	-0.205207	-1.053531	1.682884
N	-0.106629	-1.418456	-2.016021
O	1.066666	-1.48801	-2.374701
O	-0.945003	-2.308184	-2.082007
N	-0.057674	0.944642	-2.362104
O	-0.367477	0.777759	-3.538071
O	0.57165	1.893716	-1.906499
Cl	-3.436274	0.0	0.0
