16

C	0.0	0.0	0.0
C	-0.550264	-0.076031	-1.425738
F	1.366809	0.0	0.0
H	-1.652016	-0.057456	-1.375145
C	-0.383632	1.288553	0.64141
N	-0.618953	2.271952	1.239078
N	-0.473039	-1.158867	0.681776
H	-0.211122	-1.089742	1.659429
H	-1.499283	-1.140233	0.628934
N	-0.097894	-1.353086	-2.060789
O	-0.913825	-2.26373	-2.121119
O	1.064966	-1.382663	-2.458276
N	-0.089224	1.0196	-2.330388
O	0.581416	1.934584	-1.865026
O	-0.455837	0.909694	-3.496533
Cl	-3.441006	0.0	0.0
