16

C	0.0	0.0	0.0
C	-0.200121	-0.121543	-1.539492
F	1.396824	0.0	0.0
H	0.083406	-1.140174	-1.78806
C	-0.384258	1.297345	0.596639
N	-0.580998	2.294111	1.186771
N	-0.508289	-1.15728	0.636357
H	-1.535139	-1.102129	0.514459
H	-0.328915	-1.076127	1.632269
N	0.765716	0.776622	-2.265972
O	0.952083	1.907462	-1.839048
O	1.255261	0.293077	-3.286714
N	-1.499349	0.14658	-2.250506
O	-2.036925	-0.838376	-2.738927
O	-1.819851	1.318535	-2.381801
Cl	-3.379041	0.0	0.0
