16

C	0.0	0.0	0.0
C	-0.549372	-0.035824	-1.428551
F	1.364747	0.0	0.0
H	-1.650496	-0.027338	-1.380235
C	-0.385754	1.270085	0.677267
N	-0.621229	2.246201	1.287164
N	-0.474305	-1.178522	0.647669
H	-0.213233	-1.134662	1.627663
H	-1.500991	-1.156835	0.595395
N	-0.086551	-1.289625	-2.102014
O	1.07321	-1.294447	-2.508309
O	-0.891923	-2.207358	-2.181352
N	-0.094493	1.088413	-2.299264
O	-0.472275	1.018795	-3.465089
O	0.585586	1.984742	-1.810784
Cl	-3.440271	0.0	0.0
