12
Coordinates from ORCA-job run
  C   0.81774100930002      0.18418122426031     -0.45770698371318
  C   -0.43871718071741     -0.63163847580908     -0.56664320093645
  H   0.70924711489880      1.18481608987195     -0.86774594917213
  H   -0.70092617839203     -0.79898027705916     -1.61358257238935
  H   1.65046918273768     -0.32156784155883     -0.95129751229461
  H   -0.36770201891460     -1.58798734682391     -0.05523847939131
  N   1.23576793900350      0.36728697014064      0.97142099187704
  O   2.08647925816233      1.22468578609198      1.17348012850200
  O   0.72839217558591     -0.36532968691831      1.81566281300484
  N   -1.61212728479442      0.07625275585160      0.04384088228605
  O   -2.60915849334116     -0.60878942280932      0.23441236557405
  O   -1.50146552352862      1.27707022476213      0.27339751665306
