14
Coordinates from ORCA-job run
  C   -0.38203918300525     -0.57206772031709     -0.39050073380722
  C   0.78075532880249      0.31539261845584      0.10737512000078
  Br  0.28550882890333     -1.59086381186082     -1.98603393131700
  H   1.59885172088553     -0.37532444820530      0.37393769248224
  N   -0.79258610696966     -1.41871457987656      0.67805817173532
  H   -1.67151885928706     -1.87961726018069      0.47660416202060
  H   -0.08690345411452     -2.12186861877291      0.86801762065384
  C   -1.50207069376943      0.24423906074575     -0.85083802726258
  N   -2.42323869683746      0.86628490076366     -1.23178036316774
  N   0.26288021632345      1.12273942504577      1.19625464948107
  H   0.96057632396543      1.77872621029533      1.52385257842533
  H   -0.02902435101237      0.51898210858363      1.95407565278910
  C   1.27708202284565      1.19641841702578     -0.95340642561038
  N   1.72172690326986      1.91667369829760     -1.76661616642336
