14
Coordinates from ORCA-job run
  C   -0.32490800420656     -0.69218315803778     -0.34390669290107
  C   0.80784540774641      0.35637477106360     -0.23157701921336
  Br  0.45621518020949     -2.45626895701494     -0.61696407857961
  H   1.37183076338260      0.35117676016386     -1.16937298004364
  N   -1.06471918571041     -0.70414735349133      0.90175394340861
  H   -1.64634148483417      0.12821386940296      0.95824381726824
  H   -1.66738198789059     -1.51745816706327      0.94761067739889
  C   -1.14449956906431     -0.40315858713204     -1.53049257085251
  N   -1.83515536923811     -0.13771571965662     -2.44497078483738
  N   1.68719640199991      0.01206658258489      0.85939723467410
  H   1.15478419343367     -0.03015288341722      1.72017405890902
  H   2.42497813046430      0.69884737639320      0.95063716047128
  C   0.14949326647470      1.67657817148446     -0.09027431211937
  N   -0.36733774276691      2.71682729472023      0.09174154641679
