14
Coordinates from ORCA-job run
  C   -0.44896861075055     -0.60323542405987     -0.17869385081436
  C   0.36151292248857      0.70138974091439     -0.02504153532814
  Br  0.55446606558060     -2.04847599150312      0.83591587700369
  H   -0.17073487559912      1.42868055305479     -0.64858383267302
  N   -1.77481125765260     -0.41886999767813      0.26493457705931
  H   -1.81775731566730     -0.19334184869610      1.25245786446302
  H   -2.36306996399213     -1.21837330835443      0.06816416604003
  C   -0.43000903349720     -1.02827034177032     -1.57632403306912
  N   -0.47446312650367     -1.36322818730606     -2.70147756143802
  N   1.69961066375702      0.55127664294216     -0.54179169343970
  H   2.11603626488225      1.45646401335484     -0.71651630108977
  H   2.28532208794978      0.03788091428774      0.10483031037665
  C   0.26098528259583      1.16262007518892      1.37480886161457
  N   0.20088089640852      1.53648315962520      2.48731715129485
