14
Coordinates from ORCA-job run
  C   -0.37701767238177     -0.58596737601231     -0.37678727602442
  C   0.78234001191818      0.31090286651891      0.11179765299779
  Br  0.31600478389950     -1.66950936611596     -1.91837381224964
  H   1.58797065024073     -0.37595409145354      0.42264298813192
  N   -0.81724341300286     -1.38801117496854      0.71388802021931
  H   -1.69486635647434     -1.85058294104758      0.51068858754743
  H   -0.12113809123209     -2.08797900600590      0.94552821081245
  C   -1.48013730489733      0.22074383594169     -0.89192634088201
  N   -2.38871855018164      0.83531677293370     -1.31284880575722
  N   0.24905701129841      1.16412855027184      1.15705081183712
  H   -0.06073767076092      0.59374984795439      1.93333302085224
  H   0.94366856584841      1.83025514141777      1.47028903429892
  C   1.30663794650669      1.14743573659811     -0.97156383414238
  N   1.75418008921902      1.85447120396742     -1.79471825764148
