14
Coordinates from ORCA-job run
  C   -0.44134154627472     -0.57728385866707     -0.40409032516078
  C   0.67886594463421      0.45294657938296     -0.11841053519589
  Br  0.58097635678600     -2.31548610443983     -0.85424741086344
  H   1.34995891465243      0.46234514514861     -0.98641147143153
  N   -1.28974812646674     -0.67217072759877      0.69213384816003
  H   -0.76154917399588     -0.77832240503582      1.55065548159800
  H   -2.03480748195008     -1.34699911463223      0.59407073452665
  C   -1.15574469296796     -0.26600004920311     -1.63709568996423
  N   -1.72789401232491      0.01124655450550     -2.62582300367819
  N   1.32220516880137      0.09237887635176      1.13917308824524
  H   2.03401559123653     -0.60689156799654      0.96633061243220
  H   1.75530566840024      0.90253365700175      1.56355597984875
  C   0.07025036832953      1.78268660204978      0.00639958858490
  N   -0.38149297885999      2.86101641313305      0.11375910289830
