14
Coordinates from ORCA-job run
  C   -0.51484289320042     -0.68696242001250     -0.11531595069800
  C   0.43257889172353      0.54099574989405      0.08067471715122
  Br  0.13581584041774     -2.16139596707124      0.98964867292072
  H   -0.02413979858900      1.33833688476015     -0.52834425590169
  N   -1.89554695812668     -0.45981071249341      0.20945419057532
  H   -1.99962972429811     -0.19506460175062      1.18249384371693
  H   -2.30241534222819      0.24652986258799     -0.39375752905880
  C   -0.39829170009452     -1.07418398183159     -1.52356959408241
  N   -0.29171143189001     -1.28621177737097     -2.67455363431439
  N   1.79021990043622      0.23553852901609     -0.31788504099909
  H   1.96407426692045      0.53080671577991     -1.26856337390935
  H   2.47747408608645      0.64843241230129      0.29574659782999
  C   0.35221857291051      0.97859604509971      1.47585784443080
  N   0.27519628993199      1.34439326109117      2.58911351233877
