14
Coordinates from ORCA-job run
  C   -0.52126263533693     -0.53241234458476     -0.20097522522532
  C   0.45020415758773      0.64904111717105      0.00412264464002
  Br  0.29256422971847     -2.13990370222361      0.73466166704063
  H   0.01145600172301      1.46769644082557     -0.57757959193055
  N   -1.81090212758441     -0.20094298441727      0.26484296403036
  H   -2.49624301972452     -0.91059892961888      0.03928597612938
  H   -1.81904837020719     -0.01859457896227      1.26214522943873
  C   -0.56508229828454     -0.88857121978298     -1.61727948879583
  N   -0.67070098431054     -1.16423102477006     -2.75446555624311
  N   1.75462930527942      0.35420179465372     -0.53697395028650
  H   2.28435671631849      1.20601414685027     -0.66893754281791
  H   2.27207767074750     -0.26371918024735      0.07569220259023
  C   0.41853893172432      1.05212410863140      1.42498610486887
  N   0.40041242234918      1.38989635647510      2.55047456656103
