14
Coordinates from ORCA-job run
  C   -0.27488156631590     -0.62833593507296     -0.33065193383193
  C   0.77296980228138      0.52340127886703     -0.18354004106176
  Br  0.69640700361383     -2.30647697559044     -0.59253685853739
  H   1.33895714003012      0.58276648889556     -1.11843516729407
  N   -1.02235319800280     -0.72903014074486      0.90102859759634
  H   -1.63100512983075      0.08063249057917      0.99387617681108
  H   -1.59842003393835     -1.56291730464859      0.90388271793937
  C   -1.08680523436235     -0.41910925671424     -1.53591796434351
  N   -1.74324310285982     -0.19868687423448     -2.48730663294156
  N   1.68647851766183      0.38748892868849      0.92152627183686
  H   2.36831654441057     -0.33144694702392      0.71632753598814
  H   1.16849433571174      0.11337140175565      1.74933837248349
  C   -0.00325723816165      1.76614432690540     -0.03312231136615
  N   -0.67165784023787      2.72319851833819      0.09553123672116
