14
Coordinates from ORCA-job run
  C   -0.44153819323208     -0.57060269790133     -0.41125771456461
  C   0.67910285784100      0.45440725907504     -0.11074140138033
  Br  0.57943538370233     -2.30341790976648     -0.88639494007476
  H   1.34989191559781      0.47710004341116     -0.97881783951495
  N   -1.29038651162979     -0.68003763786200      0.68314765155591
  H   -2.03673599033977     -1.35194856214935      0.57558678105365
  H   -0.76321772316616     -0.79734466660314      1.54079734479553
  C   -1.15632019337809     -0.24247460993743     -1.63968266510793
  N   -1.73937188437458      0.04097565749395     -2.62028735848262
  N   1.32215977811948      0.07540820558984      1.14148080316433
  H   2.02719017785446     -0.62836804492090      0.95885993974779
  H   1.76460931664480      0.87752397577455      1.57160529816618
  C   0.07160625566277      1.78304845549074      0.03296337951324
  N   -0.36642518930218      2.86673053230536      0.14374072112857
