14
Coordinates from ORCA-job run
  C   -0.54462285004206     -0.56433401207820     -0.12476552368953
  C   0.47617183234657      0.59977320013559      0.02324264610250
  Br  0.00696447933019     -2.03963965464771      1.11042350422179
  H   0.09867303995977      1.37306524601119     -0.66059861348769
  N   -1.86147584912453     -0.08526982437084      0.09252902425891
  H   -1.98113070859582      0.22860937942279      1.04981484117261
  H   -2.55770679733443     -0.79089666116438     -0.11340267471795
  C   -0.41063977976886     -1.09679818519506     -1.47982878238645
  N   -0.28310537855325     -1.47368371356863     -2.58542882246303
  N   1.81808341553706      0.16676226264802     -0.29863771209233
  H   2.08241654593852      0.46477252830109     -1.22662867370275
  H   2.50382483949176      0.48460982930600      0.36984052914334
  C   0.37377520496460      1.14261875618869      1.38036489092312
  N   0.28077200585047      1.59041084901146      2.46207536671743
