14
Coordinates from ORCA-job run
  C   -0.44903118849003     -0.62053418883651     -0.10877686576280
  C   0.40763671163263      0.64722302937853      0.08133089608600
  Br  0.35817064236581     -2.09883659470634      0.89038022120740
  H   -0.10031038100508      1.43321828197682     -0.49362975472947
  N   -1.76402445366255     -0.39003971527370      0.43405458271683
  H   -2.24885117269298      0.30281798824441     -0.12916558595103
  H   -2.30947294775982     -1.24424946271401      0.42944996645789
  C   -0.43110072818385     -0.99700797461456     -1.52975205648952
  N   -0.52753799285238     -1.24760699145552     -2.67497357977653
  N   1.72183958829090      0.46415168500906     -0.49365360563197
  H   2.29843434851029     -0.10377788834395      0.11570315687401
  H   2.17861150200721      1.35774879598551     -0.62394553057132
  C   0.39259776956470      1.05534968597159      1.49873452416639
  N   0.47403830227518      1.44154334937866      2.60524363140401
