14
Coordinates from ORCA-job run
  C   -0.39489511662159     -0.58672749888781     -0.36300521246169
  C   0.77973667744525      0.31748617747148      0.07249877581908
  Br  0.22301132886115     -1.63966339975752     -1.95736488117219
  H   1.60916365988804     -0.36415672465456      0.32717417629018
  N   -0.76280140851038     -1.40986450111834      0.73840586656731
  H   -1.64344972376909     -1.88316416634359      0.57742095444508
  H   -0.04478530515206     -2.10206131245062      0.92218063544289
  C   -1.53332202669725      0.21440083527014     -0.80482161132834
  N   -2.45254462270480      0.84476667260906     -1.17634772051409
  N   0.29725101574988      1.14951617288922      1.15856686752426
  H   1.00006842157752      1.82141870859836      1.43942661973976
  H   0.04137313494885      0.56519219888929      1.94402977743202
  C   1.23514714303277      1.17494064797960     -1.02559633095807
  N   1.64704682195175      1.89791618950528     -1.85356791682616
