14
Coordinates from ORCA-job run
  C   -0.45066832025723     -0.58343659031380     -0.38507651447202
  C   0.67074903525083      0.45712487625098     -0.14624389284014
  Br  0.56884815910766     -2.31746503358695     -0.85789069257427
  H   1.31135281529342      0.46537399822949     -1.03697912255708
  N   -1.25996916597547     -0.67595626602964      0.74033648597237
  H   -2.00382822281852     -1.35581215071940      0.67286330306908
  H   -0.70252101056135     -0.77142073347271      1.58138440639271
  C   -1.21038103730547     -0.28727304791829     -1.59459221436740
  N   -1.82323726619751     -0.02466231103458     -2.56266935229530
  N   1.35988822307137      0.11063600201443      1.09132761712003
  H   1.80531787593348      0.92655644277432      1.49137656404163
  H   2.06806669766429     -0.58723795904746      0.89856349113351
  C   0.05731433336042      1.78335106534645     -0.00861348202014
  N   -0.39093211656589      2.86122170750721      0.11621340339697
