14
Coordinates from ORCA-job run
  C   -0.28131721766782     -0.59227044438512     -0.38995984018125
  C   0.83489507118968      0.36936357999303      0.11960937617815
  Br  0.34701256039923     -1.41576839442779     -2.10655524738329
  H   1.71318367539710     -0.26227236648656      0.30604235626612
  N   -0.55131518956034     -1.55043337637830      0.62644600765111
  H   0.23896761052589     -2.17468456825574      0.74717600846511
  H   -1.37583261545187     -2.10077134705093      0.41902180642475
  C   -1.48846569180581      0.16933368491098     -0.69913780581333
  N   -2.45035712186012      0.81140942821371     -0.90905711935675
  N   0.48215386517842      1.06197242250268      1.33823466251636
  H   0.11295034838469      0.39587745024324      2.00636131608287
  H   -0.22240080095642      1.76817145053202      1.15837099213370
  C   1.18951749204875      1.34864459925018     -0.91152647300982
  N   1.45300801417857      2.17242788133862     -1.70502603997370
