14
Coordinates from ORCA-job run
  C   -0.47678596413462     -0.57440586353698     -0.36553008186118
  C   0.69045845644538      0.42129169058366     -0.15738722116029
  Br  0.46337858334638     -2.36723416966025     -0.78163213694450
  H   1.33057988720360      0.37294645724221     -1.04728894555776
  N   -1.28993292223748     -0.59514621217796      0.76078617178620
  H   -0.73769752513812     -0.68795005553846      1.60553588612210
  H   -2.06299751520149     -1.24333228982708      0.71295645956252
  C   -1.22126689659732     -0.28246578162308     -1.58547443995309
  N   -1.81901183981679     -0.02358327442867     -2.56407200731836
  N   1.36289647274889      0.08363711882016      1.09100875853579
  H   1.84404804198631      0.89069137202186      1.46675121417492
  H   2.03843066198067     -0.65186566665191      0.92298590335624
  C   0.13734782983812      1.77787260860057     -0.06459357895826
  N   -0.25944727042353      2.88054406617591      0.00795401821568
