14
Coordinates from ORCA-job run
  C   -0.47334007296605     -0.65261531036801     -0.24167426978832
  C   0.40529833732399      0.58772596694733      0.08272588334035
  Br  0.38960802747186     -2.22454377062239      0.57635672615381
  H   -0.08151550515564      1.42157452251233     -0.43890793777081
  N   -1.82407697364463     -0.60039631775499      0.23411376192952
  H   -2.36727859935317      0.08522012803670     -0.27779446617464
  H   -1.86071579054043     -0.41645853034726      1.23015400483229
  C   -0.47682922139392     -0.83739776040002     -1.69381405343419
  N   -0.52874311237114     -0.92601343664185     -2.86408934908286
  N   1.73891523152775      0.44863233492031     -0.45036129591298
  H   2.28928245579592     -0.18494089215923      0.11609547333073
  H   2.20681642224776      1.34519065285939     -0.48740465936206
  C   0.31518134695589      0.86489851276805      1.53093346335642
  N   0.26739745410180      1.08912390024963      2.68366671858275
