14
Coordinates from ORCA-job run
  C   -0.26835015068948     -0.71444758272401     -0.46436920675981
  C   0.80044373561236      0.25148643387426      0.09381457221420
  Br  0.41965853565506     -1.55494859982258     -2.09126674241349
  H   1.66193153951397     -0.37884097956554      0.33346670263372
  N   -0.49350674838745     -1.72588557530219      0.52678049696769
  H   -1.25961509535217     -2.33347534308110      0.26238569406141
  H   -0.70110537073670     -1.25849007033051      1.40464907588781
  C   -1.46220738723666      0.05946265359742     -0.84300530556882
  N   -2.43263061786917      0.68916545586707     -1.05767833899462
  N   0.27768407350042      0.82480628947720      1.32719791031633
  H   -0.32316566089608      1.61637122218262      1.12362255276620
  H   1.03632453655724      1.14907294452604      1.91392790789186
  C   1.20201419920629      1.25586079427422     -0.90437162887950
  N   1.54252441112240      2.11986235702713     -1.62415369012294
