14
Coordinates from ORCA-job run
  C   -0.44838022073383     -0.57914585725699     -0.39253424708684
  C   0.67351708159883      0.45637165554510     -0.13436025960515
  Br  0.57104779553092     -2.31308941905759     -0.86742719553439
  H   1.32295015185592      0.46935553507809     -1.01868403511737
  N   -1.26945996448108     -0.67784258323088      0.72376598949517
  H   -2.01351209523717     -1.35618324795635      0.64432142345194
  H   -0.72075585807243     -0.77948977321624      1.56982976350976
  C   -1.19361548897964     -0.27188378460246     -1.60820268538657
  N   -1.78915171441815      0.00316840631971     -2.58359504562684
  N   1.34895761763676      0.09894948837416      1.10719866592182
  H   1.79564826103869      0.90977612990704      1.51604540788455
  H   2.05435525649843     -0.60255706887889      0.91751572307167
  C   0.06161086958532      1.78319094953546      0.00556042038371
  N   -0.39321169182257      2.85937956943987      0.12056607463856
