14
Coordinates from ORCA-job run
  C   -0.37944251528357     -0.66682277994542     -0.40662280587049
  C   0.68808908942097      0.42780430639704     -0.13012484374158
  Br  0.72786485795707     -2.30064222724851     -0.95363160172934
  H   1.34152571270382      0.50483519767154     -1.00880083242162
  N   -1.18278435472499     -0.93185781076867      0.69971236727387
  H   -2.16168233733533     -0.71499093660766      0.61553535682245
  H   -0.74531854431153     -0.67885581108664      1.57508418532792
  C   -1.15816258937761     -0.34233587023168     -1.59564005756123
  N   -1.80409096156789     -0.04945869488464     -2.53336268918751
  N   1.36550119166954      0.09182481599897      1.11436721031928
  H   2.01910041084408     -0.66397990310387      0.94391266013599
  H   1.87819868146181      0.89159730971718      1.46466576880781
  C   -0.01720892554193      1.70411865357445      0.04246538814426
  N   -0.57358971591439      2.72976375051787      0.17543989368014
