14
Coordinates from ORCA-job run
  C   -0.46278162648370     -0.57419526060900     -0.38311442821864
  C   0.67845901214086      0.44487263673009     -0.14561585006683
  Br  0.52489763125022     -2.32726909021320     -0.86123612575512
  H   1.31680661883796      0.44277851553932     -1.03803834005600
  N   -1.27011379116135     -0.65385289463028      0.74395440744366
  H   -0.71273733216319     -0.75852748299771      1.58387339458253
  H   -2.02817668189335     -1.31781629856768      0.67868714368506
  C   -1.21916908245976     -0.26438898664235     -1.59105827436599
  N   -1.82774377843545      0.00958835288118     -2.55876607898665
  N   1.36388888279553      0.08425411646308      1.08930128399242
  H   2.05648120963973     -0.62869962507014      0.89546442842542
  H   1.82651528537080      0.89058583316203      1.48921339902532
  C   0.08965010169530      1.78223466279451     -0.00611993046156
  N   -0.33697644913359      2.87043552116011      0.10445497075638
