18
Coordinates from ORCA-job run
  C   -0.50038945911820      0.15414669305083      0.35661940205077
  C   0.74359500559491     -0.17481515542919     -0.48293260632038
  Cl  -0.09391272977667      1.58241814157418      1.41199098613696
  H   0.45408028325888     -1.03562628254440     -1.09911286685896
  C   -1.66984296039007      0.55901733219472     -0.52311354357408
  H   -1.92154179984414     -0.27506722027214     -1.18602861824342
  H   -1.41852309604991      1.41909813033615     -1.13922593826494
  H   -2.54166517804303      0.78855708598347      0.09285422167493
  C   -0.86803835323276     -0.99779101192612      1.27495568272824
  H   -0.04513880948515     -1.24749540943617      1.94052140689240
  H   -1.75284664906939     -0.74293659575467      1.86176252803192
  H   -1.09556015107060     -1.87894485573583      0.66642629433599
  N   1.82337572226103     -0.63296299616922      0.38250161146166
  H   2.59951248845308     -0.95299516276451     -0.18460104594575
  H   2.15279830068077      0.14046815826373      0.95011419295899
  N   1.02526028193029      0.91657663613047     -1.40722941947097
  H   1.77579708983828      0.64643108326896     -2.03183323197855
  H   1.33404001406268      1.72992142922972     -0.88566905561480
