18
Coordinates from ORCA-job run
  C   -0.51355807060877      0.28548671112096      0.49080665321661
  C   0.84491677491002      0.48021904237759     -0.21229495476773
  Cl  -0.47846598483467      1.27877631098041      1.99626949080908
  H   0.99740021042785      1.56088369823811     -0.29334679022911
  C   -1.65527045605128      0.81141789301586     -0.36438214223767
  H   -1.76352787518335      0.20369028796972     -1.26226404642794
  H   -2.58650321323573      0.79346399918245      0.20546312457342
  H   -1.45933392992348      1.84040722244826     -0.67349000051763
  C   -0.74530508251437     -1.15917387122897      0.90458642456361
  H   -1.71364833818798     -1.25514981779935      1.39895644428123
  H   -0.75539580278314     -1.81240132129214      0.02558506669164
  H   0.02389802237596     -1.49280873327264      1.60178470721550
  N   0.74489080953256     -0.03238808742506     -1.58071266052142
  H   1.56534465989036      0.25724070242890     -2.10096117951700
  H   0.74901122509565     -1.04724690603289     -1.56643017569245
  N   1.92764221235345     -0.04058695485653      0.61141560738618
  H   2.00936139396388     -1.04326440280998      0.48855331230572
  H   2.80754344477306      0.37443422695530      0.33146111886795
