18
Coordinates from ORCA-job run
  C   -0.43439385145587      0.05298387137166      0.57350184963371
  C   0.95595882006868     -0.12446404179584     -0.06442107546642
  Cl  -0.18028728634554      0.79788551485346      2.21184943696646
  H   1.51098982728390     -0.81388749568791      0.59067246104853
  C   -1.31940467661980      0.98600526297647     -0.23219489523966
  H   -0.83804563880161      1.95149186214281     -0.38241319525052
  H   -1.52096079451911      0.53382166630835     -1.20687124782323
  H   -2.27188931037746      1.13532660830225      0.27986047284680
  C   -1.09311930338329     -1.29570795154057      0.80003583930053
  H   -1.24809840099442     -1.78349499341228     -0.16235303003866
  H   -0.46205391366393     -1.93574174900300      1.42121062510366
  H   -2.05210675131713     -1.16646512865324      1.30563615426869
  N   1.61600743334206      1.16613234452611     -0.23415838645391
  H   2.56063242773678      1.00941355266136     -0.56669481347427
  H   1.68097111210487      1.64825118342984      0.65495330251047
  N   0.79322467916184     -0.78414652232312     -1.35130919700222
  H   1.62517694623060     -1.31239538972130     -1.58194976355734
  H   0.67739868154944     -0.06500859443503     -2.05735453737261
