18
Coordinates from ORCA-job run
  C   -0.45351921482406      0.26513509503446      0.44658977609251
  C   0.86056074065560      0.46320367529210     -0.34888538931867
  Cl  -0.26797272072184      1.18728425854893      1.99646716611355
  H   0.93602170664813      1.53911007439710     -0.54082137030553
  C   -1.63088596194409      0.87294197939816     -0.29653607047717
  H   -2.53742652602284      0.81240988635931      0.30951303597423
  H   -1.78016910217467      0.34204242860582     -1.23659924280255
  H   -1.43852744489696      1.92457620447590     -0.52078539143550
  C   -0.71523243132260     -1.18633344164111      0.81013650392976
  H   -1.60715209383539     -1.26109743996888      1.43457960855267
  H   -0.89052932692128     -1.77393351208580     -0.09526947079899
  H   0.11587532778605     -1.61973135869638      1.36980350621627
  N   0.70921450930501     -0.19989193585126     -1.63479085743419
  H   1.49698356327499      0.07411462537096     -2.21149641509231
  H   0.79089342910181     -1.20351561299397     -1.50499386349580
  N   2.10125636148343      0.07796544907306      0.31031003918962
  H   2.08699774460470     -0.90953713638000      0.54006881331917
  H   2.22161143980400      0.59425676106160      1.17370962177292
