18
Coordinates from ORCA-job run
  C   -0.46148047367901      0.28369081856309      0.48034422613809
  C   0.93877399646737      0.48092082181775     -0.15031940823090
  Cl  -0.53174962531216      1.32035008451894      1.95565136450724
  H   1.10944454822675      1.56199001006227     -0.18570092275382
  C   -1.55899767073247      0.77536431131005     -0.45225880914874
  H   -2.51732244721642      0.78557988991256      0.06935456734185
  H   -1.35181065723871      1.79209267319089     -0.79670111543195
  H   -1.65151665342963      0.11731404904164     -1.31953289321086
  C   -0.71207264709270     -1.15116417134867      0.91562536998483
  H   -0.60906509025431     -1.83414365303671      0.06522659307824
  H   -0.01576071104275     -1.44386896084217      1.70127364284192
  H   -1.72647212424299     -1.25600871702527      1.30489994896624
  N   1.06160206628592      0.00051539453662     -1.52721300792637
  H   0.80385380920140     -0.97793167985378     -1.59557269053922
  H   0.47063852756164      0.52812453669274     -2.15801543834343
  N   1.95470534920695     -0.09121548091559      0.70868923031613
  H   1.93930591520949     -1.10216623150144      0.62306250250519
  H   2.85792388808162      0.20955630487709      0.36118683990556
