18
Coordinates from ORCA-job run
  C   -0.39014397149638      0.05744371478888      0.60715260105185
  C   1.06104666170148     -0.05350051123441      0.07913802043516
  Cl  -0.29187771562464      0.60549080353174      2.32325485159839
  H   1.62227510473382     -0.60692898048572      0.83929932851189
  C   -1.21527610758266      1.08175774996738     -0.15491710893367
  H   -2.24097480355533      1.09290903799315      0.21845945200883
  H   -1.25112746243369      0.83093315648559     -1.22073696083273
  H   -0.80005048580118      2.08187770977865     -0.03201318721675
  C   -1.07586609201042     -1.30117502174426      0.62044929954738
  H   -0.45879616414896     -2.04444231340348      1.13235906926772
  H   -1.27429979943548     -1.64319798889658     -0.39804832716798
  H   -2.02906562874405     -1.23473458279801      1.14730495123676
  N   1.65356534570612      1.26390311762751     -0.02478432397935
  H   2.64519278667467      1.14341022629675     -0.19571435331533
  H   1.28025909691484      1.73853304496616     -0.84025246539764
  N   1.20172812452921     -0.80926662746409     -1.16631848771609
  H   0.94924948101775     -1.78184169426447     -1.04027986521021
  H   0.61316162955488     -0.42117084114475     -1.89535249388821
