18
Coordinates from ORCA-job run
  C   -0.40000241894091      0.28629185761023      0.43403981735881
  C   0.96829103945622      0.46913800259939     -0.28502549642271
  Cl  -0.33193045414329      1.30432550126118      1.93546502148335
  H   1.07160845882413      1.54782854552711     -0.45523065228357
  C   -1.54023648305303      0.82935722410136     -0.41095308004707
  H   -2.46957081261445      0.84352310553565      0.16127551793832
  H   -1.69200358088810      0.20067439652286     -1.29147103596901
  H   -1.32672514624725      1.85045274527465     -0.73745080517162
  C   -0.65865817054124     -1.14386569867711      0.87351674046639
  H   -1.60094418639670     -1.20784941897657      1.42052318020583
  H   0.13752919024555     -1.50737194635785      1.52351860084052
  H   -0.73403567409688     -1.80486629652814      0.00449653931122
  N   1.01532570508362     -0.17477544838734     -1.58595522900422
  H   0.63027237118919     -1.11063102349370     -1.55662115161325
  H   0.51157995581327      0.35957432472390     -2.27895603671876
  N   2.12327357435726      0.02371910489256      0.47308691735179
  H   2.00429306593932      0.19331332921639      1.46313668408057
  H   2.29093356601324     -0.96083830484461      0.31460446819340
