13

C	0.0	0.0	0.0
C	-0.295095	0.02246	-1.523139
Br	1.937481	0.0	0.0
H	-1.360771	0.208179	-1.658443
H	0.279001	0.839187	-1.962395
N	-0.462871	1.277881	0.630322
O	-0.507069	1.302804	1.86211
O	-0.47262	2.273352	-0.105658
C	-0.536489	-1.142301	0.71048
N	-0.58748	-2.174735	1.287526
C	0.062114	-1.238178	-2.163884
N	0.298493	-2.236359	-2.735495
H	-2.066544	0.0	0.0
