13

C	0.0	0.0	0.0
C	-0.295465	0.03994	-1.52251
Br	1.937685	0.0	0.0
H	0.262943	0.872937	-1.95128
H	-1.365082	0.20967	-1.650681
N	-0.44602	1.283705	0.641728
O	-0.457092	2.284076	-0.084209
O	-0.498474	1.295898	1.872007
C	-0.575698	-1.131547	0.69904
N	-0.627698	-2.164527	1.277036
C	0.081678	-1.20493	-2.181873
N	0.334835	-2.188872	-2.771381
H	-2.075268	0.0	0.0
