13

C	0.0	0.0	0.0
C	-0.300082	-0.047233	-1.521777
Br	1.937828	0.0	0.0
H	0.281634	0.741646	-1.999666
H	-1.363361	0.144996	-1.660588
N	-0.479434	1.299874	0.566928
O	-0.491413	2.261955	-0.213341
O	-0.517153	1.384167	1.797368
C	-0.514287	-1.108335	0.777443
N	-0.560508	-2.089639	1.436553
C	0.044461	-1.338096	-2.104197
N	0.304173	-2.359964	-2.620633
H	-2.073361	0.0	0.0
