13
Coordinates from ORCA-job run
  C   0.64073746221035      0.18988998259051     -0.63755036036087
  C   -0.53901469222870     -0.31320293795921      0.20466419486649
  Cl  0.59784929900611     -0.69706126098379     -2.22804056052818
  H   -0.43867492623874     -1.40106743868141      0.28932531241735
  H   0.48275400203544      1.23876406283776     -0.89537147133964
  N   1.85968906878281      0.05099823127548      0.07130194785492
  H   2.09253412569303     -0.92309777563968      0.22150634906822
  H   2.62633004588185      0.49622203003085     -0.41467959720658
  N   -1.80562094716054     -0.03004361490360     -0.44625087420531
  H   -2.54673029254016     -0.57085668560604     -0.01946360070117
  H   -2.04027158325521      0.94998588020908     -0.33998053327317
  C   -0.44528349299292      0.26437420091291      1.56146290110003
  N   -0.48429806919333      0.74409532591713      2.63307629230791
