13
Coordinates from ORCA-job run
  C   0.70056691581415     -0.31533284447390     -0.68448353717890
  C   -0.66433221032267     -0.35937161306646      0.00797486858681
  Cl  1.32277734058070     -1.98649043398381     -0.84042687102333
  H   -1.29409312038597     -1.07738987075157     -0.53449551437535
  H   0.53809363007623      0.01529183124270     -1.72004831885905
  N   1.59792112357381      0.48036801718454      0.09160321766143
  H   2.45346774453736      0.67075212673849     -0.41309446722409
  H   1.12984961344620      1.35083209628514      0.31919938287702
  N   -1.19945319467939      1.00587748838009      0.03214732297942
  H   -1.61744928649582      1.21913513630921     -0.86614378580533
  H   -1.92074654750665      1.09227426182234      0.73738537557583
  C   -0.53355142316900     -0.85017090181531      1.38373147091653
  N   -0.51205058546895     -1.24677529387148      2.48765085586900
