13
Coordinates from ORCA-job run
  C   0.62132705194077      0.12233608774572     -0.68439073733105
  C   -0.58392713620335     -0.35519743663330      0.13538230079302
  Cl  0.53666278989127     -0.60648811034647     -2.30389556304617
  H   -0.57736767044016     -1.44725388580345      0.08525661041006
  H   0.53393619259441      1.20554377557072     -0.84635605889128
  N   1.84082116835867     -0.31727798277132     -0.04536383056461
  H   2.62665816027519     -0.17879237002658     -0.66830150475293
  H   2.00469338258272      0.22556486131638      0.79583241863754
  N   -1.82782354621850      0.14198092906945     -0.42159471665050
  H   -1.96060527512208      1.11742260004726     -0.18338356604841
  H   -2.61279420749426     -0.37779781487490     -0.05146011831389
  C   -0.37176315598307      0.04285384014243      1.54330586935248
  N   -0.22881775418161      0.42610550656406      2.64496889640575
