13
Coordinates from ORCA-job run
  C   0.63449102757371      0.28073421438574     -0.56226553404233
  C   -0.54180951555256     -0.23990246812024      0.26646995627069
  Cl  0.49505385079399     -0.51930180987807     -2.22030275353084
  H   -0.41225286012317     -1.33003527321848      0.37346660816872
  H   0.48597349209233      1.34174405000254     -0.75876171113285
  N   1.86580958147937      0.04858418175879      0.08068752750387
  H   2.63566372501800      0.50246269758868     -0.39084035220729
  H   2.06708481295050     -0.93797378759684      0.18100018691155
  N   -1.80461644487710      0.15442820167841     -0.34575638909630
  H   -2.57267324743754     -0.06948642572304      0.27480691464081
  H   -1.93397242232520     -0.35876874269168     -1.20898044277038
  C   -0.46868257674152      0.34698819504976      1.61034676596261
  N   -0.44906942285079      0.78152696676444      2.70012922332175
