13
Coordinates from ORCA-job run
  C   0.66167003638154      0.27824255964149     -0.53163397822421
  C   -0.56080758583248     -0.22104777809854      0.24116587659676
  Cl  0.47698250986016     -0.34933367675865     -2.25720833406766
  H   -0.51861238323267     -1.32323705558301      0.24724818519634
  H   0.60072722998161      1.36157836603977     -0.62744157517825
  N   1.86369723427773     -0.11157991797851      0.09112638931244
  H   1.98504837547591     -1.11617865962317      0.09548120687172
  H   2.67205715368009      0.32195213002494     -0.33283274663444
  N   -1.78204819441835      0.32720339132607     -0.33502776206871
  H   -2.57125686138205      0.11223066595656      0.26155084162433
  H   -1.94460675725346     -0.09440490387076     -1.24112063775259
  C   -0.45573598999492      0.23223722755517      1.63404211744716
  N   -0.42911476754311      0.58233765136864      2.75365041687711
