13
Coordinates from ORCA-job run
  C   0.62502541106701     -0.30550550066027     -0.72155271092235
  C   -0.72760008676790     -0.41060795116951     -0.01647622402404
  Cl  1.44870013246152     -1.88588202932535     -0.66665068023100
  H   -1.34990263366006     -1.13227766079329     -0.55438038732677
  H   0.41975247562909     -0.09695135601175     -1.77482990288903
  N   1.41628163124933      0.72650808006589     -0.08060014269392
  H   2.37268356082954      0.43059255738831      0.05395506357584
  H   1.41549994474700      1.56217912687935     -0.65077827082665
  N   -1.34320485830908      0.90590830025652     -0.11125622507449
  H   -0.89768859953345      1.51905422461485      0.56167769349870
  H   -2.32805421941760      0.85023443916404      0.11707102312949
  C   -0.56272966681962     -0.89196229274557      1.36840341464538
  N   -0.48776309147578     -1.27028993766323      2.47741734913885
