13
Coordinates from ORCA-job run
  C   0.64926808273753      0.07061551350223     -0.76441776061284
  C   -0.52339331204639     -0.31992635636604      0.16313842311562
  Cl  0.59520564819982     -1.00660469819767     -2.18384169208433
  H   -0.43727189453447     -1.39383828427661      0.35958444735651
  H   0.47806100550621      1.08621558727758     -1.13219757938003
  N   1.95671585946845      0.00997662111231     -0.17849000924777
  H   2.07072627439507      0.72310745356028      0.53081222328104
  H   2.14152722616966     -0.90153645403437      0.22160969975088
  N   -1.80630765081193     -0.07004448108802     -0.46414482618360
  H   -2.54930900238898     -0.53298004011735      0.04319622714851
  H   -2.00768922792301      0.92271615510412     -0.47641672394864
  C   -0.34163392321032      0.39567611171425      1.44498470073497
  N   -0.22589908556163      1.01662287180928      2.43618287006970
