13
Coordinates from ORCA-job run
  C   0.79326532082910     -0.42761062426803     -0.39938914431008
  C   -0.67951138638024     -0.15446173449363     -0.08843526498625
  Cl  1.65963655207562     -0.67778020420540      1.21320417573334
  H   -1.16473831976519     -0.03912750162535     -1.06312039158143
  H   0.90757650055112     -1.38708639455229     -0.90314879961043
  N   1.29795603328454      0.62438405769811     -1.18598422586823
  H   2.28005404160562      0.51312778703737     -1.39585623835704
  H   1.12435894352898      1.51376411566925     -0.73408890176316
  N   -0.79941524212026      1.10978844401025      0.62154541448726
  H   -1.76026030163405      1.42707967069881      0.61306071159030
  H   -0.51264767415347      0.99140187178472      1.58617681152189
  C   -1.30471795872923     -1.30327965641147      0.59140183708889
  N   -1.84155650909256     -2.18919983134233      1.14463401605495
