13
Coordinates from ORCA-job run
  C   0.89212416937943     -0.32428954346368     -0.26560123074241
  C   -0.63063489705529     -0.28269476652977     -0.12694663956087
  Cl  1.60315922644908     -0.22022695244371      1.43805680576816
  H   -1.01721803081597     -0.37285566277116     -1.14735819550080
  H   1.21989118543022     -1.30143871139046     -0.61951277169088
  N   1.30079430403569      0.69942742664531     -1.14008621007159
  H   2.30510395653837      0.74127351359516     -1.24326749316714
  H   0.93300800676498      1.59060629089005     -0.83038297190549
  N   -1.03541961129294      1.01563760153341      0.38983241149239
  H   -0.84213821364831      1.06610433687013      1.38319529424648
  H   -2.02839386834820      1.15415205865299      0.25254690498380
  C   -1.12959030892325     -1.43493218845126      0.64536840135076
  N   -1.57168591851382     -2.32976340313700      1.26415569479761
