13
Coordinates from ORCA-job run
  C   0.65632249032846      0.17481754690721     -0.62567090849858
  C   -0.55924007978390     -0.28670892345407      0.18885254479427
  Cl  0.57168545004373     -0.64433443950385     -2.25069925710178
  H   -0.52773999600842     -1.38122479300655      0.22999789090485
  H   0.56549302515064      1.24074386533468     -0.84268118602639
  N   1.85851207190184     -0.06746396886914      0.08383667880951
  H   2.02795812648663     -1.05928589551553      0.19875431079239
  H   2.65557956224735      0.34568832852868     -0.38104717762300
  N   -1.80021056191611      0.10109420735871     -0.45742085199495
  H   -2.57737746845498     -0.40732593039541     -0.05569616671272
  H   -1.97296135156204      1.08932012646950     -0.31470658952129
  C   -0.44065629074676      0.22888209395448      1.56876743148527
  N   -0.45636497768645      0.66679778219129      2.65871328069242
