13
Coordinates from ORCA-job run
  C   0.88919503429276     -0.31785882298178     -0.28190063271838
  C   -0.61652991851462     -0.33651999998380     -0.01217165099650
  Cl  1.72633638204736      0.15119428866740      1.29823132854752
  H   -1.07581216891713     -0.64211426263850     -0.95795524126245
  H   1.25727207424807     -1.32484599419472     -0.47669020489494
  N   1.14974355174769      0.53968479099681     -1.36642095482237
  H   2.13634129408234      0.61733957575912     -1.56952807454759
  H   0.74389799826388      1.45149708677936     -1.19669445607543
  N   -1.07222084064173      1.01153916358981      0.28967753753215
  H   -0.80362831645482      1.26252140956112      1.23402670454885
  H   -2.08050227830237      1.06501432606841      0.22188781937477
  C   -0.96562724516223     -1.34656032115782      1.00332085007309
  N   -1.28946556668920     -2.13089124046542      1.81521697524127
