13
Coordinates from ORCA-job run
  C   0.62332131532291      0.11704135929442     -0.68127704125191
  C   -0.60045869007195     -0.33343993786904      0.12688776516593
  Cl  0.50318152401035     -0.55579228684157     -2.32287924926328
  H   -0.64139598778921     -1.42259578728704      0.04260599760437
  H   0.58218343186364      1.20756615194627     -0.80888218799943
  N   1.82388441036148     -0.39530337358863     -0.06144665221135
  H   2.61405643063299     -0.26830104072538     -0.68136246372837
  H   2.01145035350356      0.10977208038497      0.79806649523924
  N   -1.82241323597950      0.23421593538920     -0.41175420386612
  H   -1.91465433270960      1.20553249036339     -0.13978427598076
  H   -2.62871089237357     -0.26492735698219     -0.05948178975913
  C   -0.36782600492036      0.01201026558533      1.54514440785308
  N   -0.18361832185074      0.35422150033027      2.65416319819772
