13
Coordinates from ORCA-job run
  C   0.58144160966370      0.23920587616899     -0.53488682788227
  C   -0.57930703577619     -0.31278535216576      0.31643893302392
  Cl  0.30925844313774     -0.37542614445803     -2.25282069069608
  H   -0.48402907467880     -1.40587622347157      0.31981482531043
  H   0.49634093873864      1.32345223889910     -0.62123384908068
  N   1.83067515729245     -0.11166064201701      0.01081546390146
  H   1.97739625699942     -1.11288528854531      0.02080461457501
  H   2.60280236100397      0.33799320136223     -0.46112226076175
  N   -1.92641753200085      0.00888454352824     -0.11192465073888
  H   -2.08457731453203     -0.34630644961717     -1.04607577860574
  H   -2.06514168077421      1.01239706973211     -0.12033063463966
  C   -0.39776155087351      0.16279098237502      1.69590563447285
  N   -0.26168057820033      0.58121618820916      2.78361522112138
