13
Coordinates from ORCA-job run
  C   0.57269332605878      0.13314965128282     -0.68774966619970
  C   -0.55021558185932     -0.30896349226677      0.28575449765248
  Cl  0.33574388342828     -0.79271019487464     -2.20790353124352
  H   -0.42068448576768     -1.38523501777225      0.45370277323928
  H   0.42496025206398      1.18642483352261     -0.94072559161881
  N   1.91352428919350     -0.04980937258427     -0.22647728633829
  H   2.14750305189625      0.63211171905547      0.48375443266622
  H   2.06205014587403     -0.98427591700534      0.13403869012791
  N   -1.92259687895110     -0.08200329981837     -0.12185338510564
  H   -2.07882248731526      0.90108603105055     -0.31153366206250
  H   -2.11635977550236     -0.60515622302576     -0.96628369420483
  C   -0.30369449390155      0.37913198831497      1.56207152004931
  N   -0.06510124521756      0.97624929412100      2.54420490303810
