13
Coordinates from ORCA-job run
  C   0.59980223454700      0.07570234807170     -0.75448501428873
  C   -0.51932124716127     -0.20110146959496      0.26859146236699
  Cl  0.31790398488112     -1.04039394239753     -2.13700277531716
  H   -0.43145478267903     -1.25927016808038      0.56641267897652
  H   0.45897914914622      1.08730864044659     -1.13846874236018
  N   1.93868966625883     -0.08430916476470     -0.28587545857098
  H   2.21088030557214      0.69138565829088      0.30373131856889
  H   2.06789395293699     -0.95766056859892      0.20911122302385
  N   -1.81705888619408      0.17107370543400     -0.27667809555611
  H   -2.53537138016803      0.07731130703128      0.43105266248170
  H   -2.04486983502145     -0.45173975759048     -1.04231230965980
  C   -0.24457938537289      0.61730373762806      1.45635237288492
  N   -0.00049377674555      1.27338967412446      2.39857067745009
