13
Coordinates from ORCA-job run
  C   0.74159605915795     -0.42762392993503     -0.55714860018152
  C   -0.63510086779110     -0.00644072423336     -0.01381277788870
  Cl  1.51945317477173     -1.47700608977801      0.70767414003052
  H   -1.10698367338622      0.56371261936310     -0.82222794477960
  H   0.61211367931638     -1.08018523429893     -1.42129928571168
  N   1.56449083666600      0.67885074291525     -0.88128836510523
  H   1.55238837765744      0.90293664501552     -1.86393522515299
  H   1.34630923242578      1.47683600413800     -0.29980558396457
  N   -0.45099912859456      0.89792294180035      1.10949703689926
  H   -1.33033201190284      1.32926939050358      1.36466349401927
  H   -0.10657599345794      0.38314174901243      1.91169351971104
  C   -1.49602599116787     -1.17035067276979      0.26441768456639
  N   -2.21133369369476     -2.07106344173310      0.50257190755782
