13
Coordinates from ORCA-job run
  C   0.66365129133003      0.13850880007239     -0.68971539016815
  C   -0.54819179845700     -0.20451532956809      0.19897093714689
  Cl  0.45168817411617     -0.77759216732502     -2.22255400088825
  H   -0.53108828904965     -1.29475734739373      0.36417704630405
  H   0.59952925569765      1.19673640397103     -0.94817255644044
  N   1.95098976217488     -0.15089236064691     -0.14359547824582
  H   2.20102861714814      0.52290987893812      0.56870424261632
  H   2.00165015527120     -1.08850897469294      0.23447126088195
  N   -1.77840712541124      0.30152438451056     -0.39268505019395
  H   -1.97022918055873     -0.20949007340395     -1.24565465773447
  H   -2.55634664136517      0.16258342527409      0.24039095295284
  C   -0.33885343294420      0.44249189943251      1.50035682933063
  N   -0.14542078795208      0.96200146083195      2.53530586443840
