13
Coordinates from ORCA-job run
  C   0.80374707957511     -0.29210253588508     -0.28158312521561
  C   -0.68708407243803     -0.40380994521922      0.08359723978768
  Cl  1.73087256634716      0.15821365790912      1.23235769746804
  H   -1.18002316324315     -0.74482941472682     -0.83369366783909
  H   1.18921537073884     -1.27304195688695     -0.56197804673108
  N   0.97316421923182      0.61965891082753     -1.35490443595019
  H   1.91606432683868      0.58805647420912     -1.71964935058265
  H   0.78053383779363      1.56802186356944     -1.05769089174873
  N   -1.34212786949073      0.81625684311680      0.50560158420414
  H   -0.83996623828783      1.25657812715757      1.26593868869741
  H   -1.44141436656651      1.45957410047379     -0.26746612685449
  C   -0.87899184767595     -1.45091909695232      1.09686076259549
  N   -1.02398984282304     -2.30165702759299      1.89160967216907
