13
Coordinates from ORCA-job run
  C   0.65257654171810     -0.32344781911238     -0.82305396504357
  C   -0.67431787983371     -0.40743667503785     -0.04748318895387
  Cl  1.34474444580079     -1.97472851526712     -0.90050137241478
  H   -1.30916500985349     -1.15158247604452     -0.53572898958200
  H   0.39834091492829     -0.03166838045086     -1.84251213325398
  N   1.62163445478641      0.59033053086943     -0.31122536961948
  H   1.80641256988722      0.45429497736235      0.67460378771359
  H   1.37005566359651      1.54783196182980     -0.51284887353788
  N   -1.32777931960294      0.89378203831233     -0.13428954690861
  H   -2.31313634875422      0.80561445165620      0.08050276815024
  H   -0.92667247388663      1.52928137441942      0.54474711221069
  C   -0.42484671160365     -0.84148160018032      1.33986433382069
  N   -0.21684684718269     -1.09078986835646      2.46892543741897
