13
Coordinates from ORCA-job run
  C   0.58125548292922      0.11497060407856     -0.68388126912968
  C   -0.56806878869749     -0.28371730674718      0.27692815148527
  Cl  0.29106956633570     -0.75599341621621     -2.22817874747763
  H   -0.50468683460151     -1.36979713641637      0.41706428329100
  H   0.49767560657133      1.18120754844295     -0.91032791742052
  N   1.90730527312624     -0.15989995454982     -0.22667288848685
  H   1.99736329395903     -1.10752356389041      0.11842710196594
  H   2.18446762510855      0.49466185990653      0.49356976003620
  N   -1.92363379143486      0.03649492173660     -0.12495257778579
  H   -2.01943962691611      1.03199763015667     -0.28882819848714
  H   -2.14674141038195     -0.45171197491350     -0.98303677097591
  C   -0.28353018468112      0.35521498608609      1.57087203357403
  N   -0.01403621131702      0.91309580232609      2.56801703941108
