13
Coordinates from ORCA-job run
  C   0.68163201836390     -0.40873575167542     -0.53709267742770
  C   -0.69337256222375     -0.16633502424560      0.13924132960964
  Cl  1.84377938685010     -0.91379157247809      0.72776430382823
  H   -1.37197019233786      0.12969576110571     -0.67140476200912
  H   0.59202227872606     -1.24907000339601     -1.22958671213306
  N   1.22219101795444      0.71329177154621     -1.24644615981126
  H   1.26616623941962      1.53864469263363     -0.66322492349007
  H   0.69188441178872      0.90432577573036     -2.08694150606968
  N   -0.75384782771151      0.86588767561106      1.15350411018040
  H   -0.59277256367655      1.77924975638626      0.75077989153027
  H   -0.07144371150673      0.69284772658441      1.88111967832172
  C   -1.20985444247274     -1.42884642168418      0.68522426166235
  N   -1.60541405317373     -2.45416438611834      1.09706316580830
