13
Coordinates from ORCA-job run
  C   0.68655488136628     -0.21673282455791     -0.80497310363556
  C   -0.63532107300809     -0.39080811286493     -0.02447441048799
  Cl  1.40094835476032     -1.82912537392495     -1.05879056188623
  H   -1.23524238586377     -1.17170417554943     -0.51170774041224
  H   0.42727094415070      0.17221039134253     -1.79380997957279
  N   1.65066495318754      0.65475500814271     -0.20238545028012
  H   1.19573350775029      1.54229987708033     -0.01636582777878
  H   1.97427599241774      0.26493384980889      0.67629675315456
  N   -1.28242333853639      0.92254467505193      0.02051279685270
  H   -1.95049866164007      0.97032135659116      0.77974889615275
  H   -1.78801839700935      1.07551104885201     -0.84439479207337
  C   -0.34388506565815     -0.83426707730827      1.34036067084749
  N   -0.10005971191705     -1.16093864266407      2.44098274911957
