13
Coordinates from ORCA-job run
  C   0.55112649096742     -0.27575195379867     -0.68924384620382
  C   -0.74683749756547     -0.49233204568471      0.10456610751716
  Cl  1.47381190159146     -1.80059940770052     -0.74164436729627
  H   -1.32668228072278     -1.28432877332516     -0.38203387656755
  H   0.27503547081581     -0.06244596755783     -1.72954272258055
  N   1.33195073039675      0.77799451824004     -0.06986367105702
  H   2.31949926522806      0.56644843992453     -0.10548709359752
  H   1.18400368981514      1.65235329907009     -0.55725067189140
  N   -1.56819445264104      0.70332237644517      0.18889174617532
  H   -1.80920085420035      1.04296955446522     -0.73430934571084
  H   -1.06888699567396      1.42381794878596      0.69643108703661
  C   -0.42823095299444     -0.94340346077744      1.46519893478365
  N   -0.18739451501661     -1.30904452808666      2.55328771939225
