13
Coordinates from ORCA-job run
  C   0.58135201566160      0.06158731230301     -0.59431066553514
  C   -0.62709003286783     -0.31940646534342      0.28366100993474
  Cl  0.40593953661315     -0.76807429901853     -2.16821184080654
  H   -0.59329645015700     -1.40819922351221      0.39258299945565
  H   0.52665085136944      1.13379264349161     -0.82899562914622
  N   1.80176064781093     -0.38850191203243      0.02495373788016
  H   2.58702098531327     -0.24452054417288     -0.59792878068527
  H   1.96969527492446      0.13909003811128      0.87528623104111
  N   -1.93850354926935      0.06121549627674     -0.20107819497713
  H   -2.12601686757875     -0.40681593936249     -1.07861284947411
  H   -1.98964339964854      1.06195460828574     -0.35174343060086
  C   -0.41118741056153      0.27700056368322      1.61009627099615
  N   -0.18668160160985      0.80087772129034      2.63630114191746
