13
Coordinates from ORCA-job run
  C   0.50136263352213     -0.16256748755429     -0.75041238595919
  C   -0.73264019321479     -0.46851118670824      0.11492700427571
  Cl  1.38539469742567     -1.73465932414748     -1.05741141445577
  H   -1.25998547458322     -1.31926706926691     -0.32485290837067
  H   0.15924542318438      0.16009390571337     -1.73484025700990
  N   1.28420223267919      0.85797695558199     -0.15747008516633
  H   1.72053252236880      0.53998226003123      0.70079360732402
  H   2.00091086130233      1.19788017562936     -0.78441122197177
  N   -1.65217868317089      0.64952686217695      0.22749458605305
  H   -2.13568320714731      0.78439521786741     -0.65188801537987
  H   -1.12272156651126      1.48868929164602      0.43535272120406
  C   -0.27905017848774     -0.86393532180218      1.45773814124693
  N   0.12961093263273     -1.13060427916722      2.52498022820974
