13
Coordinates from ORCA-job run
  C   0.86099845426181     -0.35598709283778     -0.32135130193646
  C   -0.63556531098899     -0.29899141570477     -0.00976190501840
  Cl  1.76518594017533     -0.01194768295806      1.25332653527194
  H   -1.13713182278078     -0.53302888588801     -0.95444149467264
  H   1.16267489082870     -1.37248537016120     -0.57281923708945
  N   1.14406639715677      0.53488755177527     -1.37316530021835
  H   0.79903682123227      1.46036261968589     -1.15025889540909
  H   2.12795658702885      0.56335178309149     -1.60141317046650
  N   -1.00191458129273      1.05787885147559      0.36546523547462
  H   -0.69491081292411      1.24813591567962      1.31216465801276
  H   -2.00662027119762      1.17316500663247      0.32889770941178
  C   -1.01808989797904     -1.33308232754287      0.96884894948358
  N   -1.36668639352045     -2.13325895324763      1.75450821715621
