13
Coordinates from ORCA-job run
  C   0.78239505083571     -0.27976741641709     -0.22828957168407
  C   -0.74738117098972     -0.23163738550289     -0.03414666360199
  Cl  1.59302604310600     -0.34798815991646      1.35525552019671
  H   -1.17021820163046     -0.15018037170850     -1.04543759837397
  H   1.06151320198187     -1.20764008641174     -0.74211765397368
  N   1.17903684059240      0.94017564425697     -0.90322615299291
  H   0.92641544285801      0.87345190133960     -1.88394707957339
  H   2.18305303485461      1.06139150744408     -0.84936431179007
  N   -1.24759907449828      0.88202692404853      0.74487170119619
  H   -0.96188867398481      0.77376626451072      1.71096748149278
  H   -0.80817805478120      1.72403736991786      0.38786225093326
  C   -1.22002816307033     -1.50387336893495      0.52211432934732
  N   -1.57114627527380     -2.53176282262613      0.96545774882381
