13
Coordinates from ORCA-job run
  C   0.79257019625165     -0.36722243876631     -0.39689910708738
  C   -0.69581135587459     -0.20882105005309      0.01184048009144
  Cl  1.72998440790778     -0.79714953628582      1.06677056150259
  H   -1.22901826802331      0.04431691092409     -0.91371991438555
  H   0.88318262932142     -1.21300621125056     -1.08259221956860
  N   1.38547010224642      0.78474211667288     -1.00991298581230
  H   1.01057048585700      0.93875222023665     -1.93729229654398
  H   1.26800598738292      1.61330873945104     -0.44146724146887
  N   -1.00392931579035      0.81940414209138      0.98435996534272
  H   -0.45606690397334      0.69129478392139      1.82609891427343
  H   -0.82930828971697      1.74043518563762      0.60540949613897
  C   -1.22667300919365     -1.49973289401946      0.47045770632344
  N   -1.62797666639498     -2.54632196855981      0.81794664119409
