13
Coordinates from ORCA-job run
  C   0.65848159466339     -0.30765327921155     -0.82186522599486
  C   -0.65664130581988     -0.44040617630588     -0.03240153700844
  Cl  1.42739440525944     -1.92574934081655     -0.87713854441035
  H   -1.25829930262639     -1.22468284648617     -0.49923012780948
  H   0.38120947530773     -0.04685352534137     -1.84371685253698
  N   1.58707586447635      0.66016649293341     -0.33588459445567
  H   1.29032643646572      1.60065970586054     -0.55472656826483
  H   1.78578216205252      0.55278661738093      0.65072706440113
  N   -1.37400370740597      0.82534887293749     -0.14011181140486
  H   -2.35217221164180      0.69394042423660      0.08548822857531
  H   -0.99855615848057      1.49406535093129      0.52151070474069
  C   -0.37202144831292     -0.83153677155589      1.36059530939294
  N   -0.11857580393760     -1.05008552456286      2.48675395477538
