14

C	-0.293247	-0.037069	-1.52218
C	0.0	0.0	0.0
Br	0.088332	1.832407	-2.244154
H	1.097773	0.0	0.0
N	0.526385	-1.036568	-2.066382
H	0.458474	-1.100583	-3.072884
H	1.495137	-0.911554	-1.762479
C	-1.707042	-0.249379	-1.83691
N	-2.842747	-0.435328	-2.080099
C	-0.469355	-1.243696	0.612197
N	-0.860934	-2.228241	1.120013
C	-0.555408	1.147787	0.702472
N	-1.004449	2.046896	1.310831
Cl	3.152253	0.0	0.0
