14

C	-0.425125	-0.010442	-1.479702
C	0.0	0.0	0.0
Br	-2.512891	-0.150217	-1.519782
H	1.098166	0.0	0.0
N	0.048475	1.116055	-2.140512
H	-0.177174	1.988577	-1.679435
H	-0.161204	1.135562	-3.128101
C	-0.008163	-1.23903	-2.150377
N	0.308819	-2.233277	-2.692317
C	-0.475484	-1.172329	0.723986
N	-0.828164	-2.12531	1.313094
C	-0.4575	1.234457	0.630037
N	-0.797619	2.262177	1.087125
Cl	3.114244	0.0	0.0
