14

C	-0.267769	0.049461	-1.519994
C	0.0	0.0	0.0
Br	-2.180475	0.414066	-1.905324
H	1.099771	0.0	0.0
N	0.528435	1.116137	-2.041554
H	0.519732	1.11398	-3.054984
H	1.488806	1.000994	-1.701765
C	-0.012799	-1.271306	-2.120295
N	0.209786	-2.288246	-2.66911
C	-0.541017	-1.189885	0.63947
N	-0.979801	-2.146406	1.161635
C	-0.462646	1.216294	0.659703
N	-0.823343	2.181224	1.223816
Cl	3.137302	0.0	0.0
