14

C	-0.518806	0.013645	-1.457523
C	0.0	0.0	0.0
Br	0.348998	-1.533	-2.400032
H	1.095271	0.0	0.0
N	-1.940353	-0.043254	-1.497346
H	-2.270362	-0.886856	-1.039219
H	-2.276508	-0.03061	-2.453007
C	-0.062776	1.211427	-2.163677
N	0.227689	2.181355	-2.76146
C	-0.493786	-1.197932	0.676282
N	-0.921091	-2.1575	1.203196
C	-0.479902	1.195111	0.696523
N	-0.845283	2.162231	1.254407
Cl	3.133458	0.0	0.0
