14

C	-0.285496	0.048083	-1.515134
C	0.0	0.0	0.0
Br	-2.212738	0.36744	-1.872
H	1.099777	0.0	0.0
N	0.477662	1.135999	-2.041751
H	1.443019	1.044538	-1.712034
H	0.458671	1.136407	-3.054167
C	-0.008661	-1.26384	-2.122237
N	0.246706	-2.288245	-2.640739
C	-0.530873	-1.19204	0.645246
N	-0.960584	-2.149568	1.172991
C	-0.463682	1.213566	0.664405
N	-0.82042	2.179007	1.230147
Cl	3.132557	0.0	0.0
