14

C	-0.265844	-0.006719	-1.52035
C	0.0	0.0	0.0
Br	-2.181477	0.329085	-1.920856
H	1.109267	0.0	0.0
N	0.523267	1.046879	-2.07808
H	1.483611	0.950918	-1.733462
H	0.516072	1.008338	-3.089947
C	0.000193	-1.344929	-2.074945
N	0.236148	-2.376496	-2.589615
C	-0.531709	-1.168437	0.684794
N	-0.952029	-2.108023	1.251223
C	-0.468424	1.235387	0.617296
N	-0.849258	2.206149	1.157521
Cl	3.133515	0.0	0.0
