14

C	-0.336701	-0.098217	-1.523598
C	0.0	0.0	0.0
Br	0.18208	1.604417	-2.347322
H	1.107761	0.0	0.0
N	0.392667	-1.154255	-2.169396
H	0.061612	-2.049623	-1.819858
H	1.377708	-1.052868	-1.91829
C	-1.778142	-0.254967	-1.7328
N	-2.940596	-0.38727	-1.843912
C	-0.447717	-1.231178	0.647495
N	-0.801941	-2.242189	1.130974
C	-0.534148	1.16795	0.682562
N	-0.947715	2.099342	1.2687
Cl	3.127211	0.0	0.0
