14

C	-0.493826	-0.322324	-1.431051
C	0.0	0.0	0.0
Br	0.334253	-2.080845	-1.948023
H	1.107309	0.0	0.0
N	-1.913247	-0.336711	-1.491844
H	-2.289822	-1.027632	-0.850677
H	-2.2367	-0.539433	-2.430716
C	0.030525	0.65408	-2.3875
N	0.410088	1.430353	-3.1858
C	-0.516764	-1.002875	0.927527
N	-0.990797	-1.809842	1.63878
C	-0.483328	1.325697	0.38768
N	-0.874597	2.385328	0.709707
Cl	3.122654	0.0	0.0
