12

C	0.0	0.0	0.0
C	-0.281012	-0.09381	-1.523064
Cl	1.783581	0.0	0.0
H	0.470928	-0.802815	-1.904308
H	-0.386203	0.929869	0.398426
H	-0.365788	-0.857886	0.555066
N	-0.096498	1.240926	-2.111651
H	-0.521846	1.261826	-3.02949
H	0.895675	1.410879	-2.219927
C	-1.515932	-0.687812	-2.073055
N	-2.103897	-1.253948	-2.924359
Br	-3.331603	0.0	0.0
