12

C	0.0	0.0	0.0
C	-0.617745	0.488963	-1.311386
Cl	1.771192	0.0	0.0
H	-1.592103	0.910324	-1.026139
H	-0.352269	-1.011462	0.190177
H	-0.319771	0.645687	0.816654
N	-0.787423	-0.647358	-2.226977
H	-1.053882	-0.286408	-3.138453
H	-1.618648	-1.123046	-1.872917
C	0.167221	1.547029	-1.94873
N	0.746189	2.415609	-2.486977
Br	-3.661458	0.0	0.0
