12

C	0.0	0.0	0.0
C	-0.460103	0.081375	-1.476704
Cl	1.776811	0.0	0.0
H	0.414133	0.359368	-2.072528
H	-0.338915	0.899046	0.510096
H	-0.363635	-0.888503	0.509102
N	-1.441346	1.133077	-1.658053
H	-2.305739	0.881075	-1.164637
H	-1.669822	1.202341	-2.6437
C	-0.833967	-1.269639	-1.960323
N	-1.084498	-2.344505	-2.364221
Br	-4.064203	0.0	0.0
