12

C	0.0	0.0	0.0
C	-0.278063	-0.066354	-1.524029
Cl	1.782219	0.0	0.0
H	0.438697	-0.811816	-1.902168
H	-0.381637	0.923484	0.41806
H	-0.367279	-0.868274	0.536804
N	-0.016819	1.263239	-2.101131
H	0.985435	1.392137	-2.173435
H	-0.404201	1.296525	-3.035553
C	-1.540443	-0.567755	-2.098333
N	-2.144538	-1.038142	-2.99604
Br	-3.329727	0.0	0.0
