12

C	0.0	0.0	0.0
C	-0.55132	0.333168	-1.37159
Cl	1.781015	0.0	0.0
H	-1.644777	0.311184	-1.226943
H	-0.343737	0.721872	0.73813
H	-0.342197	-0.997755	0.264335
N	-0.181737	-0.68862	-2.344824
H	-0.801595	-0.623224	-3.142356
H	0.768155	-0.542264	-2.664887
C	-0.16246	1.69322	-1.79012
N	0.152677	2.755455	-2.182035
Br	-3.701447	0.0	0.0
