17

C	0.0	0.0	0.0
C	-0.446618	-0.053759	-1.459585
F	1.406821	0.0	0.0
H	-1.541469	-0.033451	-1.476877
N	-0.45441	1.229096	0.53453
H	-0.125023	1.362992	1.480654
H	-0.195835	1.99977	-0.066891
N	-0.425193	-1.166928	0.697151
H	-1.444439	-1.095371	0.773287
H	-0.013106	-1.167503	1.625839
N	-0.030553	-1.407746	-2.019004
O	-0.874572	-2.294839	-2.05691
O	1.136247	-1.517193	-2.407405
N	0.152794	1.022783	-2.183842
H	1.147436	0.844929	-2.255096
H	-0.241637	1.094502	-3.112219
Cl	-3.745233	0.0	0.0
