17

C	0.0	0.0	0.0
C	-0.400776	-0.016017	-1.487063
F	1.409228	0.0	0.0
H	-1.491649	-0.034335	-1.538738
N	-0.425321	1.191853	0.664817
H	-1.440385	1.114267	0.746399
H	-0.230434	1.984234	0.05764
N	-0.433088	-1.193128	0.641451
H	-0.290524	-1.060106	1.636104
H	-1.436228	-1.291042	0.485879
N	0.065354	-1.324078	-2.116455
O	-0.709566	-2.274406	-2.093265
O	1.190167	-1.340697	-2.620643
N	0.159285	1.11804	-2.148201
H	-0.221769	1.206031	-3.080423
H	1.161517	0.992314	-2.212624
Cl	-3.561115	0.0	0.0
