17

C	0.0	0.0	0.0
C	-0.453422	-0.054582	-1.471538
F	1.40362	0.0	0.0
H	-1.540697	0.048803	-1.482902
N	-0.44138	1.254267	0.529892
H	0.005632	1.407805	1.425475
H	-1.453205	1.168317	0.657134
N	-0.464548	-1.128637	0.715946
H	-0.090813	-1.999278	0.367318
H	-0.300358	-1.039172	1.706696
N	-0.153329	-1.418245	-2.020771
O	-1.08627	-2.198173	-2.187806
O	1.029865	-1.673477	-2.258772
N	0.205384	0.898075	-2.32762
H	-0.107914	1.813404	-2.027443
H	1.198579	0.843285	-2.136535
Cl	-3.692733	0.0	0.0
