17

C	0.0	0.0	0.0
C	-0.361225	-0.026761	-1.520769
F	1.406729	0.0	0.0
H	0.534231	-0.349792	-2.060438
N	-0.459626	1.076472	0.806366
H	-0.196311	1.965805	0.405871
H	-1.47336	0.991719	0.861835
N	-0.481082	-1.191173	0.591501
H	-0.389046	-1.998655	-0.002159
H	-0.06489	-1.311672	1.503483
N	-0.475864	1.434827	-2.031442
O	0.41891	2.211885	-1.695736
O	-1.376595	1.702456	-2.817419
N	-1.465735	-0.839766	-1.820701
H	-1.723648	-0.756715	-2.795572
H	-2.283109	-0.619255	-1.235394
Cl	-3.977769	0.0	0.0
