14

C	-0.465382	0.053856	-1.472022
C	0.0	0.0	0.0
Br	0.013554	-1.618106	-2.359517
H	1.097201	0.0	0.0
H	-1.555651	0.098328	-1.522197
C	0.188274	1.214242	-2.198924
H	-0.146929	2.159046	-1.758913
H	-0.085598	1.203168	-3.253949
H	1.272366	1.143891	-2.100436
C	-0.511373	-1.165993	0.716795
N	-0.94672	-2.087964	1.299552
C	-0.45891	1.215976	0.676357
N	-0.832272	2.209376	1.18053
Br	3.391298	0.0	0.0
