14

C	-0.327193	0.002055	-1.499513
C	0.0	0.0	0.0
Br	-2.264991	0.080833	-1.817144
H	1.099309	0.0	0.0
H	0.06566	0.933395	-1.911387
C	0.284748	-1.198131	-2.192564
H	0.134952	-1.134046	-3.271934
H	-0.163147	-2.126286	-1.831142
H	1.356961	-1.20432	-1.969906
C	-0.483104	-1.205517	0.668535
N	-0.856661	-2.184805	1.198644
C	-0.478765	1.199452	0.680898
N	-0.848728	2.175443	1.219362
Br	3.352411	0.0	0.0
