14

C	-0.479779	-0.044214	-1.465063
C	0.0	0.0	0.0
Br	0.157591	1.550145	-2.391346
H	1.09597	0.0	0.0
H	0.041756	-0.877518	-1.941925
C	-1.98582	-0.154092	-1.616991
H	-2.258887	-0.193928	-2.67287
H	-2.479312	0.70968	-1.165026
H	-2.345216	-1.064176	-1.126847
C	-0.442339	-1.22442	0.673653
N	-0.800405	-2.228628	1.167735
C	-0.518366	1.166809	0.711973
N	-0.965923	2.095277	1.275668
Br	3.355215	0.0	0.0
