14

C	-0.463627	0.054029	-1.472963
C	0.0	0.0	0.0
Br	0.01332	-1.620489	-2.360347
H	1.097151	0.0	0.0
H	-1.553769	0.09566	-1.522108
C	0.188122	1.21782	-2.195776
H	-0.15253	2.160193	-1.756004
H	-0.080855	1.209807	-3.25292
H	1.272367	1.150948	-2.091152
C	-0.510706	-1.167079	0.715575
N	-0.946841	-2.088758	1.298418
C	-0.459038	1.215652	0.67692
N	-0.830788	2.209544	1.181439
Br	3.380282	0.0	0.0
