14

C	-0.353414	0.004937	-1.492234
C	0.0	0.0	0.0
Br	-2.298258	0.09016	-1.768598
H	1.099296	0.0	0.0
H	0.032404	0.935701	-1.91189
C	0.236187	-1.197635	-2.199895
H	0.053556	-1.135956	-3.27436
H	1.31436	-1.206262	-2.008678
H	-0.203368	-2.123578	-1.823011
C	-0.47628	-1.205804	0.674062
N	-0.840176	-2.186593	1.208101
C	-0.46927	1.198755	0.690409
N	-0.828906	2.176431	1.232792
Br	3.353779	0.0	0.0
