13
Coordinates from ORCA-job run
  C   0.48862094033301      0.12980061193315     -0.21869258007068
  C   -0.66840702296122     -0.23601288959549      0.40489384144191
  N   1.80106178954008     -0.08460120207862      0.37660630403798
  O   1.86964889335384     -0.63298366532237      1.47302906403221
  O   2.76437066967196      0.33171366485015     -0.27446727533241
  N   0.43821149837326      0.79973684266267     -1.43598676662218
  H   0.07227909401125      0.21678222761586     -2.18089843447015
  H   1.34625695244556      1.16945263815845     -1.68518686191207
  C   -0.75242874941310     -1.00448334251480      1.60455187364787
  N   -0.98406169238415     -1.62721606992980      2.57694443871050
  N   -1.87568121529826      0.04021520835049     -0.22776756702516
  H   -2.67708100955783      0.02056880298400      0.38549468854692
  H   -1.82379014811440      0.87702717288631     -0.79852072498474
