13
Coordinates from ORCA-job run
  C   0.47362748090849      0.05029762231887     -0.27514289245749
  C   -0.64968626676469     -0.13826317424456      0.47601401981723
  N   1.72411053338568     -0.64619033737221     -0.00334344466049
  O   1.77662358828001     -1.41439935590266      0.95309307988784
  O   2.65023928520020     -0.42009063660360     -0.78847056847608
  N   0.42848526377354      0.87678317040480     -1.39287744615441
  H   0.29219931702737      1.85091998847666     -1.14557679811849
  H   1.25963812221126      0.76634656640693     -1.95900320287225
  C   -0.71457023510761     -0.88461925863384      1.69099400518398
  N   -0.92534427547235     -1.46022284326403      2.69661945955521
  N   -1.80597390466217      0.54728045843591      0.12013643145291
  H   -2.65272223541407      0.15695884263428      0.50680919387476
  H   -1.85662667336565      0.71319895734343     -0.87925183703273
