13
Coordinates from ORCA-job run
  C   0.50113603011691      0.21585135561969     -0.18648413696888
  C   -0.65617832029597     -0.18168869574603      0.44243995964639
  N   1.30138684915343     -0.72902027778821     -0.93481834332925
  O   2.17077145372726     -0.25639020126348     -1.67095438483044
  O   1.05551154873759     -1.93743275566437     -0.82790071660311
  N   1.05838972280150      1.48214317510840     -0.13977693103683
  H   1.47669106388289      1.76035771501893     -1.01600871901982
  H   0.45070871488759      2.18619136892485      0.25360445397585
  C   -1.42517048997757      0.87606471645022      1.02354370236410
  N   -2.05195368525629      1.77051841456712      1.46608439937186
  N   -1.11225848048271     -1.46364419735318      0.69589265392398
  H   -0.65122281111507     -2.18074817118396      0.15641808791030
  H   -2.11681159617954     -1.54420244668997      0.73995997459586
