13
Coordinates from ORCA-job run
  C   0.45815112398291      0.25156660050318     -0.21812038402331
  C   -0.71439023568261     -0.20620421450596      0.33874011685006
  N   1.39195148082349     -0.66314140299642     -0.83477508269308
  O   1.08731531077191     -1.86005814939880     -0.91532108096182
  O   2.45779580471750     -0.18828731169093     -1.23772456782094
  N   0.81054150285886      1.58479129411705     -0.36432469812730
  H   0.40290409800052      2.19780725632372      0.32671968854453
  H   1.80935608108359      1.70187957662035     -0.45639886618759
  C   -1.53398481516935      0.80712294122470      0.92636822071717
  N   -2.18531891370171      1.67039241889964      1.39452124522991
  N   -1.14060122981999     -1.51060866206148      0.52062166630469
  H   -0.70500374756198     -2.18000590024988     -0.09462474433485
  H   -2.13971646030315     -1.60625444678519      0.61531848650252
