13
Coordinates from ORCA-job run
  C   0.54189648447294      0.04638823263883     -0.18332026558124
  C   -0.73599876700062     -0.21191005259707      0.25445682434217
  N   1.02125266041054      1.40427888587569     -0.32164879421793
  O   2.10370699664425      1.55891565642308     -0.89066232785727
  O   0.32429127788266      2.32555288642186      0.12113257603493
  N   1.52082314265739     -0.90056778270119     -0.43412263619053
  H   2.14245402144700     -0.62945875742645     -1.18266125982325
  H   1.18432619405526     -1.84783116070246     -0.51816121153912
  C   -1.10909630201738     -1.59170165513844      0.26473197133568
  N   -1.38984149637995     -2.73623645480704      0.27605723032122
  N   -1.73953116564238      0.68334144894851      0.58528283564529
  H   -2.45415320491848      0.30061417959079      1.18393092825195
  H   -1.41112984161124      1.60061457347388      0.84398412927810
