13
Coordinates from ORCA-job run
  C   0.46310912164849      0.21013926689331     -0.21148489715398
  C   -0.65766604645033     -0.26362776680897      0.40570833966389
  N   1.49618469126001      0.95129159341302      0.49993030837889
  O   1.34259327261324      1.17697731508271      1.69704360050022
  O   2.47967230483540      1.28450781709864     -0.16858504340876
  N   0.68844286492077     -0.07606596845954     -1.55339473721701
  H   0.01204558371104      0.37301804984632     -2.16120195824139
  H   1.63138521584667      0.17068017366813     -1.82428889637086
  C   -1.05095853607608      0.03407253096140      1.74502750945420
  N   -1.50348215562742      0.18704885447497      2.82153505409810
  N   -1.57140106307456     -0.99000552812934     -0.35051198146752
  H   -1.12111994939440     -1.50632301915290     -1.09851956493835
  H   -2.20780530421283     -1.54971331888774      0.19774226670257
