13
Coordinates from ORCA-job run
  C   0.46299764156118      0.26021303747729     -0.16540258512584
  C   -0.74446264446733     -0.19035797688900      0.30916409266781
  N   1.32512725096919     -0.61267821928535     -0.93884490350520
  O   2.31777090199028     -0.09754186464217     -1.46191570053068
  O   1.01241998800768     -1.80404586252969     -1.06909237467262
  N   0.87680066557935      1.58088555516938     -0.03205345497972
  H   1.04636462469496      1.85745003284139      0.92623343435312
  H   1.68491102417087      1.76946169587129     -0.60827378976982
  C   -1.55569910464982      0.80692753477994      0.94578982597205
  N   -2.24404975329748      1.60693440594071      1.46872748239078
  N   -1.20998067101970     -1.48067499690784      0.39252019341783
  H   -0.75947015550108     -2.13310490902672     -0.23394094378449
  H   -2.21172976803809     -1.56346843279925      0.46708872356679
