13
Coordinates from ORCA-job run
  C   0.53758894507455      0.07550492074097     -0.24370427966452
  C   -0.65202998851404     -0.15460322541484      0.38325683670008
  N   1.75290825289911     -0.66276888576313      0.09367918585339
  O   1.77061584386163     -1.31157506441873      1.13577933950085
  O   2.67878378963005     -0.57911538914281     -0.71725164619221
  N   0.69969986630384      1.05022326430492     -1.19006585180641
  H   -0.16180211646440      1.24043635680469     -1.68852157391307
  H   1.51096112905652      0.90802531990469     -1.77500470735491
  C   -0.89250083918127     -1.16489872542276      1.35369793561968
  N   -1.25125254360183     -1.97255802032766      2.13459941091203
  N   -1.73407537631582      0.66268587624333     -0.03820505036906
  H   -2.62490214220393      0.29137857104792      0.26091008293285
  H   -1.63399482054441      1.61726500144342      0.29083031778129
