13
Coordinates from ORCA-job run
  C   0.47021117950444      0.23669383474057     -0.22293339228651
  C   -0.69662655624878     -0.19588534200786      0.36733544676755
  N   1.38435988091354     -0.70144353374235     -0.83117009163510
  O   2.35349764148036     -0.22734432958378     -1.43018453559154
  O   1.14020461376748     -1.91218482980258     -0.74383309329319
  N   0.94137786286652      1.53788874420794     -0.21828323513951
  H   0.25314939872822      2.23784089102768      0.01484845921484
  H   1.50160628357327      1.75641599925456     -1.02762911630288
  C   -1.53886287288442      0.84552850398338      0.86661081841563
  N   -2.20146638748487      1.73399222545644      1.26667776745906
  N   -1.20785082052703     -1.47601592238345      0.45443083646418
  H   -0.54439044396837     -2.21633898933850      0.29457383741940
  H   -1.85420977972035     -1.61914725181205      1.21055629850808
