13
Coordinates from ORCA-job run
  C   0.43046215762274      0.25481264576492     -0.28658858175565
  C   -0.70752737878309     -0.16715681478859      0.36169429827069
  N   1.16642752705505     -0.63989873490684     -1.15329524747860
  O   0.65351260957850     -1.72056514473821     -1.47155229432890
  O   2.29307473724016     -0.27418291365766     -1.49702264843354
  N   0.95928407266684      1.53369996980167     -0.25180653720017
  H   1.96910968905589      1.54229900079375     -0.23862627264562
  H   0.54572403967842      2.13251938370077      0.44809162525222
  C   -1.25513684008653      0.76751070921921      1.29653115024177
  N   -1.66479009354009      1.54462738226486      2.08192005759991
  N   -1.45971115112874     -1.30858841443650      0.14339130364885
  H   -1.94476662671999     -1.64593898654008      0.96096286104346
  H   -0.98466274263905     -2.01913808247740     -0.39269971421442
