13
Coordinates from ORCA-job run
  C   0.47455896280018      0.23928241189489     -0.19120283027334
  C   -0.69733122726282     -0.20616235024362      0.37700091831060
  N   1.24322323178368     -0.61229494346995     -1.07004194560565
  O   2.25483601089762     -0.12350283079589     -1.58206098008726
  O   0.84964982430185     -1.76850731717071     -1.27165348962415
  N   1.09402278585755      1.44561736969808      0.09844655907738
  H   0.45656725403873      2.18994216080031      0.34122178870595
  H   1.75522961021591      1.70882166216383     -0.61818939708410
  C   -1.34983716662220      0.74077843742861      1.22604021897694
  N   -1.85824548435753      1.54298141325561      1.92377929452441
  N   -1.38987052326797     -1.37973246014027      0.13502915894093
  H   -0.82742770809520     -2.12170969559689     -0.25140010598000
  H   -2.00537557028980     -1.65651385782401      0.88403081011829
