13
Coordinates from ORCA-job run
  C   0.49315580092193      0.23251532303214     -0.11347524465556
  C   -0.80198467170022     -0.14173270310099      0.15799004473985
  N   1.46243965370470     -0.74267582099266     -0.57035119659082
  O   1.13765353941392     -1.93748041191447     -0.60265489951037
  O   2.55645581348730     -0.31324008168685     -0.94908428248234
  N   0.90933041595822      1.55576662008995     -0.06778129363936
  H   0.95639964612323      1.94947616616932      0.85926770631108
  H   1.76596937682052      1.68736353004754     -0.58464752759457
  C   -1.68798523728982      0.94088781748775      0.48254529701549
  N   -2.42671925704693      1.81291060830924      0.76339326418724
  N   -1.30490309861940     -1.40314283141378      0.36153745530708
  H   -2.30506623455238     -1.48939533350132      0.28889527358642
  H   -0.75374574722104     -2.15325288252587     -0.02463459667414
