13
Coordinates from ORCA-job run
  C   0.46340587433419      0.25749021757264     -0.18098464899437
  C   -0.73567013026609     -0.16245567349851      0.33906564623175
  N   1.26436121809465     -0.63152110472381     -1.00302323370905
  O   0.87360552356394     -1.79377399530779     -1.18011472098788
  O   2.28918975351711     -0.16244155671786     -1.50293727142644
  N   0.93188224810421      1.55802153354056      0.00502774895119
  H   1.56148086288162      1.82074311925157     -0.74083937395248
  H   1.38970547450416      1.68975222066911      0.89832806681342
  C   -1.49304558740080      0.83173654682786      1.04757473425817
  N   -2.16903508407556      1.59542383956733      1.63511249186714
  N   -1.26226608785297     -1.42425363153911      0.38020225912972
  H   -2.25089337550617     -1.48429207860223      0.56186429693490
  H   -0.86372068989828     -2.09442943703978     -0.25927599511608
