13
Coordinates from ORCA-job run
  C   0.48184653227369      0.14634227461501     -0.22550513046890
  C   -0.65369635500138     -0.28103702754766      0.39862750293580
  N   1.79680864926558     -0.40118449574155      0.07843401405449
  O   2.73562611414757      0.04446411399107     -0.58892104123193
  O   1.89002961389143     -1.26757102026237      0.94356088681799
  N   0.39957941759253      1.08506341566399     -1.24766459425990
  H   1.28326428649917      1.17334331635583     -1.73206736836907
  H   0.07994242103193      1.98822223140779     -0.91492656788686
  C   -0.69748023440093     -1.16505599127124      1.51803223869791
  N   -0.89700952528866     -1.87764332263453      2.43430024028417
  N   -1.86820062973310      0.27775582969324      0.01421996359485
  H   -1.87322159598632      0.54091009808406     -0.96533721346863
  H   -2.67548869429151     -0.26260942235366      0.28824706930009
