13
Coordinates from ORCA-job run
  C   0.53326718547879      0.12175847554272     -0.06153121569616
  C   -0.79853475455711     -0.17093535063046     -0.01537275104419
  N   1.25412179444536      0.29826908904293     -1.31522072563275
  O   0.63438812221870      0.20418568059691     -2.37105915841566
  O   2.46631003403612      0.51272260936532     -1.21622103959511
  N   1.26980936129220      0.18421898678495      1.11658810486454
  H   0.99602483751126      0.96767424051894      1.69960654797356
  H   2.26226732077521      0.21393130172791      0.92275117220685
  C   -1.68183359914896     -0.17556564421724     -1.13660230311822
  N   -2.52701129434250     -0.22080318196670     -1.95551304604372
  N   -1.39253014925665     -0.35489028024774      1.22834071814561
  H   -0.74256224077856     -0.73448585123073      1.90820401094783
  H   -2.27371661767384     -0.84608007528681      1.19602968540743
