13
Coordinates from ORCA-job run
  C   0.54298155493884      0.09293513314257     -0.26536807031469
  C   -0.63929053543361     -0.19016608984725      0.35280222656859
  N   1.83140716584333     -0.34368534994132      0.28934647441723
  O   1.83325397199162     -1.27585043115747      1.08761737540126
  O   2.82290849844740      0.27796325792565     -0.09681375650054
  N   0.64685165432620      0.73950475627817     -1.45678961205800
  H   -0.19629567283692      1.24824163091506     -1.69038401105335
  H   1.52309834928508      1.21956816361273     -1.60054243667976
  C   -0.77929717919790     -0.89520857312063      1.58032042107292
  N   -1.05052761638222     -1.43154214129247      2.59516580625909
  N   -1.80547918755338      0.31533130127071     -0.30771416871672
  H   -2.47626886648637      0.65488463531840      0.37018164155080
  H   -2.25334213694210     -0.41097629310414     -0.85682188994684
