13
Coordinates from ORCA-job run
  C   0.40945380668664      0.26302756149765     -0.31156035672069
  C   -0.69654129543957     -0.20713340621909      0.35867137879989
  N   1.32407001738293     -0.64758759781842     -0.96543415375096
  O   0.99774654772360     -1.83500804388440     -1.09093523731997
  O   2.40494181024622     -0.17852152729522     -1.32979889784403
  N   0.74284738907344      1.59339918668325     -0.49686544686098
  H   0.19380630680432      2.23862514568898      0.05241758191977
  H   1.73666965930872      1.76402183021002     -0.43948606095729
  C   -1.43830995425859      0.78219725741062      1.07868465727572
  N   -2.01529437305823      1.61123405956576      1.68547891037156
  N   -1.25813305932679     -1.47174422846273      0.32877213596346
  H   -1.75267509945883     -1.72522999952703      1.17032663399768
  H   -0.64958175568384     -2.18628023784939     -0.04127114487416
