13
Coordinates from ORCA-job run
  C   0.48696148793699      0.25164537528786     -0.20086237319809
  C   -0.70955026216993     -0.19818005047455      0.29838347853119
  N   1.42053412452620     -0.68528037258427     -0.79926065252119
  O   1.45993751048021     -1.84125159661851     -0.38468737545736
  O   2.12478686431363     -0.22799288466619     -1.70183650838379
  N   0.99078987733294      1.53115896959261     -0.12020206803343
  H   1.58603440615209      1.79046355693198     -0.89275404180946
  H   0.30409641758132      2.23436597411662      0.12126998484820
  C   -1.59337403849674      0.80769152299383      0.79543424831650
  N   -2.31934500139095      1.64884397721775      1.18748306392905
  N   -1.13453445890148     -1.53345895814395      0.29882169520437
  H   -2.09634340378327     -1.62689442741726      0.59964090900919
  H   -0.51799352358101     -2.15111108623592      0.79956963956484
