13
Coordinates from ORCA-job run
  C   0.47296042962799      0.26239073504725     -0.13224215760881
  C   -0.74113957183648     -0.17396096883868      0.33500287514116
  N   1.36284084332801     -0.64860220884211     -0.83651516070407
  O   1.03120432327968     -1.83645182902324     -0.95939086409407
  O   2.40816475390346     -0.17215898913352     -1.28073516140309
  N   0.86098794738151      1.59807209197144      0.02181967593485
  H   1.07883301094573      2.01886147436428     -0.87353784847700
  H   1.68433026505586      1.67774990037555      0.60746478268008
  C   -1.56892166644012      0.81621966611040      0.97428202473644
  N   -2.32464454237034      1.54890779846863      1.49895670705315
  N   -1.24870413834887     -1.43524946672000      0.35501764002784
  H   -0.77498038416312     -2.12154681770654     -0.21148588292168
  H   -2.23893127036330     -1.53323138607346      0.50336336963520
