13
Coordinates from ORCA-job run
  C   0.46389083792611      0.21958214411878     -0.23852087933012
  C   -0.67622472512411     -0.16557573212834      0.42925517399486
  N   1.21134694951204     -0.72511052758094     -1.03634041721816
  O   2.19287629474018     -0.29094080133480     -1.64634504839156
  O   0.82789447486137     -1.90127715609540     -1.08139581275862
  N   1.07607686261175      1.45871523743292     -0.12794805514526
  H   1.68392164465360      1.64693111148624     -0.91237143631375
  H   0.44228734215105      2.21817256501635      0.07449687992093
  C   -1.31806823499755      0.87232588281956      1.17379352804949
  N   -1.82850566034880      1.74687558971763      1.77693079266970
  N   -1.35349971437511     -1.37075942019062      0.36873826110221
  H   -0.79524542539921     -2.14444611353566      0.04270629302545
  H   -1.92575064621133     -1.56449277972570      1.17600072039482
