13
Coordinates from ORCA-job run
  C   0.54400600318423      0.10699948032804     -0.16033142443912
  C   -0.68470189266297     -0.26472477829288      0.31249080033655
  N   1.78196311260411     -0.38537447359171      0.45554485552410
  O   2.82870737494517      0.12977543859992      0.06601179673806
  O   1.70143092759721     -1.32388424178693      1.24569558378255
  N   0.75569282831865      1.02512296848566     -1.15781343035718
  H   -0.02931592455814      1.58905481899143     -1.43019151350298
  H   1.38764653616303      0.78153262466743     -1.90553306957038
  C   -0.88028773702566     -0.90541308684017      1.57410736312378
  N   -1.15803549475836     -1.39488184087079      2.60842153861129
  N   -1.86707788766495     -0.05507545285676     -0.40262505947527
  H   -1.76381424906497      0.33033804094239     -1.32939801116424
  H   -2.61921359707735      0.36653050222437      0.12362057039283
