13
Coordinates from ORCA-job run
  C   0.49093503070712      0.24365776538451     -0.14864613104016
  C   -0.73936994638900     -0.20181608191649      0.27763269210479
  N   1.34611207468594     -0.60064449803758     -0.95134279793844
  O   2.45910567471579     -0.15370160109733     -1.24319004823123
  O   0.93446296224457     -1.71884933425230     -1.28474661341725
  N   0.97721705735184      1.53268152593219      0.01002636183120
  H   0.59940940103191      2.01871762504139      0.81136437237307
  H   1.98598688546204      1.56218564596808     -0.02962692210606
  C   -1.47302898491905      0.73133596189461      1.07509050347172
  N   -2.05300093131839      1.52613531227258      1.72334415261514
  N   -1.30284978388803     -1.45970555030351      0.14994089817592
  H   -0.91622439447525     -2.01540494352058     -0.59756576899200
  H   -2.30975504520950     -1.46459182736558      0.20771930115329
