13
Coordinates from ORCA-job run
  C   0.49384078253828      0.16131444440723     -0.18692218067871
  C   -0.69461846180822     -0.20447628459178      0.37496373689369
  N   1.60024655301433      0.69311740154114      0.59650893478530
  O   1.46289185001743      0.80309569143586      1.81191537682000
  O   2.62572279908173      0.97146919295970     -0.03294303485946
  N   0.71514016327091     -0.04395630108503     -1.54253554405848
  H   1.67942317524026      0.14148938006824     -1.78595891261669
  H   0.08513645151584      0.49945670839008     -2.12281490019880
  C   -1.07964667942445      0.04527396951074      1.72534241921458
  N   -1.53674575454351      0.18420088603004      2.80212133224888
  N   -1.67711641894673     -0.73846741098596     -0.45570095266048
  H   -1.27550468657154     -1.26914642385253     -1.22164118109472
  H   -2.39976977338432     -1.24237125382774      0.03766490620488
