13
Coordinates from ORCA-job run
  C   0.49530598190461      0.24742149260959     -0.18277404793416
  C   -0.68201483698706     -0.18296409061737      0.33118464824822
  N   1.41214269766802     -0.72334447155491     -0.81062421543322
  O   1.73319538154105     -1.71471166526102     -0.15246504940515
  O   1.80839862320327     -0.43398017715986     -1.93664470867136
  N   1.01513762646867      1.51511430882414     -0.14286347735485
  H   0.36580087006217      2.25756718261133      0.08565528220749
  H   1.64495217573387      1.72474195372497     -0.90704277104015
  C   -1.52950635535329      0.82783830509713      0.91106605826749
  N   -2.22617093375232      1.65799602271350      1.37390514566779
  N   -1.08427541401085     -1.54303397297206      0.25010255305628
  H   -0.88344180382007     -2.03137585555319      1.11986842270730
  H   -2.07052401265808     -1.60226903246226      0.06263215968432
