13
Coordinates from ORCA-job run
  C   0.52556099399117     -0.09922368227819     -0.18750954111997
  C   -0.78345645562607     -0.10727439314846      0.23685643724624
  N   1.53127775715804      0.66089596573611      0.52185371795510
  O   1.23400081827956      1.16528011761079      1.61316443313685
  O   2.63139864082202      0.78479983757548     -0.02328705668624
  N   1.03185266696719     -0.82998357525120     -1.24999719146611
  H   1.87462367406203     -0.41678188506385     -1.62050330288079
  H   0.35087207927023     -1.04508187028638     -1.96561553230157
  C   -1.68190251973402     -0.82878717430030     -0.61064699208786
  N   -2.39239235373208     -1.40563360782901     -1.35331688534910
  N   -1.32577296198666      0.39135171344332      1.40886181865051
  H   -0.71780633494125      1.01830457185550      1.91219043163393
  H   -2.27925600453016      0.71013398193619      1.31994966326899
