13
Coordinates from ORCA-job run
  C   0.57512350123128      0.01229281040923     -0.18027132103136
  C   -0.71750361597284     -0.21541356033829      0.22509762776089
  N   1.46018873647563      0.82552468839340      0.63237936604141
  O   2.67088116077530      0.72413984976896      0.43913657230945
  O   0.93152052092493      1.59689547486202      1.44256650547763
  N   1.15482251117740     -0.48189732530715     -1.33453770109310
  H   0.56879071239321     -1.09979591703953     -1.87459223837559
  H   1.67087589247159      0.17628993126055     -1.90154760482294
  C   -1.51233932628227     -0.96061726139877     -0.70228573805742
  N   -2.15558316964294     -1.56279365771971     -1.48629412195855
  N   -1.29832249309018      0.08447814429360      1.45531084648734
  H   -1.05917396148472      1.00447607186543      1.78973327307232
  H   -2.28828046897640     -0.10457924904972      1.49330453418993
