13
Coordinates from ORCA-job run
  C   0.47704165726968      0.09993287195750     -0.25590888965438
  C   -0.69437670376936     -0.25012608674797      0.34936432919902
  N   1.26439581725670     -0.84075121745129     -1.04232870606905
  O   2.28007436083114     -0.38261143971617     -1.57482642111531
  O   0.87029765509951     -1.99904586743879     -1.14544807658775
  N   0.92093232524843      1.41672566464136     -0.19704791375834
  H   1.18857144368955      1.69010515990548      0.74226526337927
  H   1.68342120486168      1.57170835415849     -0.84358359913539
  C   -1.21250385911684     -1.57708683168182      0.44006810536499
  N   -1.76649808511906     -2.60450217379035      0.59633838283073
  N   -1.39326560564036      0.72458120712612      1.05270967623727
  H   -2.36320060228489      0.49890692081854      1.21723957512938
  H   -1.25388960832616      1.65016343821892      0.66215827417955
