13
Coordinates from ORCA-job run
  C   0.47541249764976      0.15086119036563     -0.21232747337495
  C   -0.67189606641896     -0.25070280487455      0.40709348451723
  N   1.62503732668895      0.65464036809186      0.53252643518542
  O   2.53938516564638      1.13122620282743     -0.14607798899758
  O   1.60839219009818      0.59839345071487      1.75834177355138
  N   0.53628383953354      0.16406662651756     -1.60725630906552
  H   1.23717329688886      0.82301389280049     -1.92131461798751
  H   0.74128055445152     -0.75104922006960     -1.99422334159114
  C   -0.85467417499189     -0.35822170617352      1.82177429403303
  N   -1.17337513168660     -0.48155100067411      2.94840930135214
  N   -1.73076365340869     -0.69996699952063     -0.36121441905921
  H   -1.69696931316280     -0.34256490359865     -1.30850709051464
  H   -2.63428653128824     -0.63914509640680      0.08377595195135
