13
Coordinates from ORCA-job run
  C   0.47882806852771      0.15151775776579     -0.17854819162649
  C   -0.71224480121081     -0.29415189007995      0.31480176708258
  N   1.74267895388106     -0.08374088595327      0.51286825779829
  O   1.75710738503857     -0.81505731948478      1.50025894569910
  O   2.72654366785444      0.49426250852956      0.04168151097598
  N   0.48858764593833      0.88241784128561     -1.37681474296205
  H   0.82758530090432      0.31391011758918     -2.14587355418674
  H   1.10930126760753      1.67937290053244     -1.29689549953999
  C   -0.86428238654915     -1.05822432008797      1.51953111619269
  N   -1.16031582209583     -1.66822895158288      2.48087624267949
  N   -1.87432794488643     -0.10169823539140     -0.39027432573069
  H   -2.72854511959352     -0.09256457376524      0.14289306940004
  H   -1.79191621541622      0.59118505064292     -1.12350459578223
