13
Coordinates from ORCA-job run
  C   0.48186348967321      0.22985921023360     -0.21880352789825
  C   -0.62189136624409     -0.19833666273903      0.48233844166032
  N   1.26546518225385     -0.69580407995760     -1.00735349391654
  O   2.07673393123602     -0.20272342995129     -1.79472429705484
  O   1.06184762404443     -1.91015264769304     -0.88091839330508
  N   0.99867487778909      1.51404302627545     -0.21642680675555
  H   1.35394365261914      1.79756414996714     -1.11830839065524
  H   0.39399402729676      2.20179711594982      0.20900894578811
  C   -1.38789648804295      0.83946257198625      1.10169618615205
  N   -2.01567361843265      1.71678358875738      1.57594042553061
  N   -1.01876199661241     -1.49187511987308      0.77412318815152
  H   -2.01512886880588     -1.60303970742889      0.88514207052722
  H   -0.57217044677451     -2.19857801552671      0.20928565177567
