13
Coordinates from ORCA-job run
  C   0.55552161112148      0.18325076975810     -0.15230089194012
  C   -0.66421673606680     -0.27740465083568      0.24807956191667
  N   1.75912528504482      0.02021796100081      0.67188924119076
  O   2.71823712364426      0.73486127438957      0.37371610866333
  O   1.72678551171716     -0.78722527209491      1.59509053966411
  N   0.78296974463373      0.77873800161869     -1.35508637545124
  H   1.60010597053596      1.37172761810643     -1.37458841795010
  H   -0.06161275942739      1.16093397130827     -1.76193442853746
  C   -0.93598268476525     -0.93540833639910      1.47934382757907
  N   -1.31121284933975     -1.47948907842772      2.45677147298604
  N   -1.73271937283726     -0.04023597769173     -0.67006667897488
  H   -1.82687770151665     -0.80367303017760     -1.33208261793634
  H   -2.61012314274430      0.07270674944489     -0.17883134120984
