13
Coordinates from ORCA-job run
  C   0.33690616244968      0.30413609757870     -0.32249441751114
  C   -0.60259721240766     -0.22108258361768      0.52858351851098
  N   1.17517015638627     -0.57268344795962     -1.12709120852449
  O   0.99151765476176     -1.79707728890074     -1.07017618191793
  O   2.03722176022426     -0.03338150822725     -1.82223569591983
  N   0.53439380326005      1.68671578624208     -0.40574992259291
  H   0.28941941179231      2.04153547883300     -1.32267997140751
  H   1.50266956184852      1.92685865395850     -0.23068185412866
  C   -1.34812778701598      0.72727157142135      1.31521707524182
  N   -2.00181752148279      1.41623554156350      2.00903377206456
  N   -0.99546784616060     -1.51403740078383      0.67832393150752
  H   -0.40606185660625     -2.21738803189813      0.26112298596136
  H   -1.51422628704957     -1.74810286820988      1.50782796871623
