13
Coordinates from ORCA-job run
  C   0.43896047976849      0.26887614498377     -0.21180155364511
  C   -0.74043384252245     -0.15948959368580      0.34357968889381
  N   1.35690840608083     -0.68342349698979     -0.81930602947257
  O   2.42521695499367     -0.23601568551970     -1.23844890643662
  O   1.03090298597846     -1.87773551027982     -0.87798017649653
  N   0.80154548737365      1.61941130108198     -0.16840836301615
  H   1.71004128544848      1.73901454328461      0.26285926926261
  H   0.84495505645647      2.02171873824507     -1.09736909269295
  C   -1.55400847876826      0.85323107973946      0.96528101232447
  N   -2.28213258969550      1.60049236534111      1.50813651641810
  N   -1.29887857683304     -1.39925014786812      0.31931474319069
  H   -0.70065885727520     -2.15845017469665      0.03269216043158
  H   -2.03241831100560     -1.58837956363612      0.98145073123868
