13
Coordinates from ORCA-job run
  C   0.49025350211591      0.25186403690036     -0.17102895604934
  C   -0.71011438339882     -0.19239330862308      0.28875389675554
  N   1.45857214526078     -0.69335785616975     -0.73149823859686
  O   1.68226838196558     -1.73721320967273     -0.12892107859179
  O   2.00071710335594     -0.32236988260730     -1.77722920952144
  N   1.01701225083173      1.52125712892725     -0.09203520091404
  H   0.32977235780565      2.24256348048890      0.09984833485039
  H   1.59493609918738      1.75274870789899     -0.88438678342465
  C   -1.59290804954579      0.80720351356560      0.80267822842514
  N   -2.32328218268976      1.64355393586916      1.20027343593021
  N   -1.06819036135284     -1.55984854916076      0.24584832807133
  H   -2.05575366643183     -1.66354420767360      0.05017257093583
  H   -0.82128319710394     -2.05046378974304      1.09952467212967
