13
Coordinates from ORCA-job run
  C   0.46833295952718      0.11564693896385     -0.23767689878422
  C   -0.70792331868448     -0.10265133053488      0.41774526523937
  N   1.61891461320975      0.73292403900761      0.41549429294977
  O   2.67296819040162      0.71425515141609     -0.22713991621524
  O   1.48413245111075      1.20059978374337      1.54318070371881
  N   0.60379457095638     -0.32212294459599     -1.56125092475780
  H   0.35808521738523      0.40481738586309     -2.22585821130542
  H   1.55897766852738     -0.60472222678822     -1.74156178467465
  C   -0.99098775721825      0.30945910440811      1.76058727623977
  N   -1.36897853960368      0.56203796360780      2.84606034068429
  N   -1.76863869313029     -0.67623504724324     -0.25001116412806
  H   -1.48026767184710     -1.19163278108580     -1.07300640604985
  H   -2.44740969063453     -1.14237603676179      0.33243742708321
