13
Coordinates from ORCA-job run
  C   0.54442587776350      0.19030990636809     -0.18309085854722
  C   -0.64251930490399     -0.28130076391479      0.29686222028677
  N   1.82357972338346     -0.44969694683388      0.13486580370316
  O   1.87012642302355     -1.20547316291713      1.10058575327049
  O   2.76377057626690     -0.17913137149647     -0.61521473891635
  N   0.65591167972128      1.31237670146660     -0.94848639114460
  H   -0.21719278354143      1.54571883822625     -1.40503002038958
  H   1.48045460172947      1.33444269179100     -1.53022079107546
  C   -0.80272386444299     -1.43904048543059      1.10663134066706
  N   -1.08915304688303     -2.38646961276054      1.74753547806699
  N   -1.79499852659222      0.46085198746706     -0.10420042586453
  H   -1.97611940712477      1.22946096175895      0.53420497275309
  H   -2.61556194839973     -0.13004874372456     -0.13344234280982
