13

C	-0.439985	-0.027708	-1.472755
C	0.0	0.0	0.0
Cl	0.026095	1.499838	-2.258242
H	1.097024	0.0	0.0
H	0.166952	-0.798782	-1.960668
N	-1.871546	-0.18803	-1.587503
H	-2.138281	-1.077518	-1.178006
H	-2.132872	-0.198314	-2.56643
C	-0.446789	-1.242324	0.632959
N	-0.848396	-2.253957	1.07517
C	-0.533247	1.152102	0.721106
N	-0.950385	2.076637	1.312011
Br	3.34957	0.0	0.0
