13

C	-0.557987	-0.049093	-1.436659
C	0.0	0.0	0.0
Cl	0.096208	-1.488104	-2.266391
H	1.095745	0.0	0.0
H	-1.639521	-0.233053	-1.37965
N	-0.176019	1.128624	-2.162152
H	-0.607289	1.130459	-3.077422
H	-0.448498	1.964828	-1.659565
C	-0.482049	-1.150218	0.765446
N	-0.902295	-2.065857	1.368579
C	-0.469669	1.230349	0.640959
N	-0.876048	2.237459	1.089675
Br	3.365618	0.0	0.0
