13

C	-0.438977	-0.017134	-1.473126
C	0.0	0.0	0.0
Cl	0.023643	1.517238	-2.246393
H	1.097385	0.0	0.0
H	0.169625	-0.78363	-1.967036
N	-1.871219	-0.179872	-1.590386
H	-2.130126	-0.189152	-2.570048
H	-2.135807	-1.071769	-1.1847
C	-0.444917	-1.248031	0.623519
N	-0.836111	-2.268449	1.054967
C	-0.534761	1.145318	0.730958
N	-0.958934	2.058923	1.333599
Br	3.350419	0.0	0.0
