17

C	0.0	0.0	0.0
C	-0.091563	0.137542	-1.596025
Br	2.143239	0.0	0.0
H	0.667639	0.865791	-1.893213
N	-0.510654	1.119991	0.679189
H	-1.541061	0.954988	0.637074
H	-0.281665	1.966736	0.172184
N	-0.530956	-1.172251	0.547508
H	-1.560496	-0.99145	0.521246
H	-0.305964	-1.969022	-0.035001
C	-1.436106	0.605551	-2.170562
H	-2.26677	0.039469	-1.753162
H	-1.603746	1.645652	-1.881369
H	-1.383623	0.555433	-3.26294
C	0.281069	-1.133671	-2.216532
N	0.517345	-2.164353	-2.730737
F	-2.888118	0.0	0.0
