17

C	0.0	0.0	0.0
C	-0.183491	0.028459	-1.577566
Br	2.035271	0.0	0.0
H	0.534584	0.771102	-1.931645
N	-0.685297	1.083024	0.553455
H	-0.536836	1.081808	1.560467
H	-1.751472	0.728023	0.372602
N	-0.373005	-1.271542	0.532219
H	0.242593	-2.019678	0.24394
H	-0.434371	-1.230037	1.540851
C	-1.547882	0.407777	-2.167005
H	-1.449735	0.401586	-3.259301
H	-2.331298	-0.248523	-1.799723
H	-1.809195	1.411889	-1.83405
C	0.230814	-1.261527	-2.137122
N	0.515995	-2.306927	-2.592117
F	-2.947299	0.0	0.0
