17

C	0.0	0.0	0.0
C	-0.135987	-0.037373	-1.594611
Br	2.045955	0.0	0.0
H	0.568208	0.705935	-1.982778
N	-0.690327	1.051135	0.613049
H	-1.736776	0.724735	0.458544
H	-0.537022	1.910073	0.09606
N	-0.442731	-1.22092	0.55001
H	-0.831096	-1.08057	1.471183
H	0.242204	-1.95975	0.515933
C	-1.51855	0.265056	-2.177141
H	-1.751124	1.321604	-2.023272
H	-2.294865	-0.286576	-1.644416
H	-1.492217	0.068872	-3.254789
C	0.320339	-1.338136	-2.089503
N	0.647473	-2.386873	-2.507548
F	-2.99367	0.0	0.0
