17

C	0.0	0.0	0.0
C	-0.199278	0.008283	-1.580439
Br	2.003918	0.0	0.0
H	0.498921	0.771418	-1.940215
N	-0.504695	1.15629	0.662593
H	-1.533111	0.991422	0.577337
H	-0.245074	1.996553	0.156032
N	-0.528878	-1.20344	0.544641
H	-0.379493	-1.157872	1.54832
H	-1.552854	-1.043395	0.389351
C	-1.557206	0.363186	-2.20157
H	-1.379209	0.499804	-3.274674
H	-2.312931	-0.387065	-2.01181
H	-1.937674	1.288696	-1.775725
C	0.260677	-1.260193	-2.156566
N	0.579548	-2.246318	-2.710409
F	-2.854519	0.0	0.0
