17

C	0.0	0.0	0.0
C	-0.540408	0.083316	-1.426566
Br	2.024197	0.0	0.0
H	-1.643119	0.101277	-1.156616
N	-0.335525	1.219588	0.685654
H	0.131266	2.012154	0.270142
H	-0.05597	1.150739	1.655586
N	-0.548583	-1.157707	0.604206
H	-1.582121	-0.889639	0.533887
H	-0.272537	-1.189582	1.582158
C	-0.173629	-1.115315	-2.296587
H	-0.746326	-1.095861	-3.227201
H	0.894336	-1.119035	-2.538858
H	-0.41293	-2.025215	-1.747166
C	-0.176564	1.337688	-2.070289
N	0.131021	2.337327	-2.608556
F	-2.84569	0.0	0.0
