17

C	0.0	0.0	0.0
C	-0.465707	0.078275	-1.473864
Br	2.004179	0.0	0.0
H	-1.560431	0.161836	-1.316952
N	-0.469422	1.188339	0.643354
H	-1.497008	1.070978	0.542712
H	-0.252062	1.088019	1.630885
N	-0.45378	-1.177594	0.690558
H	-1.482751	-1.065735	0.606522
H	-0.154238	-2.017376	0.206799
C	-0.166624	-1.160169	-2.314711
H	0.904211	-1.375954	-2.344472
H	-0.699389	-2.021215	-1.907704
H	-0.518357	-1.009089	-3.338306
C	0.024146	1.27834	-2.144011
N	0.372896	2.221057	-2.753193
F	-2.8127	0.0	0.0
