12

C	-0.574471	-0.133952	-1.39289
C	0.0	0.0	0.0
F	-1.93138	-0.57428	-1.260101
H	1.08941	0.0	0.0
H	-0.381922	0.893348	0.493645
H	-0.343909	-0.876793	0.555584
C	-0.71552	1.165904	-2.092721
N	-0.850381	2.193863	-2.641315
N	0.177478	-1.021841	-2.185564
H	-0.357044	-1.418043	-2.94445
H	0.664815	-1.717166	-1.639018
Cl	3.5355	0.0	0.0
