13
Coordinates from ORCA-job run
  C   -0.96389539396313      0.92658883556937     -0.30671242102394
  C   -0.08488283105463     -0.31291644882394     -0.25747658842731
  Br  -2.79073302711168      0.53234655372666     -0.83299245394390
  H   -0.19416974056251     -0.84199093480007     -1.20997099728834
  H   -1.01651649522051      1.40090383739690      0.67593098836267
  H   -0.58379650970949      1.64784426352031     -1.03006571065693
  N   -0.56016220519452     -1.21113374115447      0.78722649087816
  H   -0.33771835231515     -0.82556205089637      1.69894398279878
  H   -0.09242325614477     -2.10630556389760      0.71540649217390
  C   1.37643799334366      0.12007853470424     -0.09633791209342
  H   1.50729521851517      0.68775255616137      0.83077978150342
  H   1.71510802954311      0.74292755396579     -0.92930207179426
  H   2.02445656987444     -0.75853339547220     -0.04542958048884
