13
Coordinates from ORCA-job run
  C   -1.12306843907717      0.73084953246584     -0.28178380955981
  C   -0.01180207746530     -0.30804614771325     -0.21266782521305
  Br  -0.94315826724046      1.90621123444891     -1.82372518243473
  H   0.04990479291887     -0.81037042908940     -1.19000033260398
  H   -2.09874992030828      0.25393191321505     -0.37973394226258
  H   -1.11475896103877      1.35446399908549      0.61171570181223
  N   -0.38803236548610     -1.21214684964835      0.87694714813354
  H   -1.13697275450917     -1.82697237883160      0.57971385443512
  H   0.40050808871434     -1.79711285655139      1.12706180360736
  C   1.33626603901579      0.31416462350020      0.10793963126129
  H   1.62225218298006      1.05242818557568     -0.64137916749680
  H   1.29315278359154      0.79740078406509      1.08758272150248
  H   2.11445889790466     -0.45380161052228      0.13832939881892
