13
Coordinates from ORCA-job run
  C   -1.10598807281266      0.64929625534315     -0.21856692923649
  C   0.05178733780156     -0.34462260754201     -0.29285558301752
  Br  -0.99561415396951      2.05989057905186     -1.56282215274662
  H   0.08863869458600     -0.74873808884175     -1.31025429905606
  H   -2.05812391720512      0.14669865054656     -0.39324629142004
  H   -1.13080342835018      1.14274112487157      0.75555071634135
  N   -0.16871474924539     -1.47089644961779      0.61279823144368
  H   -1.04807681887321     -1.93188214144464      0.40887490712701
  H   -0.20453026912298     -1.14422533326565      1.57245850763232
  C   1.39045783327568      0.29390685348057      0.03774959590456
  H   1.63689211779950      1.09628829366015     -0.65760459778421
  H   1.36978373428390      0.71508183868713      1.04902015590876
  H   2.17329169183239     -0.46453897492914      0.00089773890327
