13
Coordinates from ORCA-job run
  C   -1.15238005083572      0.74940073436643     -0.25785175496140
  C   -0.06517383729681     -0.31595085480892     -0.28602970696387
  Br  -0.86385344094617      2.15923245723182     -1.56908212898559
  H   -0.04467309001396     -0.74215900133984     -1.29466583693622
  H   -2.11532333405748      0.29706950307432     -0.48476640078700
  H   -1.19911328815019      1.23638291029471      0.71862088141358
  N   -0.52969012546932     -1.37551796844477      0.61601842255110
  H   0.00429272889109     -2.22082068846030      0.45164141482272
  H   -0.35624736622965     -1.09931187615231      1.57699960610872
  C   1.31754643398408      0.22869781210710      0.05847471091655
  H   2.04594003634367     -0.58602404402109      0.07670546178397
  H   1.65852796840542      0.97648717715609     -0.65928414986117
  H   1.30214736537504      0.69151383899675      1.05121948089860
