13
Coordinates from ORCA-job run
  C   -1.07432360702597      0.73195463770134     -0.56500849078913
  C   -0.04359103865779     -0.35462722838918     -0.31181325883908
  Br  -1.38659445162544      1.85931236493445      1.00157589639847
  H   0.01950593796103     -0.89342389089076     -1.26779620691230
  H   -2.03642405510739      0.28256317033648     -0.80464230546019
  H   -0.75810321241934      1.40571280042162     -1.36111504249971
  N   -0.57532799188500     -1.30298547358808      0.66271803966389
  H   -0.64187345769228     -0.84931757198354      1.56766976824603
  H   0.06657718189298     -2.08061655219436      0.76393544826206
  C   1.34221605191970      0.19940030400030      0.01450648883809
  H   1.69021363436404      0.89686879710002     -0.75360073989905
  H   2.06490143977988     -0.61830797519557      0.07970140285701
  H   1.33282356849557      0.72246661774727      0.97286900013392
