13
Coordinates from ORCA-job run
  C   -1.04455106559692      0.63392798292937     -0.54520155478605
  C   0.06983845448080     -0.38186535467329     -0.28541374536120
  Br  -1.44018190780885      1.73858176961752      1.01428747621484
  H   0.16141828357317     -0.93238618135387     -1.23275149419653
  H   -1.97906162550558      0.12910856271416     -0.79486685912778
  H   -0.78055570971004      1.32138729962127     -1.35066066340721
  N   -0.21552213879428     -1.36722397381231      0.74740577394246
  H   -0.33009069550643     -0.89652856534907      1.63835022760892
  H   -1.08408783886319     -1.85041474118114      0.54763150571470
  C   1.40771360373987      0.27992347649439      0.00701465365118
  H   2.18313451952500     -0.48457815243187      0.06633361999769
  H   1.67462816003647      0.99849693250204     -0.77192415009229
  H   1.37731796042998      0.81157094492281      0.96079520984126
