15

C	-0.520236	-0.088282	-1.421991
C	0.0	0.0	0.0
F	-0.216268	1.082591	-2.05805
H	1.090269	0.0	0.0
H	-0.296162	0.987365	0.37077
N	0.208415	-1.197104	-2.175198
O	0.729908	-0.926743	-3.24751
O	0.135334	-2.306505	-1.657431
C	-1.999014	-0.35701	-1.58985
H	-2.246022	-0.369561	-2.65484
H	-2.55661	0.446666	-1.104692
H	-2.269205	-1.308606	-1.134478
C	-0.546068	-1.012147	0.884139
N	-0.983761	-1.819393	1.618119
H	2.717953	0.0	0.0
