15

C	-0.452017	-0.129558	-1.438756
C	0.0	0.0	0.0
F	-1.786391	-0.479152	-1.524299
H	1.09101	0.0	0.0
H	-0.288711	-0.930231	0.50157
N	-0.358024	1.234468	-2.115839
O	-1.361409	1.941109	-2.086411
O	0.721701	1.534016	-2.611601
C	0.396074	-1.123633	-2.18506
H	0.191865	-2.115946	-1.776741
H	0.151204	-1.116339	-3.249745
H	1.45144	-0.883166	-2.013814
C	-0.572726	1.119478	0.723091
N	-0.998746	2.018057	1.348966
H	2.733966	0.0	0.0
