15

C	-0.523299	-0.097979	-1.418325
C	0.0	0.0	0.0
F	-0.03155	0.919736	-2.176406
H	1.090544	0.0	0.0
H	-0.318507	-0.881007	0.562007
N	-0.000228	-1.400135	-2.023978
O	-0.282105	-2.420284	-1.400582
O	0.575928	-1.347982	-3.09968
C	-2.02901	-0.127496	-1.579383
H	-2.454251	-0.96203	-1.022718
H	-2.279386	-0.224687	-2.639247
H	-2.436861	0.811098	-1.201664
C	-0.519082	1.19828	0.633706
N	-0.934841	2.175901	1.137277
H	2.72458	0.0	0.0
