15

C	-0.384926	0.036758	-1.461687
C	0.0	0.0	0.0
F	-0.182659	-1.184458	-2.031694
H	1.09347	0.0	0.0
H	-0.318617	0.928604	0.479139
N	-1.886975	0.317315	-1.608762
O	-2.595737	-0.520132	-2.154952
O	-2.270468	1.394684	-1.157475
C	0.386815	1.086717	-2.219478
H	0.130854	2.080554	-1.854145
H	0.157964	1.012111	-3.284878
H	1.447602	0.896643	-2.030084
C	-0.563244	-1.140062	0.698642
N	-1.00956	-2.05816	1.280572
H	2.753244	0.0	0.0
