15

C	-0.507705	-0.014061	-1.429616
C	0.0	0.0	0.0
F	-0.256164	1.211131	-1.981589
H	1.093043	0.0	0.0
H	-0.303247	0.961729	0.42632
N	0.282796	-1.032077	-2.246775
O	0.801173	-0.664087	-3.291678
O	0.258021	-2.17565	-1.805743
C	-1.968741	-0.345282	-1.636306
H	-2.574024	0.389404	-1.102054
H	-2.203029	-0.293713	-2.702845
H	-2.191389	-1.340327	-1.254947
C	-0.541203	-1.068904	0.81706
N	-0.993411	-1.922689	1.48692
H	2.712477	0.0	0.0
