15

C	-0.505624	0.009134	-1.430416
C	0.0	0.0	0.0
F	-0.249678	1.242037	-1.963639
H	1.093583	0.0	0.0
H	-0.303813	0.954658	0.44171
N	0.282147	-0.999235	-2.262804
O	0.263591	-2.147906	-1.832918
O	0.791149	-0.619563	-3.308128
C	-1.96752	-0.315206	-1.643932
H	-2.193553	-1.315383	-1.277513
H	-2.199674	-0.247476	-2.709983
H	-2.571682	0.413255	-1.099732
C	-0.542811	-1.080798	0.79992
N	-0.996538	-1.932104	1.472053
H	2.712188	0.0	0.0
