18

C	-0.472957	0.020766	-1.454768
C	0.0	0.0	0.0
F	0.266701	-0.851103	-2.2453
H	1.096204	0.0	0.0
C	-1.942737	-0.323299	-1.653708
H	-2.578541	0.361332	-1.088844
H	-2.193727	-0.252036	-2.714537
H	-2.103942	-1.345557	-1.315722
C	-0.213774	1.369113	-2.014834
N	-0.053027	2.421351	-2.511673
N	-0.393729	-1.221088	0.663701
O	-0.529544	-1.201541	1.901991
O	-0.427247	-2.273068	-0.004955
C	-0.391214	1.220829	0.807396
H	0.076038	1.139782	1.787649
H	0.000898	2.117643	0.325471
H	-1.473259	1.319175	0.944528
H	2.487336	0.0	0.0
