18

C	-0.406704	-0.003863	-1.45765
C	0.0	0.0	0.0
F	-1.811656	-0.007704	-1.582402
H	1.091978	0.0	0.0
C	0.133576	1.240123	-2.145773
H	-0.021817	1.166476	-3.223331
H	-0.388079	2.121187	-1.771295
H	1.202656	1.31532	-1.92443
C	0.081483	-1.168135	-2.225041
N	0.458716	-1.97458	-2.990668
N	-0.452802	-1.208687	0.696356
O	-0.56844	-2.253604	0.043493
O	-0.603866	-1.156391	1.923428
C	-0.41374	1.252209	0.747609
H	0.168804	2.098116	0.378242
H	-0.166536	1.123967	1.799132
H	-1.482674	1.46387	0.653324
H	2.582281	0.0	0.0
