18

C	-0.410842	-0.022982	-1.455379
C	0.0	0.0	0.0
F	-1.812887	0.015719	-1.58887
H	1.092002	0.0	0.0
C	0.17028	1.189433	-2.166882
H	-0.309205	2.095563	-1.795812
H	-0.006609	1.108756	-3.240955
H	1.244913	1.226155	-1.961425
C	0.047986	-1.222221	-2.186133
N	0.406881	-2.070325	-2.91473
N	-0.457883	-1.189694	0.725453
O	-0.806695	-2.186153	0.078444
O	-0.392759	-1.170015	1.960567
C	-0.400309	1.270684	0.725551
H	-1.445756	1.540191	0.549792
H	-0.237748	1.124142	1.791224
H	0.255364	2.083311	0.406225
H	2.586652	0.0	0.0
