18

C	-0.423459	-0.115293	-1.477338
C	0.0	0.0	0.0
F	-0.346197	1.182532	-2.01169
H	1.091364	0.0	0.0
C	0.497411	-0.980275	-2.316371
H	0.351964	-2.035557	-2.090928
H	1.527933	-0.700411	-2.066845
H	0.281937	-0.784622	-3.368992
C	-1.8409	-0.518264	-1.620068
N	-2.960923	-0.842465	-1.768803
N	-0.394262	-1.198201	0.734497
O	-0.508729	-2.26404	0.108752
O	-0.495753	-1.118737	1.964223
C	-0.482981	1.253121	0.693489
H	-0.112072	2.118536	0.145846
H	-1.575288	1.300124	0.758185
H	-0.064814	1.275919	1.698325
H	2.622987	0.0	0.0
