18

C	-0.461933	0.029001	-1.456298
C	0.0	0.0	0.0
F	0.246898	-0.875224	-2.236909
H	1.095482	0.0	0.0
C	-1.945506	-0.255086	-1.662529
H	-2.155944	-1.262226	-1.307084
H	-2.182211	-0.191344	-2.727389
H	-2.554009	0.470348	-1.118462
C	-0.167683	1.365206	-2.02803
N	-0.02259	2.410571	-2.543578
N	-0.405891	-1.216635	0.665201
O	-0.503503	-1.196938	1.907296
O	-0.491857	-2.264013	-0.00491
C	-0.388426	1.222083	0.808214
H	-0.029394	2.123058	0.308108
H	0.110173	1.158712	1.774349
H	-1.467529	1.299575	0.97691
H	2.488307	0.0	0.0
