12

C	-0.499594	0.020191	-1.419922
C	0.0	0.0	0.0
F	-1.893555	0.076689	-1.444716
H	1.091674	0.0	0.0
H	-0.124339	0.905626	-1.934667
H	-0.394157	-0.8434	0.563347
C	-0.088717	-1.195125	-2.136869
N	0.179463	-2.168155	-2.73534
N	-0.451591	1.232457	0.697556
O	-0.787927	1.118744	1.873653
O	-0.427879	2.286049	0.065931
Br	3.422709	0.0	0.0
