12

C	-0.497676	0.054154	-1.420161
C	0.0	0.0	0.0
F	-1.890527	0.126841	-1.445491
H	1.091656	0.0	0.0
H	-0.111479	0.945822	-1.915654
H	-0.395083	-0.855069	0.544854
C	-0.099878	-1.151076	-2.161924
N	0.15497	-2.116034	-2.778956
N	-0.451781	1.218301	0.721226
O	-0.792862	1.082481	1.89375
O	-0.425809	2.284836	0.1108
Br	3.424927	0.0	0.0
