15
Coordinates from ORCA-job run
  C   0.78880904557260     -0.43369060703215     -0.09752295882545
  C   -0.57584985482465      0.20353479615736     -0.42907453567238
  H   1.54655315989366      0.12587774211126     -0.66984368182195
  H   -0.75577629624450      0.01692453176627     -1.49583290796309
  N   0.75086922983333     -1.85960689639924     -0.39523555693390
  H   0.71680681422467     -1.99493438462174     -1.39908638263403
  H   1.58151385011860     -2.32127080557782     -0.04462109192553
  C   1.10152539086615     -0.23799008615039      1.32346595660553
  N   1.37077827494208     -0.06412979974361      2.45275221982492
  C   -0.58823749210044      1.71214390615649     -0.17127415945375
  H   -0.43882685832643      1.92254072845358      0.88930263040543
  H   0.20608857221598      2.19945772627177     -0.74207981735454
  H   -1.54375709594643      2.14219599950268     -0.47452616843608
  C   -1.64108081599308     -0.46566213910462      0.32096302641566
  N   -2.51941592423157     -0.94639071178987      0.93361342776924
