15
Coordinates from ORCA-job run
  C   0.75490466038804     -0.57156961257759     -0.25158987579489
  C   -0.37349009757668      0.41569606511979     -0.64485674815710
  H   1.02457286297732     -1.14537480830607     -1.15197625142940
  H   -0.02389317728771      0.99370468099980     -1.50823431356653
  N   0.31882709748513     -1.39994082631065      0.86743616371899
  H   -0.38315379447249     -2.05569539003781      0.54139257735910
  H   1.09735894757482     -1.93417799749683      1.23385320241556
  C   1.94314859022462      0.19580220442913      0.14061434793083
  N   2.89670422149134      0.81124237157924      0.44038391245975
  C   -0.76038048718076      1.36021979873136      0.49470970663238
  H   -1.58365466483185      2.00671533058032      0.18675511624153
  H   -1.06041617455211      0.78707073095143      1.37045104273747
  H   0.09247089121999      1.98798736191760      0.75962119667543
  C   -1.52061105636048     -0.38567988045517     -1.08038017962124
  N   -2.42338781909918     -1.06600002912454     -1.39917989760187
