15
Coordinates from ORCA-job run
  C   0.74706522468097     -0.55744270733543     -0.30319230645072
  C   -0.39441664642696      0.44484517482626     -0.61210392463963
  H   0.98744696620627     -1.08685462912715     -1.23832388971209
  H   -0.07377700166990      1.06343610951411     -1.45839702269810
  N   0.34833621417005     -1.43909414885779      0.78860920008902
  H   1.13895614581994     -1.98763967081709      1.10463313732131
  H   -0.36306388471133     -2.08071751845623      0.45491342574869
  C   1.94660473567989      0.19319268643398      0.08688237428538
  N   2.90870430055431      0.79560564642009      0.38575225488923
  C   -0.74455603155708      1.33376689767338      0.58274535617302
  H   -1.57661137654598      1.99347840903393      0.33151705344071
  H   -1.01773362252926      0.71949331699657      1.43924815035887
  H   0.11658102156807      1.94884337138723      0.85073795853762
  C   -1.55475037369700     -0.33790523539993     -1.04638224466567
  N   -2.46678567154199     -1.00500770229193     -1.36663952267763
