15
Coordinates from ORCA-job run
  C   0.78611887058158     -0.43308791166800     -0.12372554918220
  C   -0.58023192321022      0.22047263476115     -0.41381210799578
  H   1.53790215748659      0.14307124743893     -0.68743465491012
  H   -0.77519732970867      0.07323735673367     -1.48407031059855
  N   0.73800488862156     -1.84776010034867     -0.46957259045726
  H   1.57312968330144     -2.32340343728558     -0.14970197352784
  H   0.68593315539234     -1.94821733463795     -1.47674414909090
  C   1.11919527016474     -0.28749345377462      1.29862814995091
  N   1.40347583800921     -0.15191276801875      2.42946148586171
  C   -0.58326320387187      1.71886805409287     -0.10166508679221
  H   0.20700308213785      2.22359706835019     -0.66286457066549
  H   -1.54025847462098      2.16307013745642     -0.37895058370747
  H   -0.42171603799115      1.88998897278496      0.96416472345699
  C   -1.63857443729929     -0.47088504322328      0.32585265968121
  N   -2.51252153899315     -0.96954542266132      0.93043455797700
