13

C	0.0	0.0	0.0
C	-0.574256	0.007124	-1.389885
F	1.350351	0.0	0.0
H	-1.626161	0.3205	-1.330123
H	-0.392292	-0.840331	0.570382
H	-0.551606	-0.998528	-1.807724
N	-0.378358	1.231813	0.803908
O	-0.063247	1.165031	1.990524
O	-0.891883	2.186678	0.239587
N	0.160408	0.864409	-2.359743
O	0.00351	0.574118	-3.545532
O	0.838606	1.801854	-1.950035
Cl	-3.457468	0.0	0.0
