13

C	0.0	0.0	0.0
C	-0.549068	-0.108876	-1.393266
F	1.350232	0.0	0.0
H	-0.216027	0.7134	-2.019685
H	-0.388766	-0.755335	0.675771
H	-1.649194	-0.142317	-1.313093
N	-0.383755	1.34099	0.582269
O	-0.676274	1.366432	1.771602
O	-0.260496	2.315545	-0.157687
N	-0.077722	-1.364167	-2.026604
O	0.088828	-1.344093	-3.245204
O	0.077008	-2.352371	-1.31086
Cl	-3.459959	0.0	0.0
