13

C	0.0	0.0	0.0
C	-0.485081	0.283901	-1.402521
F	1.35463	0.0	0.0
H	0.15445	1.035786	-1.867806
H	-0.4163	-0.886437	0.463942
H	-1.530438	0.597441	-1.392922
N	-0.336163	1.172724	0.889692
O	-0.38551	2.283061	0.366565
O	-0.391079	0.941544	2.092565
N	-0.388044	-0.925997	-2.265496
O	0.08649	-1.956152	-1.79155
O	-0.768374	-0.793833	-3.424902
Cl	-3.259291	0.0	0.0
