13

C	0.0	0.0	0.0
C	-0.584316	-0.021756	-1.385302
F	1.350417	0.0	0.0
H	-1.641625	0.272706	-1.318918
H	-0.390554	-0.823093	0.596324
H	-0.542022	-1.030115	-1.797173
N	-0.365758	1.263597	0.765501
O	0.007507	1.262019	1.936914
O	-0.929214	2.17722	0.182634
N	0.119142	0.845021	-2.371132
O	0.825708	1.767428	-1.975604
O	-0.087879	0.575576	-3.553597
Cl	-3.495337	0.0	0.0
