15

C	0.0	0.0	0.0
C	-0.371185	0.552933	-1.442902
Cl	1.824569	0.0	0.0
H	0.531073	1.006916	-1.860103
C	-0.361939	1.012315	1.007298
N	-0.529811	1.801857	1.859757
N	-0.519218	-1.262727	0.402646
H	-1.536755	-1.149863	0.487747
H	-0.338205	-1.95243	-0.319351
N	-1.379333	1.584227	-1.38718
H	-2.255899	1.200048	-1.013146
H	-1.549568	1.935607	-2.32262
C	-0.656345	-0.613448	-2.309987
N	-0.806764	-1.510558	-3.055305
Cl	-3.660029	0.0	0.0
