15

C	0.0	0.0	0.0
C	-0.360112	0.223361	-1.524812
Cl	1.786926	0.0	0.0
H	0.367878	0.965241	-1.869055
C	-0.36791	1.236846	0.722515
N	-0.62304	2.233871	1.290915
N	-0.580516	-1.197537	0.507106
H	-0.41292	-1.274981	1.504551
H	-1.595442	-1.127189	0.370642
N	-1.662828	0.70066	-1.879554
H	-1.792608	1.637876	-1.517833
H	-2.427501	0.152745	-1.47879
C	-0.053773	-1.026973	-2.242856
N	0.183295	-1.995727	-2.861626
Cl	-4.013604	0.0	0.0
