15

C	0.0	0.0	0.0
C	-0.349295	-0.119448	-1.54454
Cl	1.786796	0.0	0.0
H	0.409061	0.495241	-2.039795
C	-0.37415	1.363807	0.423903
N	-0.658749	2.461044	0.735066
N	-0.579712	-1.057927	0.756143
H	-0.418991	-0.91153	1.747072
H	-1.59298	-1.02739	0.597927
N	-1.629403	0.317051	-2.02283
H	-1.718737	1.314169	-1.868496
H	-2.409374	-0.098345	-1.507943
C	-0.092626	-1.511114	-1.953006
N	0.116196	-2.602652	-2.329879
Cl	-3.951078	0.0	0.0
