15

C	0.0	0.0	0.0
C	-0.291288	-0.000372	-1.569463
Cl	1.849414	0.0	0.0
H	0.483891	0.627252	-2.018064
C	-0.373641	1.323645	0.508604
N	-0.629074	2.415526	0.858079
N	-0.567875	-1.022889	0.792764
H	-1.567347	-0.824731	0.90296
H	-0.458275	-1.92024	0.33326
N	-1.564279	0.466853	-2.033677
H	-2.347435	0.086236	-1.491167
H	-1.61246	1.471882	-1.914185
C	-0.052572	-1.377541	-2.03127
N	0.126357	-2.487422	-2.369644
Cl	-3.859313	0.0	0.0
