18

C	-0.468576	0.015092	-1.430453
C	0.0	0.0	0.0
Cl	-2.230377	0.078617	-1.646036
H	1.096798	0.0	0.0
N	0.111952	1.182798	-2.227398
O	-0.128443	1.170933	-3.431207
O	0.777681	2.012097	-1.624889
N	0.093255	-1.215822	-2.139251
O	-0.601211	-2.223183	-2.180095
O	1.25203	-1.102902	-2.521039
C	-0.450478	-1.252976	0.727843
H	-0.08237	-2.16193	0.251715
H	-0.014525	-1.217411	1.730316
H	-1.540827	-1.311797	0.807525
N	-0.476664	1.216172	0.662314
H	-0.807599	0.971985	1.587963
H	0.334057	1.819423	0.773091
H	2.74395	0.0	0.0
