18

C	-0.523252	-0.014668	-1.408792
C	0.0	0.0	0.0
Cl	0.30634	-1.176616	-2.418339
H	1.0944	0.0	0.0
N	-2.047782	-0.27136	-1.507814
O	-2.500751	-0.711081	-2.556414
O	-2.704153	0.025521	-0.51446
N	-0.368123	1.381341	-2.030778
O	-1.393264	2.029824	-2.205789
O	0.773104	1.7323	-2.265243
C	-0.361393	-1.260337	0.777081
H	0.297246	-1.291553	1.650162
H	-0.16199	-2.165412	0.19635
H	-1.404591	-1.26684	1.10557
N	-0.359304	1.256053	0.635161
H	-1.168034	1.158754	1.234684
H	0.446385	1.554288	1.177367
H	2.715684	0.0	0.0
