18

C	-0.49145	0.01762	-1.424218
C	0.0	0.0	0.0
Cl	0.305724	1.242836	-2.371533
H	1.094367	0.0	0.0
N	-0.288752	-1.354562	-2.072687
O	-1.206008	-2.155031	-1.895293
O	0.772242	-1.574347	-2.633452
N	-2.016377	0.232719	-1.575521
O	-2.69194	0.234181	-0.554173
O	-2.443584	0.353282	-2.717002
C	-0.385307	-1.229964	0.809337
H	0.022231	-2.143938	0.37139
H	0.097238	-1.112489	1.784063
H	-1.463046	-1.344559	0.945906
N	-0.356655	1.279665	0.600384
H	0.468403	1.609559	1.094464
H	-1.12417	1.171071	1.250467
H	2.727489	0.0	0.0
