18

C	-0.380282	0.003599	-1.46395
C	0.0	0.0	0.0
Cl	0.460278	-1.237955	-2.362942
H	1.094383	0.0	0.0
N	-1.891509	-0.124329	-1.749966
O	-2.24219	-0.464227	-2.87243
O	-2.641686	0.165921	-0.822749
N	-0.030268	1.3741	-2.070496
O	-0.969564	2.119711	-2.327006
O	1.155916	1.609756	-2.20347
C	-0.452774	-1.252615	0.732367
H	-1.53871	-1.28312	0.863702
H	-0.124055	-2.160616	0.221758
H	0.025885	-1.243997	1.715593
N	-0.391193	1.263276	0.594318
H	0.339492	1.535186	1.243601
H	-1.281802	1.197667	1.068961
H	2.758464	0.0	0.0
