15

C	0.0	0.0	0.0
C	-0.543279	0.142932	-1.407338
F	1.372282	0.0	0.0
H	-0.210381	1.088609	-1.836297
H	-1.643972	0.152284	-1.329353
N	-0.333868	1.284579	0.773915
O	-0.414099	1.194224	1.993539
O	-0.381594	2.330305	0.132216
C	-0.502272	-1.204072	0.738254
H	-0.059869	-1.233832	1.732617
H	-1.591575	-1.151466	0.805437
H	-0.208705	-2.095204	0.17941
C	-0.090388	-0.961489	-2.243972
N	0.282675	-1.843259	-2.923916
Br	-3.822871	0.0	0.0
