15

C	0.0	0.0	0.0
C	-0.560651	0.112942	-1.403918
F	1.35852	0.0	0.0
H	-0.482159	-0.871882	-1.873462
H	-1.632011	0.345314	-1.310554
N	-0.333522	1.279324	0.784
O	-0.757812	2.247952	0.164319
O	-0.06365	1.252375	1.981656
C	-0.522326	-1.192652	0.747997
H	-0.190853	-2.097074	0.232351
H	-0.122823	-1.183627	1.761105
H	-1.614738	-1.150982	0.766005
C	0.145181	1.079272	-2.238154
N	0.726865	1.80581	-2.952627
Br	-3.864961	0.0	0.0
