15

C	0.0	0.0	0.0
C	-0.295356	-0.251847	-1.490215
F	1.364292	0.0	0.0
H	-0.136949	-1.323753	-1.640511
H	0.510562	0.266792	-2.015003
N	-0.347526	1.437899	0.374165
O	-0.488318	1.687706	1.565824
O	-0.33836	2.25872	-0.539303
C	-0.571717	-0.970133	0.979177
H	-1.664756	-0.892848	0.938364
H	-0.212742	-0.747087	1.983514
H	-0.260881	-1.977417	0.688821
C	-1.518882	0.132474	-2.189729
N	-2.275129	0.385389	-3.053218
Br	-3.895601	0.0	0.0
