15

C	0.0	0.0	0.0
C	-0.543529	-0.323588	-1.378669
F	1.363851	0.0	0.0
H	-1.643758	-0.288817	-1.309933
H	-0.205738	0.429624	-2.091476
N	-0.342894	1.464786	0.312624
O	-0.36372	2.24796	-0.633552
O	-0.4546	1.772421	1.493704
C	-0.505412	-0.899538	1.08908
H	-1.593631	-0.821482	1.140048
H	-0.056364	-0.610476	2.037532
H	-0.217214	-1.92476	0.846827
C	-0.090472	-1.640924	-1.808852
N	0.288149	-2.692796	-2.166931
Br	-3.834655	0.0	0.0
