19

C	0.0	0.0	0.0
C	-0.215819	-0.064351	-1.541106
F	1.376905	0.0	0.0
H	0.394768	0.786883	-1.872606
N	-0.62836	1.206261	0.554348
O	-0.618609	2.235321	-0.194345
O	-0.580786	1.296774	1.816907
C	-0.310696	-1.209612	0.872332
H	-1.336353	-1.192402	1.221403
H	-0.130552	-2.111149	0.285002
H	0.371456	-1.174965	1.726259
C	-1.577313	0.117405	-2.180916
H	-2.226664	-0.736396	-1.996733
H	-1.415268	0.218256	-3.268604
H	-2.049947	1.023664	-1.809579
N	0.347927	-1.346667	-2.01027
H	0.308566	-1.342625	-3.023506
H	1.327787	-1.367669	-1.753292
H	-2.156794	0.0	0.0
