19

C	0.0	0.0	0.0
C	-0.448699	0.073793	-1.487497
F	1.377374	0.0	0.0
H	0.442754	0.449902	-2.001363
N	-0.279328	1.36611	0.647001
O	-1.080468	1.438054	1.571456
O	0.355014	2.311097	0.178367
C	-0.606303	-1.077058	0.840658
H	-0.316252	-2.05225	0.448073
H	-1.699574	-0.962753	0.798296
H	-0.265985	-0.988406	1.872652
C	-1.621081	1.013108	-1.738
H	-2.488588	0.731775	-1.113234
H	-1.348216	2.052059	-1.551315
H	-1.905228	0.909932	-2.788173
N	-0.784984	-1.226727	-2.058159
H	-0.093565	-1.924026	-1.808431
H	-1.684138	-1.510609	-1.678177
H	-3.843955	0.0	0.0
