19

C	0.0	0.0	0.0
C	-0.414608	-0.068227	-1.492055
F	1.368313	0.0	0.0
H	0.300964	-0.81834	-1.857103
N	-0.375474	1.310287	0.676196
O	0.272187	1.599829	1.683741
O	-1.30865	1.95729	0.215751
C	-0.56193	-1.101962	0.851288
H	-1.650266	-0.966488	0.909525
H	-0.342767	-2.064197	0.382355
H	-0.105312	-1.066743	1.843668
C	-0.121297	1.234904	-2.238108
H	-0.976848	1.901269	-2.154688
H	0.770513	1.742267	-1.856542
H	0.030114	1.004776	-3.294658
N	-1.745364	-0.533616	-1.805238
H	-1.802556	-1.532128	-1.633394
H	-2.480367	-0.134986	-1.170819
H	-3.678506	0.0	0.0
