14

C	-0.447782	-0.045581	-1.427186
C	0.0	0.0	0.0
F	-1.821736	0.040485	-1.543334
H	1.092408	0.0	0.0
H	0.001783	0.726273	-2.051846
H	-0.361823	-0.897631	0.506702
N	-0.072891	-1.354901	-2.077331
O	-0.589893	-2.366907	-1.610906
O	0.700812	-1.307746	-3.032256
C	-0.49762	1.268246	0.684682
H	-0.126167	2.15663	0.166736
H	-0.110688	1.306392	1.704403
H	-1.588569	1.315177	0.721377
Br	3.611946	0.0	0.0
