14

C	-0.462286	0.163802	-1.414322
C	0.0	0.0	0.0
F	-1.831183	0.327301	-1.497774
H	1.092432	0.0	0.0
H	0.017937	0.988225	-1.940825
H	-0.365249	-0.958124	0.376774
N	-0.155996	-1.068891	-2.227657
O	0.67208	-0.958038	-3.126404
O	-0.77055	-2.088481	-1.930648
C	-0.483269	1.156847	0.869187
H	-1.572665	1.19859	0.933518
H	-0.118745	2.110496	0.478406
H	-0.07532	1.045671	1.875062
Br	3.602734	0.0	0.0
