14

C	-0.423629	-0.014995	-1.440505
C	0.0	0.0	0.0
F	-0.192674	1.184604	-2.045626
H	1.093707	0.0	0.0
H	0.039087	-0.809778	-2.025902
H	-0.360891	0.934455	0.43847
N	-1.913477	-0.26274	-1.531309
O	-2.659767	0.667142	-1.241194
O	-2.268629	-1.402718	-1.83055
C	-0.501226	-1.21368	0.775864
H	-0.213054	-2.143258	0.278946
H	-0.043227	-1.217926	1.76606
H	-1.588084	-1.2147	0.898236
Br	3.625636	0.0	0.0
