15
Coordinates from ORCA-job run
  C   0.62819674365875     -0.44312387121797      0.15283963038385
  C   -0.88238687400130     -0.26324544820719      0.06425154832880
  F   0.96736639488685     -1.71700795471244     -0.01289171689000
  H   -1.32670000360209     -1.08589481503473      0.63490893370244
  N   1.39380764579199      0.42747089804354     -0.81905652178556
  O   2.45983759948429     -0.01588392898407     -1.20871630104131
  O   0.86746209677401      1.50176916135174     -1.07250854329787
  N   1.06708619281724     -0.03727628941612      1.56353784728192
  O   0.53365921935746     -0.70180851036335      2.44190172566156
  O   1.88799569197982      0.85987377753692      1.67550748353175
  N   -1.37672415445957     -0.45291893064806     -1.36598656582726
  O   -2.56322065774724     -0.22471025231185     -1.53503003312506
  O   -0.56386062771515     -0.86182292489540     -2.18293971381815
  C   -1.35289741843010      1.00669044732895      0.59364536129305
  N   -1.73962184879495      2.00788864153003      1.07053686560183
