15
Coordinates from ORCA-job run
  C   0.64109638405475     -0.34187381505698      0.12028413590229
  C   -0.88229885152254     -0.31131828760889      0.12786061779755
  F   1.06133809228887     -1.52848932869020     -0.31441394249462
  H   -1.22909391106423     -1.10286340820205      0.79511401957625
  N   1.26484951397095      0.75610085744494     -0.72879707741674
  O   1.87851676454581      0.40685126970059     -1.72043436366083
  O   1.07395770282709      1.88041097993811     -0.28807447761029
  N   1.20284842617988     -0.13606099732707      1.51926289205087
  O   0.39717749022982     -0.08702577461597      2.44054163869073
  O   2.42279368313838     -0.08875209818045      1.57125366912384
  N   -1.33896879758240     -0.69957363531276     -1.27167551758415
  O   -1.05229229133516      0.09102941201169     -2.16122184982765
  O   -1.93731024299844     -1.76157620129889     -1.36712236461932
  C   -1.47366898086525      0.96534992990423      0.49052050350721
  N   -2.02794498186754      1.95779109729370      0.78690211656486
