15
Coordinates from ORCA-job run
  C   0.63757769416863      0.16011233824422     -0.10415608195190
  C   -0.86459638895724     -0.05598616325030     -0.02314198954428
  F   1.06972330271367      0.30340428072661     -1.34149811960172
  H   -1.14552654871085     -0.26671915443308      1.01063171883612
  N   1.00467169133584      1.41367255460520      0.69813684280369
  O   0.39086211411181      1.55452388379511      1.74836236886657
  O   1.88292904509875      2.11435450595053      0.22365396648486
  N   1.40851435255413     -0.96474628731589      0.58764343784433
  O   0.89929479429335     -1.38162251035202      1.61831779451524
  O   2.46055060239009     -1.28777811498102      0.06593061662004
  N   -1.25996090695872     -1.29189427201989     -0.82729818164896
  O   -2.43507341602058     -1.35989682406377     -1.14797454168850
  O   -0.37850233152730     -2.11704744631567     -1.02451690902669
  C   -1.57042969346472      1.10766703950096     -0.53738495603920
  N   -2.10003431102685      2.07295616990898     -0.94670596646962
