15
Coordinates from ORCA-job run
  C   0.62199506717522      0.13256659534247     -0.19726169978634
  C   -0.85861615429474     -0.00841078852799      0.11594880220696
  F   0.85821071969499      0.35165467351396     -1.47562872433564
  H   -0.98175028850811     -0.28956260875521      1.16374339114233
  N   1.19394339885549      1.29694311677581      0.61987676818077
  O   0.77709394874789      1.37578703518948      1.76861561109782
  O   2.01777714081932      1.99537692848366      0.05361700540447
  N   1.41825105427093     -1.08359777946635      0.27653694353763
  O   1.05172756840833     -1.55927581205302      1.34172523662269
  O   2.35292145162037     -1.41497063272320     -0.43080869405206
  N   -1.45910460976133     -1.14991891033375     -0.70045422001404
  O   -2.67190963732285     -1.12679994756950     -0.83051556710309
  O   -0.67739320726904     -2.00325350565893     -1.09762294267003
  C   -1.55973360053007      1.22999304346542     -0.18608551093974
  N   -2.08541285190640      2.25346859231716     -0.42268639929174
