15
Coordinates from ORCA-job run
  C   0.64666716187073      0.06473726534621     -0.14506420008502
  C   -0.86419482614544      0.05997302195469      0.01875749389743
  F   1.02644784971506      0.04835770238979     -1.40753600369907
  H   -1.11406261246892     -0.02583478446653      1.07807632678772
  N   1.21758528797652      1.31753756665823      0.52869429245605
  O   0.68190985053503      1.62786329872055      1.58525964660674
  O   2.15903955005131      1.84702562591541     -0.03781434358470
  N   1.30048210412261     -1.09430646809493      0.60856814703364
  O   2.27026832132409     -1.59864220276278      0.07169317491080
  O   0.79886338440674     -1.35214582102283      1.69360521675709
  N   -1.46043570375652     -1.17347274265680     -0.65535092001633
  O   -2.65079044563201     -1.10987602278320     -0.91469186201286
  O   -0.70538096511567     -2.12192914587520     -0.81967792390402
  C   -1.43952619277247      1.26144377226148     -0.56605949087307
  N   -1.86587276411111      2.24926893441586     -1.03745955427438
