15
Coordinates from ORCA-job run
  C   0.56152709656216      0.24915775755561      0.52573485672621
  C   -0.91772804263794     -0.06514357763186      0.29508245858974
  F   0.66397873153286      1.07585854108494      1.56665682400366
  H   -1.25969400861264     -0.68800491386647      1.12591019660481
  N   1.34320877450572     -1.01295608458681      0.82929481902277
  O   2.33214869855962     -0.87094655704755      1.52916869346593
  O   0.90532893488066     -2.03807735775445      0.32115905327826
  N   1.24498857607287      0.92150930196962     -0.66451690541559
  O   0.86071181816864      2.06154454538731     -0.86771787334381
  O   2.09460903652539      0.27627872868059     -1.25712531738256
  N   -1.17030574819049     -0.87804174372457     -0.96386939224936
  O   -0.61620549564204     -0.47944745271366     -1.97840733327032
  O   -1.94001275954787     -1.81671416771220     -0.84193737181868
  C   -1.71167094646427      1.15418532088561      0.21632213196704
  N   -2.38988466571267      2.11179765947395      0.16224515982197
