15
Coordinates from ORCA-job run
  C   0.56873827833436      0.21203431031397      0.53503899296082
  C   -0.92832001044246      0.06630161135656      0.25700778537917
  F   0.73418691174903      1.08476356568960      1.52936607645734
  H   -1.37615527949125     -0.45496051519197      1.10724605488553
  N   1.17589757707609     -1.11374094234500      0.94627242767986
  O   0.63454932105696     -2.10788217893098      0.47768251212037
  O   2.14687934827179     -1.04938491699778      1.68179736816522
  N   1.37370656520417      0.71961538203216     -0.66106956903188
  O   1.14005614803819      1.88221082540796     -0.94810792998134
  O   2.15931050660864     -0.05956794733460     -1.17587259875429
  N   -1.23190531375410     -0.78904549617164     -0.96173710775041
  O   -0.59533958717400     -0.52591107710456     -1.97203497264726
  O   -2.11604553918228     -1.61768426266204     -0.81967594222213
  C   -1.56132666219798      1.36562668749078      0.07057274124079
  N   -2.12223226409722      2.38862495444757     -0.06648583850186
