15
Coordinates from ORCA-job run
  C   0.45722705505766      0.42082597262137      0.23962056041768
  C   -0.72629083790197     -0.44218644783890     -0.16567392127797
  F   0.13107872670429      1.68393543953181      0.42985807546058
  H   -0.37580421689878     -1.44841017428039     -0.40384109865589
  N   1.05996484802544     -0.13649265246726      1.53438567248879
  O   1.09883060068300     -1.35841854151499      1.60426890567558
  O   1.46140384030229      0.69024668884248      2.33619034418058
  N   1.59859306396438      0.32666395646786     -0.77386402378846
  O   2.22561458637745      1.35279009133389     -0.96628576567713
  O   1.78074076307667     -0.78766351756600     -1.24343460617102
  N   -1.35541242698520      0.09954402324945     -1.44674911616361
  O   -0.63671288108403      0.79199541145268     -2.15440481201780
  O   -2.50067800581682     -0.25910561388373     -1.66580996413857
  C   -1.72171068525088     -0.46507033223016      0.89514254161566
  N   -2.49584443025354     -0.46865430371810      1.77859720805161
