17

C	0.0	0.0	0.0
C	-0.241727	0.008074	-1.583808
Br	1.929546	0.0	0.0
H	0.538062	0.705828	-1.906704
C	-0.470999	1.240906	0.597088
N	-0.586607	2.336277	1.012069
N	-0.478077	-1.172847	0.823019
O	-0.699021	-2.236939	0.269501
O	-0.475345	-0.987903	2.032901
C	-1.525594	0.552781	-2.201632
H	-1.295615	0.682337	-3.272756
H	-2.352923	-0.13057	-2.048219
H	-1.813581	1.514875	-1.782244
N	0.155455	-1.292453	-2.12934
H	0.222017	-1.185675	-3.13475
H	-0.588023	-1.95117	-1.934741
F	-2.312428	0.0	0.0
