17

C	0.0	0.0	0.0
C	-0.253489	-0.052112	-1.582582
Br	1.94022	0.0	0.0
H	0.613453	0.521622	-1.940357
C	-0.458792	1.26913	0.541331
N	-0.536842	2.378876	0.928905
N	-0.425895	-1.127994	0.912059
O	-0.391869	-2.266291	0.464911
O	-0.62051	-0.828649	2.080796
C	-1.443315	0.662373	-2.202475
H	-1.552106	1.675972	-1.81447
H	-2.353825	0.111845	-2.013182
H	-1.222882	0.730597	-3.280135
N	-0.204536	-1.421122	-2.109423
H	0.402808	-2.006962	-1.551617
H	0.187517	-1.362406	-3.043843
F	-2.245312	0.0	0.0
