17

C	0.0	0.0	0.0
C	-0.261118	-0.177211	-1.573947
Br	1.939875	0.0	0.0
H	0.623799	0.328424	-1.982397
C	-0.457114	1.307205	0.445122
N	-0.526928	2.443593	0.747719
N	-0.422773	-1.052002	1.001361
O	-0.38606	-2.223657	0.649767
O	-0.619419	-0.6601	2.141706
C	-1.429181	0.529142	-2.242824
H	-1.213777	0.514641	-3.323549
H	-2.355126	0.021995	-2.010183
H	-1.504177	1.570908	-1.926472
N	-0.265258	-1.586713	-1.985268
H	0.31436	-2.144741	-1.372064
H	0.137918	-1.621625	-2.915909
F	-2.242285	0.0	0.0
