17

C	0.0	0.0	0.0
C	-0.321186	-0.267962	-1.573614
Br	1.945251	0.0	0.0
H	0.595584	-0.728843	-1.948485
C	-0.470697	1.251261	0.567182
N	-0.647302	2.341127	0.972954
N	-0.381036	-1.153333	0.903519
O	-0.637346	-0.901329	2.071756
O	-0.297551	-2.274546	0.4132
C	-0.512283	1.100954	-2.21315
H	-1.479325	1.480664	-1.881157
H	-0.525614	0.973298	-3.297227
H	0.268894	1.815548	-1.94273
N	-1.412363	-1.12069	-1.947624
H	-2.189338	-0.776817	-1.352115
H	-1.204004	-2.061376	-1.637929
F	-2.449645	0.0	0.0
