16
Coordinates from ORCA-job run
  C   0.46457965720504     -0.00988858376796      0.00662639887250
  C   -0.88024420373371      0.07403802703999      0.13533150893151
  C   1.31776750356031      1.22714306015036      0.03161857024198
  H   1.64528761301131      1.52641574982810     -0.97277809516602
  H   0.77797810512810      2.06509230629833      0.47699692204315
  H   2.22664622543111      1.05323103666340      0.61820660479102
  C   1.18918423483963     -1.31690549271540     -0.16122283338776
  H   0.53397913340965     -2.12486612070875     -0.49674184509371
  H   1.67624817969765     -1.64159409572910      0.76703542603124
  H   1.98085055127747     -1.21625481388238     -0.91133324669364
  N   -1.55607111962970      1.30953432440021      0.14810380741119
  H   -1.42341650442081      1.87361135346814     -0.67588744658893
  H   -2.52545588329906      1.21759891236923      0.40781534598368
  N   -1.74619256983191     -1.01255348735381      0.38595559534532
  H   -1.25701963158192     -1.87019599699193      0.59072993542419
  H   -2.42512129106316     -1.15640617906843     -0.35145664814574
