16
Coordinates from ORCA-job run
  C   0.46432645586996     -0.01388242676066      0.01425626526930
  C   -0.88098899770031      0.09289485774229      0.11854353967799
  C   1.32921548556729      1.21352444379871     -0.05074670742795
  H   1.67254118086398      1.42709872721040     -1.07157319245477
  H   2.22887251378832      1.08039640394527      0.56040083321626
  H   0.79295115051383      2.08989266729506      0.31837086687847
  C   1.17773116921341     -1.33644942309243     -0.03883271100832
  H   0.51850746488735     -2.16285160878211     -0.31678524613433
  H   1.65077936268622     -1.59016140186085      0.91828797268545
  H   1.97887547349677     -1.30393827353345     -0.78495819729443
  N   -1.54389182418506      1.33177447758446      0.02223689721300
  H   -1.39472204647705      1.82463410298823     -0.84360467759953
  H   -2.51778413250848      1.26989727407354      0.27400413164366
  N   -1.76113536873359     -0.96179329182332      0.44475167171316
  H   -2.43258762721536     -1.15802161726292     -0.28749427990993
  H   -1.28269026006727     -1.80501491152222      0.72214283353197
