16
Coordinates from ORCA-job run
  C   0.52682973895284     -0.02374186523284      0.04507268540321
  C   -0.81438022845350      0.03687876183541     -0.08283810232262
  C   1.37596043975697      1.20779099093583      0.17026928065186
  H   0.77111165847896      2.11052266350372      0.12643029245472
  H   1.93129395480952      1.19052493920065      1.11471982895845
  H   2.12350265085692      1.23465415886943     -0.63036694937740
  C   1.27008382590320     -1.32750885409702      0.07873299461179
  H   1.82130157821969     -1.42501152885851      1.02071552595909
  H   2.01586567593954     -1.35842706833378     -0.72339844640902
  H   0.59240867329520     -2.17120379813224     -0.02909812220039
  N   -1.58620599993035     -1.17431174384982     -0.19390882773755
  H   -2.25248963761307     -1.22766532177110      0.57018188869920
  H   -2.12841055878370     -1.15715039071516     -1.05189925128806
  N   -1.48205241884470      1.31306888670370     -0.10714467230635
  H   -2.14620064924604      1.36713057024312      0.65874173376328
  H   -2.01861870334146      1.40244959969862     -0.96420985886023
