16
Coordinates from ORCA-job run
  C   0.43808438909131     -0.03110099206074      0.05869504142660
  C   -0.91468462478113      0.02571561010940      0.01007314828036
  C   1.27407586209038      1.20671163673242      0.25328354525742
  H   1.58635057948163      1.66135483953750     -0.69574173960586
  H   0.75708583954024      1.97647554596160      0.83325851310159
  H   2.18839679660233      0.96653857305517      0.80430119680597
  C   1.19673310671238     -1.30325692375078     -0.22822418374578
  H   2.14456692669978     -1.30739776126369      0.31730322285471
  H   0.66818792667720     -2.20872160211410      0.07967172652583
  H   1.44223845453659     -1.40850170332018     -1.29277467440900
  N   -1.77930052541973     -1.08457656439241     -0.04853366769491
  H   -2.48018732830219     -0.95007195124826     -0.76525297508600
  H   -1.29720874843788     -1.95763716776986     -0.18919435592673
  N   -1.68097135828163      1.20471576569320      0.02301363788256
  H   -1.13227212814217      2.04410133294872      0.11672004722619
  H   -2.41109516806711      1.16365136188200      0.72240151710707
