16
Coordinates from ORCA-job run
  C   0.43099551571602     -0.00872249696487      0.00840337509850
  C   -0.92289210971791      0.01755257661351     -0.01922433250911
  C   1.26011460281332      1.24768315693725     -0.01371892891928
  H   1.62013464493738      1.53097723521713      0.98351253028100
  H   0.71966152545186      2.10170297752910     -0.43019325868072
  H   2.14733007083064      1.10225071512655     -0.63903332924608
  C   1.21028252935529     -1.29544313539524      0.06399007065527
  H   2.07201926551768     -1.18536167103022      0.73087350107706
  H   1.60595349066532     -1.58928510833486     -0.91652622367167
  H   0.61944242106942     -2.12979949860070      0.45071897451336
  N   -1.71777319220650      1.15817828290937      0.18544772114158
  H   -2.39061187560490      1.28937144830852     -0.55803292759059
  H   -1.18947439992122      1.99750788044222      0.36193674336013
  N   -1.75330718801160     -1.09131805918909     -0.25676195347072
  H   -2.45857389902189     -1.19550795617371      0.46057398276654
  H   -1.25130140187292     -1.95078634739495     -0.41196594480527
