16
Coordinates from ORCA-job run
  C   0.46329790732067     -0.01545421059176     -0.03372308620813
  C   -0.88537460215779      0.08805759646884     -0.08524990823095
  C   1.33105318760168      1.21061463646995     -0.08350867324701
  H   2.20106542934088      1.03769433366752     -0.72673748362620
  H   1.72178085330705      1.48339974610466      0.90565817170662
  H   0.77858291968963      2.06500142780240     -0.47923523976563
  C   1.17819992178903     -1.33423743602774      0.07205598000516
  H   1.60888056059262     -1.64885193798467     -0.88701913328040
  H   2.01139068633591     -1.25695743382515      0.77872206613053
  H   0.53146574609937     -2.13944952681995      0.42982626741397
  N   -1.77815064394412     -0.98285718757561     -0.30678299182744
  H   -2.41821199548825     -1.13233775333001      0.46347343789511
  H   -1.31303267469005     -1.84242113511996     -0.55470432762768
  N   -1.54407080381703      1.33169281265395     -0.03714002950636
  H   -1.35728108967245      1.87807679287079      0.78824721356320
  H   -2.52759540230717      1.25802927523675     -0.24388226339479
