16
Coordinates from ORCA-job run
  C   0.46222983862140     -0.01370314813003      0.05042338336362
  C   -0.88776686492742      0.08423316796749      0.05629743162018
  C   1.32228464206473      1.21547668186672      0.13869719991234
  H   1.74280765209415      1.49889671924844     -0.83519210207114
  H   2.17226241769256      1.04116381163288      0.80778570350402
  H   0.75373771888877      2.06410269411794      0.52399473390782
  C   1.18463079519787     -1.32942202534046     -0.04116297390179
  H   2.04473639930598     -1.24213765295910     -0.71354274433961
  H   0.55433943181328     -2.13142042602563     -0.43398674330338
  H   1.57786995254865     -1.65519024068579      0.93018033091663
  N   -1.78323224680883     -0.99200926899241      0.23757483197379
  H   -1.32353365927717     -1.85238539311030      0.49277534568572
  H   -2.39570221515232     -1.13637938364139     -0.55577746396166
  N   -1.54956259964256      1.32597634679333     -0.00421565552247
  H   -2.53970978812675      1.24544416836583      0.16542020582817
  H   -1.33639147429233      1.87835394889247     -0.81927148361224
