16
Coordinates from ORCA-job run
  C   0.46167837923794     -0.02838632955203      0.04997759297846
  C   -0.89179669915149     -0.01375769917912      0.05287415461701
  C   1.29137618498915      1.22579553748147      0.04988181577602
  H   2.14324535351695      1.11514191018209     -0.62950627518483
  H   1.70744891800890      1.44794504176174      1.04074162653017
  H   0.73121832757887      2.10332729993035     -0.28319600413969
  C   1.21615048674005     -1.32805388356545      0.04820907315195
  H   0.57779116068670     -2.15161010485323      0.37396862302991
  H   1.61450776431651     -1.57563924126972     -0.94458478225731
  H   2.07569884007237     -1.27305791256061      0.72546763475950
  N   -1.65449208858684     -1.18865145070795     -0.09368523933981
  H   -2.63500271277252     -1.03821566828454      0.08413772949842
  H   -1.48560491252867     -1.69760375141989     -0.94651818999414
  N   -1.69508321433770      1.11770735630117      0.31275115586267
  H   -1.16610003211827      1.91652427124613      0.62702295616505
  H   -2.29103575565195      1.36853462448959     -0.46654187145339
