16
Coordinates from ORCA-job run
  C   0.45909513288306     -0.01453813171475     -0.07054892733256
  C   -0.89028609056265      0.07871616186910     -0.01665843801391
  C   1.30748283398810      1.21295546882125     -0.24923014626247
  H   1.77109173801914      1.53799958262378      0.69149645026010
  H   0.71788839527867      2.04316689028512     -0.64295920242229
  H   2.12660802919891      1.01327538997296     -0.94907153050492
  C   1.19255691969086     -1.32260204179820      0.03920285849045
  H   2.07763223208979     -1.20708697367718      0.67401279129861
  H   1.54989558797280     -1.68030661149027     -0.93477300897485
  H   0.58328532148624     -2.11341217361050      0.48419079795480
  N   -1.78800731590536     -1.00640521151615     -0.11360795979464
  H   -1.33694057560419     -1.87368278707757     -0.36051894234363
  H   -2.36047016572386     -1.12408443482367      0.71326977830233
  N   -1.55461819610963      1.31942108009619      0.02564522447475
  H   -2.55125505187944      1.23010441326597     -0.09357364001292
  H   -1.30395879482245      1.90747937877392      0.80412389488115
