18

C	-0.240448	0.002679	-1.503628
C	0.0	0.0	0.0
Cl	-0.029049	1.654507	-2.155188
H	1.097181	0.0	0.0
C	0.741135	-0.921046	-2.189387
H	1.714212	-0.693879	-1.732642
H	0.47981	-1.960168	-1.98388
H	0.734113	-0.770544	-3.266682
N	-1.681755	-0.354318	-1.874401
O	-2.567241	0.014113	-1.106508
O	-1.864898	-0.970949	-2.923017
C	-0.388319	-1.320969	0.668839
H	-1.456416	-1.545851	0.600231
H	0.196429	-2.134584	0.236148
H	-0.111138	-1.260945	1.722978
C	-0.562432	1.130511	0.709935
N	-0.988959	2.013052	1.359104
F	2.597177	0.0	0.0
