18

C	-0.53944	-0.025808	-1.424556
C	0.0	0.0	0.0
Cl	0.331621	-1.26852	-2.37638
H	1.093326	0.0	0.0
C	-2.026175	-0.264973	-1.558801
H	-2.570351	0.511753	-1.016586
H	-2.330395	-0.244657	-2.603727
H	-2.265657	-1.240251	-1.134501
N	-0.187606	1.310829	-2.100155
O	0.938923	1.744799	-1.917955
O	-1.059599	1.839834	-2.792166
C	-0.356368	-1.256385	0.79822
H	-1.423467	-1.367002	1.016975
H	0.002035	-2.134746	0.258815
H	0.195698	-1.21024	1.738547
C	-0.516263	1.182217	0.662706
N	-0.950951	2.134416	1.202169
F	2.518858	0.0	0.0
