18

C	-0.27403	0.245719	-1.485309
C	0.0	0.0	0.0
Cl	-1.984059	0.680419	-1.844693
H	1.105921	0.0	0.0
C	0.673497	1.299895	-2.012925
H	1.669226	1.024081	-1.646666
H	0.385307	2.262204	-1.585814
H	0.634311	1.361897	-3.1023
N	-0.010692	-1.079832	-2.205918
O	1.116013	-1.235293	-2.665903
O	-0.907884	-1.917713	-2.230939
C	-0.549509	-1.290634	0.594265
H	-0.01591	-2.1441	0.174584
H	-1.621357	-1.416823	0.418579
H	-0.362676	-1.28474	1.670092
C	-0.442414	1.160089	0.750789
N	-0.787907	2.082816	1.393569
F	2.575572	0.0	0.0
