18

C	-0.246302	-0.142904	-1.503379
C	0.0	0.0	0.0
Cl	0.041919	1.411012	-2.32151
H	1.103186	0.0	0.0
C	0.694583	-1.171909	-2.091925
H	0.438558	-2.169267	-1.738159
H	0.647517	-1.161439	-3.181568
H	1.68567	-0.892291	-1.715593
N	-1.713899	-0.504669	-1.739381
O	-1.965272	-1.694023	-1.941509
O	-2.556808	0.377004	-1.606452
C	-0.438636	-1.231029	0.796594
H	-1.515138	-1.424768	0.742892
H	-0.167106	-1.073445	1.841914
H	0.104944	-2.109943	0.448779
C	-0.570995	1.202583	0.573227
N	-1.022227	2.141445	1.120695
F	2.583484	0.0	0.0
