18

C	-0.269249	0.017671	-1.504667
C	0.0	0.0	0.0
Cl	-1.99465	0.32977	-1.928375
H	1.105407	0.0	0.0
C	0.639994	1.021814	-2.175713
H	1.644081	0.832176	-1.778974
H	0.316942	2.023201	-1.886121
H	0.603351	0.929828	-3.262821
N	0.045903	-1.384292	-2.035791
O	1.150315	-1.546691	-2.542863
O	-0.797245	-2.26312	-1.880537
C	-0.541803	-1.185763	0.789698
H	-0.358947	-1.006186	1.851431
H	-0.00018	-2.090615	0.51283
H	-1.611918	-1.347442	0.633898
C	-0.450111	1.259191	0.562297
N	-0.806265	2.267874	1.052219
F	2.57103	0.0	0.0
