18

C	-0.54108	-0.148875	-1.420183
C	0.0	0.0	0.0
Cl	0.264661	-1.515025	-2.234935
H	1.097818	0.0	0.0
C	-2.040464	-0.337343	-1.530012
H	-2.557157	0.466633	-1.005921
H	-2.305842	-1.295846	-1.082544
H	-2.353396	-0.341211	-2.575806
N	-0.146603	1.120381	-2.190015
O	-1.024556	1.981263	-2.280681
O	0.997054	1.222273	-2.603897
C	-0.347413	-1.191446	0.897397
H	0.184286	-1.05117	1.840792
H	0.039054	-2.10485	0.444193
H	-1.416937	-1.304352	1.106
C	-0.509875	1.220946	0.593156
N	-0.924042	2.189131	1.118637
F	2.514394	0.0	0.0
