18

C	-0.264779	0.056918	-1.505139
C	0.0	0.0	0.0
Cl	-0.048266	1.718528	-2.111148
H	1.106463	0.0	0.0
C	0.69974	-0.847963	-2.240876
H	0.630168	-0.696474	-3.318656
H	0.488401	-1.892539	-2.018796
H	1.688174	-0.587831	-1.843699
N	-1.723241	-0.322071	-1.768969
O	-2.592578	0.490225	-1.471388
O	-1.936997	-1.469973	-2.164237
C	-0.435409	-1.326564	0.627745
H	-1.520816	-1.474559	0.617279
H	-0.092667	-1.338198	1.664514
H	0.046718	-2.160597	0.116825
C	-0.571131	1.108565	0.738609
N	-1.02683	1.957454	1.413086
F	2.581992	0.0	0.0
