17
Coordinates from ORCA-job run
  C   -0.66564696547095      0.14497504845200     -0.10483434781877
  C   0.83015352348401     -0.14935318915199      0.14278769315379
  Br  -1.02861720687497      2.03877774451418      0.27636747737197
  H   0.96008871684315     -1.20257443833592     -0.14981535871820
  N   -0.91822874551057     -0.05114508431005     -1.52280156300833
  H   -0.88536398968197     -1.04789418701738     -1.72161584105139
  H   -1.84917902874045      0.27777278480677     -1.75333863319906
  C   -1.56075795275149     -0.68064904055813      0.81131795197623
  H   -1.36205744270924     -1.74469208940781      0.63669301596522
  H   -2.60961930588315     -0.48225758382882      0.58227685274829
  H   -1.38639392109372     -0.46135038409356      1.86540505574603
  C   1.15377465132758     -0.06849298507412      1.56812576801052
  N   1.43442508683985     -0.00018509609955      2.70635865439812
  C   1.79580943402200      0.70281637427452     -0.68373952146790
  H   1.79701487578281      1.73374190924964     -0.33078488242635
  H   1.48601937970610      0.68490257278529     -1.72767527669430
  H   2.80857889071101      0.30460764379495     -0.59472704498587
