17
Coordinates from ORCA-job run
  C   -0.76596837099587      0.18551996939352      0.06582989483640
  C   0.72312656270690      0.58208103125454      0.17076600983104
  Br  -1.50193667090470      0.30607537766075      1.97382480135656
  H   0.75748126419153      1.59817001765931      0.58343067253548
  N   -1.42619841475464      1.08812166630641     -0.79266360685067
  H   -1.33829000165257      2.05129317094612     -0.49329142749982
  H   -2.40478248854838      0.85946082421181     -0.91079062638212
  C   -0.98797020859595     -1.24280370148394     -0.38913810931022
  H   -2.05787416325159     -1.44944904850437     -0.46091589667949
  H   -0.53899592822958     -1.37190740134745     -1.37802696378913
  H   -0.55637699863635     -1.95828235109641      0.30851122854559
  C   1.27944306414996      0.64031898896942     -1.18698545825549
  N   1.75286435971303      0.70174524001950     -2.25993487172531
  C   1.59669234468245     -0.33196116234498      1.03480581592714
  H   2.60813549252899      0.07555199651374      1.08350821198737
  H   1.66133407181045     -1.33260007736286      0.60550985146375
  H   1.19931608578633     -0.39933454079513      2.04656047400891
