17
Coordinates from ORCA-job run
  C   -0.75796489348840      0.28589490165430      0.10223006365046
  C   0.72025069782003      0.42560066495498      0.52223921749003
  Br  -1.77233879572953      1.66148374787574      1.07762878930095
  H   0.77181606552561      0.28797414970359      1.60843172650690
  N   -0.88168908061201      0.59626931907041     -1.31073439300199
  H   -1.84446960410426      0.81098167593990     -1.54137577107367
  H   -0.60757122722272     -0.21542995177096     -1.85562895315715
  C   -1.33715564078424     -1.06467145501344      0.51057705363087
  H   -0.86161984195140     -1.86241634964402     -0.06727762625111
  H   -2.40724750168167     -1.08596184182758      0.29803007946831
  H   -1.19216096730120     -1.26388230775618      1.57490086451079
  C   1.22093517721677      1.77015572168240      0.22428326976233
  N   1.69674358690827      2.81796504464399     -0.00726087235619
  C   1.63257007257496     -0.60439595032178     -0.15981869472074
  H   1.34478176867558     -1.62435377844630      0.09777605170277
  H   2.66179959894003     -0.45313124871237      0.17001892660147
  H   1.61432058521418     -0.48008234203267     -1.24401973206403
