17
Coordinates from ORCA-job run
  C   -0.75755356473749      0.21512687732980      0.09532392027854
  C   0.74764759020701      0.55365986828638      0.16618482911647
  Br  -1.43216760693781      0.30414158742334      2.02674098298823
  H   0.83177964002440      1.55414985434348      0.60862442170623
  N   -1.40771161123094      1.16770446832177     -0.71610972232405
  H   -2.39702210806280      0.97841231097322     -0.81262484086280
  H   -1.27634894619964      2.11697955728374     -0.38940982629781
  C   -1.04612984309217     -1.18936687734732     -0.39521102853498
  H   -0.62250875199555     -1.94146163366462      0.26802608945923
  H   -0.62999483193836     -1.30459742584591     -1.40004898226852
  H   -2.12468597509424     -1.35393012862691     -0.44180893878750
  C   1.26500215038323      0.62905020153010     -1.20614834969745
  N   1.72691663159712      0.64750593046187     -2.28566910352193
  C   1.61251890273473     -0.41856206715732      0.97357826464286
  H   1.24213944297617     -0.50553780589039      1.99401618746877
  H   2.63894506322168     -0.04869785950878      1.00472653901837
  H   1.62817381814467     -1.40557685791245      0.50980955761633
