17
Coordinates from ORCA-job run
  C   -0.76322886581999      0.28073294901882      0.08049051993400
  C   0.70661883750089      0.44951556160628      0.51888973823653
  Br  -1.80743584298401      1.67711291278464      0.99277618147902
  H   0.74190099196876      0.34365574768816      1.60935440064534
  N   -0.86704796805432      0.54271970311958     -1.34358118234262
  H   -0.56505345036886     -0.27989780753461     -1.85652333700019
  H   -1.83020945421360      0.72755752643072     -1.59787370215145
  C   -1.33595897498109     -1.06115136527750      0.52549355422258
  H   -2.40196970299053     -1.10113217224802      0.29572903733387
  H   -0.84283710408954     -1.87357627390970     -0.01592312449133
  H   -1.20764208241281     -1.22164682109914      1.59842849705483
  C   1.19805699377637      1.79021804480492      0.18993503792071
  N   1.66791793212352      2.83567598646293     -0.06310358833276
  C   1.64127844882322     -0.58963393442734     -0.11795397515227
  H   2.66185475735706     -0.42154426979573      0.23015816986309
  H   1.35615532746241     -1.60534195889555      0.15875678902876
  H   1.64560015690253     -0.49226382872843     -1.20505301624815
