17
Coordinates from ORCA-job run
  C   -0.74042139246865      0.11800173383353     -0.13566254794543
  C   0.75085543155843     -0.11339096938521      0.23968185416432
  Br  -1.10269948410457      2.05237963328682     -0.03297707495955
  H   0.87926972116179     -1.20471182973352      0.18594396395012
  N   -1.08079311997928     -0.29599985450914     -1.47426610752785
  H   -0.98479157399215     -1.30202060782182     -1.56485189738477
  H   -0.51200298481722      0.16379516038345     -2.17328833975504
  C   -1.66237142835021     -0.58850652180566      0.84290404814296
  H   -1.51321242139971     -0.23455778498446      1.86264029870037
  H   -2.69709585852608     -0.41736982165784      0.54694927032543
  H   -1.46167795422390     -1.66624913364933      0.81485546714047
  C   1.01618321093231      0.27604630795411      1.62556609418142
  N   1.22928948665710      0.60578048253834      2.73255802907824
  C   1.77375494446227      0.53538264777770     -0.69505827486552
  H   1.63453853868448      0.18684039785203     -1.71978536903105
  H   1.68631644881353      1.62147172779997     -0.67137441370029
  H   2.78385843559188      0.26210843212101     -0.38483500051385
