13

C	0.0	0.0	0.0
C	-0.449919	0.241511	-1.431587
F	1.369277	0.0	0.0
H	-1.516872	0.458803	-1.42693
H	-0.383997	-0.912608	0.449062
H	-0.316863	-0.717315	-1.944873
N	-0.367023	1.104678	0.959267
O	-0.462342	2.248469	0.519189
O	-0.442384	0.788286	2.143014
N	0.298339	1.265025	-2.154563
H	0.07555	2.159781	-1.739087
H	1.289162	1.112713	-2.007987
Br	-3.611726	0.0	0.0
