13

C	0.0	0.0	0.0
C	-0.484634	-0.285749	-1.434501
F	1.361941	0.0	0.0
H	0.370803	-0.008548	-2.058966
H	-0.388451	-0.646846	0.784167
H	-0.617994	-1.368848	-1.508706
N	-0.358156	1.407623	0.407662
O	0.055481	2.29988	-0.332018
O	-0.988582	1.565515	1.447351
N	-1.66395	0.368797	-1.935629
H	-2.501059	0.141677	-1.394699
H	-1.540039	1.371487	-1.906478
Br	-4.427422	0.0	0.0
