13

C	0.0	0.0	0.0
C	-0.462019	-0.303575	-1.428793
F	1.36623	0.0	0.0
H	0.311154	0.14183	-2.0616
H	-0.381759	-0.651919	0.784189
H	-0.388244	-1.390556	-1.543559
N	-0.378351	1.401079	0.404825
O	-0.861746	1.56054	1.521574
O	-0.114199	2.288885	-0.404568
N	-1.7525	0.143173	-1.876307
H	-2.531425	-0.184664	-1.304222
H	-1.796679	1.153069	-1.862006
Br	-4.552383	0.0	0.0
