13

C	0.0	0.0	0.0
C	-0.429736	0.202623	-1.45088
F	1.359657	0.0	0.0
H	0.208203	1.011593	-1.818146
H	-0.382953	-0.890886	0.496073
H	-0.109783	-0.711508	-1.965617
N	-0.373624	1.159771	0.893337
O	-0.548101	2.25626	0.368577
O	-0.372996	0.932345	2.100488
N	-1.797061	0.496606	-1.777939
H	-2.474248	-0.146261	-1.374218
H	-2.060248	1.400234	-1.409111
Br	-4.578304	0.0	0.0
