16

C	-0.549026	-0.014607	-1.38655
C	0.0	0.0	0.0
F	-1.903635	0.022263	-1.407048
H	1.089144	0.0	0.0
H	-0.315977	0.970967	0.399841
N	-0.063075	1.198769	-2.16842
O	-0.7423	2.21037	-2.04105
O	0.969488	1.066021	-2.807007
N	-0.173465	-1.207219	-2.253166
O	0.573952	-2.053058	-1.784528
O	-0.702323	-1.22013	-3.360961
C	-0.545226	-1.120324	0.881089
H	-0.179297	-0.964514	1.897121
H	-0.180808	-2.090127	0.546867
H	-1.637648	-1.129686	0.905204
Cl	3.409257	0.0	0.0
