16

C	-0.426203	0.009881	-1.42771
C	0.0	0.0	0.0
F	-0.08707	-1.089904	-2.098644
H	1.095233	0.0	0.0
H	-0.341024	0.926659	0.459608
N	-1.946215	0.174931	-1.617064
O	-2.564177	0.754456	-0.731802
O	-2.412073	-0.267278	-2.662819
N	0.130245	1.215571	-2.18746
O	-0.146287	2.303934	-1.69616
O	0.763699	0.995	-3.207357
C	-0.517755	-1.229529	0.736498
H	-0.181006	-2.143453	0.245125
H	-0.102782	-1.231831	1.74557
H	-1.608489	-1.242351	0.812418
Cl	3.389692	0.0	0.0
