16

C	-0.453465	0.002484	-1.423637
C	0.0	0.0	0.0
F	-0.155706	1.153209	-2.041204
H	1.092542	0.0	0.0
H	-0.314532	0.978372	0.380762
N	0.085565	-1.116439	-2.304823
O	-0.111542	-0.961995	-3.506004
O	0.637204	-2.063121	-1.761419
N	-1.971532	-0.164726	-1.505428
O	-2.632974	0.859566	-1.397198
O	-2.399599	-1.311118	-1.586756
C	-0.557681	-1.113409	0.877379
H	-1.641575	-1.041486	1.006194
H	-0.314332	-2.094526	0.474933
H	-0.092082	-1.032099	1.861004
Cl	3.398819	0.0	0.0
