16

C	-0.558746	0.019319	-1.380785
C	0.0	0.0	0.0
F	-1.906782	0.175106	-1.394277
H	1.090237	0.0	0.0
H	-0.323937	0.93389	0.467359
N	-0.04429	1.143649	-2.26639
O	0.45368	2.112405	-1.708716
O	-0.275356	1.016586	-3.465374
N	-0.246436	-1.264697	-2.125553
O	0.911447	-1.389556	-2.493478
O	-1.161076	-2.071982	-2.240177
C	-0.509589	-1.212244	0.778279
H	-1.598243	-1.300747	0.752388
H	-0.073252	-2.134292	0.389414
H	-0.187777	-1.119126	1.8166
Cl	3.425495	0.0	0.0
