18

C	-0.311323	-0.027982	-1.500547
C	0.0	0.0	0.0
Cl	-2.07169	-0.273177	-1.833252
H	1.100158	0.0	0.0
N	0.037137	1.333118	-2.096272
O	-0.738124	2.269201	-1.910746
O	1.109173	1.42582	-2.685412
C	0.519335	-1.095688	-2.16673
H	1.54434	-0.937899	-1.817027
H	0.157654	-2.055861	-1.80565
H	0.45149	-1.043816	-3.254897
N	-0.428579	-1.284061	0.550335
H	-1.28325	-1.127079	1.0734
H	0.291644	-1.54847	1.21463
N	-0.515497	1.145131	0.730517
H	-1.279714	1.590355	0.239153
H	0.232136	1.821642	0.81895
F	2.657401	0.0	0.0
