18

C	-0.373484	-0.021721	-1.470185
C	0.0	0.0	0.0
Cl	0.119804	-1.563373	-2.217265
H	1.093626	0.0	0.0
N	-1.882527	0.068453	-1.689658
O	-2.289819	0.194636	-2.84146
O	-2.612107	0.033854	-0.696129
C	0.303387	1.114291	-2.201627
H	1.354098	1.060525	-1.899738
H	0.18489	1.012108	-3.279859
H	-0.120391	2.056155	-1.856674
N	-0.434099	-1.181515	0.719696
H	-1.335525	-1.037082	1.15513
H	0.260214	-1.380371	1.427877
N	-0.38705	1.304533	0.549692
H	0.345606	1.576101	1.195273
H	-1.262728	1.230481	1.051575
F	2.662089	0.0	0.0
