18

C	-0.276218	0.093615	-1.510828
C	0.0	0.0	0.0
Cl	-0.111647	-1.511234	-2.306823
H	1.099863	0.0	0.0
N	-1.721627	0.495821	-1.774749
O	-2.582799	-0.042751	-1.078439
O	-1.955842	1.316639	-2.655915
C	0.698713	1.054857	-2.141588
H	0.639801	1.042223	-3.228545
H	1.685756	0.75426	-1.766753
H	0.475254	2.057697	-1.77049
N	-0.490566	-1.159609	0.714424
H	-1.344051	-1.50684	0.299241
H	0.215307	-1.880661	0.665393
N	-0.475722	1.272398	0.549724
H	0.244197	1.591479	1.186905
H	-1.307555	1.085813	1.098097
F	2.694441	0.0	0.0
