18

C	-0.390835	-0.095245	-1.469952
C	0.0	0.0	0.0
Cl	-2.118489	-0.568906	-1.684001
H	1.093188	0.0	0.0
N	-0.224762	1.2917	-2.080963
O	0.933997	1.600026	-2.33847
O	-1.20203	2.012764	-2.244294
C	0.529463	-1.06732	-2.17277
H	1.54372	-0.819709	-1.839432
H	0.426283	-1.010139	-3.259134
H	0.277535	-2.068105	-1.824337
N	-0.343881	-1.270981	0.635958
H	-1.254482	-1.223807	1.083134
H	0.365641	-1.449493	1.338567
N	-0.49515	1.22292	0.595942
H	-1.449865	1.119156	0.928742
H	0.108161	1.459957	1.375623
F	2.653076	0.0	0.0
