18

C	-0.569072	-0.014854	-1.428572
C	0.0	0.0	0.0
Cl	0.267162	1.204321	-2.418172
H	1.091701	0.0	0.0
N	-0.262663	-1.377157	-2.036903
O	0.854938	-1.595501	-2.477685
O	-1.170602	-2.215801	-1.974654
C	-2.05775	0.251348	-1.506494
H	-2.213201	1.259405	-1.127501
H	-2.613589	-0.454709	-0.888616
H	-2.414954	0.17665	-2.535311
N	-0.440044	-1.167398	0.76941
H	-1.096319	-1.755119	0.271683
H	0.392175	-1.716683	0.949656
N	-0.443824	1.255336	0.62085
H	-1.013174	0.994567	1.417009
H	0.398935	1.69163	0.981058
F	2.630229	0.0	0.0
