18

C	-0.627241	-0.028235	-1.393884
C	0.0	0.0	0.0
Cl	0.048176	1.300156	-2.401457
H	1.095442	0.0	0.0
N	-0.177127	-1.323419	-2.063197
O	-1.058176	-2.116278	-2.40662
O	1.023987	-1.493868	-2.202255
C	-2.13718	0.061276	-1.409377
H	-2.550739	-0.773277	-0.84177
H	-2.426159	0.997388	-0.932119
H	-2.524194	0.01763	-2.430086
N	-0.419016	-1.219297	0.678871
H	-1.182872	-1.032563	1.316141
H	0.37948	-1.560435	1.200814
N	-0.519821	1.190201	0.715153
H	0.038233	1.21588	1.56768
H	-0.201211	2.005592	0.192414
F	2.63267	0.0	0.0
