18

C	-0.293659	0.039712	-1.510958
C	0.0	0.0	0.0
Cl	-0.185	-1.595896	-2.246011
H	1.101535	0.0	0.0
N	-1.731919	0.47469	-1.758507
O	-1.958788	1.336427	-2.602227
O	-2.598378	-0.072307	-1.075346
C	0.695722	0.955387	-2.188133
H	1.678012	0.658199	-1.799675
H	0.634943	0.892513	-3.274679
H	0.488994	1.975318	-1.863908
N	-0.502402	-1.119853	0.763693
H	-1.373018	-1.46415	0.3799
H	0.186942	-1.85878	0.737679
N	-0.458091	1.299452	0.503042
H	0.288275	1.657574	1.087769
H	-1.25957	1.138136	1.101379
F	2.693277	0.0	0.0
