15
Coordinates from ORCA-job run
  C   0.49474802089720     -0.24149701388256     -0.27141582208821
  C   -0.96807217096075     -0.66795888241475     -0.19260285261532
  Br  1.37509088675386     -1.91745465543337     -1.07732326378912
  H   -1.09803733658361     -1.48049063785476      0.51988531704406
  H   -1.34995822890396     -0.94674786457832     -1.17309320153890
  C   1.16490801886212     -0.03271115877120      1.07180516584219
  H   1.06523228517562     -0.91787001076359      1.69903884670280
  H   0.70272963699723      0.81878733943616      1.57342631001287
  H   2.22874547676439      0.16760919704242      0.92899021649602
  N   0.62156136277512      0.89418710189335     -1.08462100273631
  H   0.19782211346108      0.79581876444026     -1.99786227328348
  H   1.57656308722545      1.21445346807313     -1.17005441255219
  N   -1.80120364718914      0.48126097539139      0.27498389200262
  O   -1.79938026286007      0.71678641044760      1.48175181635775
  O   -2.40974924241453      1.11582696697425     -0.58290873585480
