15
Coordinates from ORCA-job run
  C   0.51749488397383     -0.35363794654779     -0.35360132638395
  C   -0.95930892472450     -0.72682523690140     -0.22710131170283
  Br  1.40845487893382     -2.07327936584925     -0.81849652703330
  H   -1.09911433052374     -1.58106228308041      0.42930315040365
  H   -1.38208904269298     -0.90495182249630     -1.21624755869670
  C   1.10657924512946      0.10335438601182      0.97436546508126
  H   2.18386781440064      0.24556953360814      0.87099787820254
  H   0.92867870365081     -0.62050201010897      1.77177803103941
  H   0.65977166103930      1.06178484967661      1.25645872608337
  N   0.70051132309575      0.54199820732982     -1.45551958850026
  H   -0.00172675770753      1.27262673754219     -1.43480501143408
  H   1.62619238489027      0.95129634185178     -1.44540232699772
  N   -1.71631771790728      0.40369815541944      0.39162926245862
  O   -2.12956427871652      0.25064877514837      1.53804174049702
  O   -1.84442984284132      1.42828167839594     -0.28140060301702
