15
Coordinates from ORCA-job run
  C   0.51636463693671     -0.35302221837609     -0.35691212104171
  C   -0.95550496996510     -0.73823252768118     -0.20872977051111
  Br  1.41820172222547     -2.06700281409696     -0.81554203559078
  H   -1.38896372678809     -0.92884212298033     -1.19087580130175
  H   -1.07935745845802     -1.58809761437072      0.45655045769099
  C   1.11613519328879      0.12425185308164      0.95923866868889
  H   0.95390317738051     -0.59239727098210      1.76645096281010
  H   2.19081950651383      0.27547200045512      0.84249800945244
  H   0.66331414299201      1.08151337394882      1.23551830865246
  N   0.67718327345795      0.53325421545284     -1.47073765393981
  H   -0.02851853290249      1.26054009597230     -1.44363835870372
  H   1.60020242276900      0.94891647635725     -1.47636133284657
  N   -1.71440639677077      0.39095853060093      0.40979109647771
  O   -1.86055504321690      1.40820012205717     -0.27072150674304
  O   -2.10981794746289      0.24548790056132      1.56347107690589
