15
Coordinates from ORCA-job run
  C   0.43634039181521     -0.10166943916743     -0.15434957751478
  C   -0.91326071956764      0.01382917363775      0.54127861163495
  Br  0.28119102674055     -1.75190831068853     -1.35780373111711
  H   -0.92781135310811      0.94251253817831      1.11909286415563
  H   -1.09688669529101     -0.84634187847385      1.18025386044347
  C   1.50659382483593     -0.44449949199381      0.86744670099012
  H   1.27587506952528     -1.37319772567820      1.38880913772214
  H   2.47155976951327     -0.56425900257173      0.37128918316213
  H   1.58422880280669      0.37657358762965      1.58567357587715
  N   0.77503715588753      1.06921335186056     -0.85510969675410
  H   1.67035149592102      0.98661661991215     -1.31815152443650
  H   0.05744268341422      1.34908063526795     -1.51073387845657
  N   -2.07666535117817      0.08788218153913     -0.39106409882706
  O   -3.01939801103700     -0.66398081067558     -0.17098529807446
  O   -2.02259809027776      0.92014857122363     -1.29564612880501
