19

C	0.0	0.0	0.0
C	-0.479023	-0.120801	-1.467829
Cl	1.808548	0.0	0.0
H	-1.569712	-0.190578	-1.378109
C	-0.442051	1.294371	0.664029
H	-1.533557	1.338936	0.604555
H	-0.000645	2.172719	0.190173
H	-0.141982	1.287035	1.716492
N	-0.460747	-1.188436	0.688472
H	-1.484106	-1.153384	0.635389
H	-0.212604	-1.118814	1.670473
N	-0.014702	-1.333056	-2.138185
H	1.00004	-1.298462	-2.179606
H	-0.24193	-2.112022	-1.528615
C	-0.152523	1.090316	-2.325792
H	-0.482614	0.879845	-3.344655
H	0.923383	1.29152	-2.345743
H	-0.672744	1.982711	-1.975467
Br	-3.904324	0.0	0.0
