19

C	0.0	0.0	0.0
C	-0.406934	0.245928	-1.493243
Cl	1.799154	0.0	0.0
H	0.475749	-0.003551	-2.087974
C	-0.49214	1.074613	0.953906
H	-0.154876	0.840133	1.967524
H	-1.587709	1.060076	0.941864
H	-0.129599	2.059563	0.665875
N	-0.409316	-1.33918	0.397576
H	-1.42995	-1.345419	0.406137
H	-0.107851	-1.485567	1.356611
N	-0.654904	1.678758	-1.700859
H	-0.688973	1.838192	-2.701676
H	-1.590577	1.880182	-1.353971
C	-1.542652	-0.640834	-1.997949
H	-2.480559	-0.453364	-1.470672
H	-1.283381	-1.697431	-1.915812
H	-1.702471	-0.413072	-3.058599
Br	-4.470575	0.0	0.0
