14

C	0.0	0.0	0.0
C	-0.547777	-0.035213	-1.414052
Br	1.943374	0.0	0.0
H	-1.656058	-0.107738	-1.231044
H	-0.193111	-0.912327	-1.953509
N	-0.612523	1.003963	0.719263
H	-1.662501	0.797201	0.562645
H	-0.396751	0.917324	1.707227
N	-0.289019	-1.435732	0.623674
O	-0.424187	-1.463544	1.84045
O	-0.322947	-2.40856	-0.119555
C	-0.233821	1.177875	-2.146069
N	-0.010815	2.14457	-2.775507
H	-2.91063	0.0	0.0
