13
Coordinates from ORCA-job run
  C   1.10525695725459     -0.06166684533305      0.40624418057797
  C   -0.10790061979309     -0.29797266452496     -0.49955696837620
  F   2.20537569299728     -0.70189668569528     -0.12162748873050
  H   0.15460218223235      0.07737959174866     -1.49485002596227
  H   0.92192967361071     -0.47372444884318      1.40350028298303
  C   1.39169086915758      1.37653223454793      0.51479817075164
  N   1.59377206657989      2.53054716743478      0.58549969210690
  C   -1.35848834487698      0.41584008195524      0.02277920706602
  H   -1.20184866414022      1.49537856241678      0.04457403088509
  H   -2.20740907958946      0.20350258183099     -0.62762275910438
  H   -1.60766748268982      0.07239085844126      1.02914294940491
  C   -0.33587194167258     -1.74124315952773     -0.60315901992159
  N   -0.55444130907025     -2.89306727445144     -0.65872225168063
