13
Coordinates from ORCA-job run
  C   1.12928674155003      0.46881293755493     -0.14898129079935
  C   -0.19151923880904     -0.12060169698111     -0.66214168739246
  F   1.07369982492162      1.84184282640044     -0.29131435224729
  H   -0.28475057899630      0.21304774912983     -1.70214025701927
  H   1.97081601779721      0.10516729668774     -0.74504800934374
  C   1.35482910267617      0.13742289848494      1.26519136372998
  N   1.52452560840323     -0.14121925602776      2.39268157871452
  C   -1.39512622705396      0.36598003381887      0.14746032175697
  H   -1.42250434330926      1.45619406089618      0.14518518837884
  H   -1.33666309200466      0.01339448062583      1.17874304882445
  H   -2.31942878952231     -0.00834929918717     -0.29428266058822
  C   -0.09067328105082     -1.58086843071925     -0.65703834192094
  N   -0.01049174460189     -2.75182360068348     -0.63031490209349
