13
Coordinates from ORCA-job run
  C   1.13344202195231      0.42868318837064     -0.21457979605169
  C   -0.23301442159515     -0.11851306333392     -0.64895894299252
  F   1.11820069995390      1.80143771672700     -0.37438047056365
  H   -0.37479197779141      0.21995532977041     -1.68181235722471
  H   1.92876405970728      0.02737455701742     -0.84884808618894
  C   1.42187088016566      0.11027958606392      1.19144286617262
  N   1.63791668853206     -0.14754866990613      2.31576728895837
  C   -1.37133240992470      0.40541458545560      0.22836330065163
  H   -2.33259614717213      0.07409213828168     -0.16612768975250
  H   -1.27234400957099      0.03904082205290      1.25143528365519
  H   -1.35424176554526      1.49571298623845      0.23790684786128
  C   -0.17643848982943     -1.58100725734357     -0.65147029955339
  N   -0.12443512888212     -2.75392191939442     -0.63873794497169
