13
Coordinates from ORCA-job run
  C   1.13825536784103      0.43736601604834     -0.16403448339212
  C   -0.19503054627085     -0.14204489121403     -0.65611145997204
  F   1.11553061220756      1.80422651530172     -0.36611090811071
  H   -0.28201964020998      0.15990130739168     -1.70632782354005
  H   1.97244984248651      0.02838087066060     -0.74084342557156
  C   1.35157520088755      0.16486015343294      1.26445996887242
  N   1.50811025335331     -0.05836175987848      2.40602971119598
  C   -1.38749081882101      0.39508473260759      0.13729384519951
  H   -1.38710233154689      1.48513054171597      0.10566558614251
  H   -2.32051737503112      0.03315190662586     -0.29632679133910
  H   -1.33963507884779      0.06927109309089      1.17764886417275
  C   -0.12032624761556     -1.60294955928156     -0.60720813110304
  N   -0.05379923843277     -2.77401692650152     -0.55413495255454
