13
Coordinates from ORCA-job run
  C   0.92787299963284      0.54449424284879      0.30252485298842
  C   -0.20137412136289     -0.23777424764798     -0.37513677024030
  F   0.59462055918406      0.78847974452801      1.61783751739095
  H   0.11150105024792     -0.42560658339414     -1.40938310964672
  H   1.04526868892265      1.51222307194877     -0.19598880321356
  C   2.20449563712596     -0.18132469320158      0.24609332535347
  N   3.22493045073429     -0.75486012489572      0.16200485190268
  C   -1.50573047178974      0.56497621385948     -0.36292523151919
  H   -2.29907829667590      0.00568301930245     -0.85977173775381
  H   -1.36798933235710      1.51196791699499     -0.88989572314474
  H   -1.81395628135248      0.77172364001529      0.66164686498357
  C   -0.37619789091200     -1.53433361091234      0.28481465479393
  N   -0.54536299139761     -2.56664858944601      0.81717930810531
