13
Coordinates from ORCA-job run
  C   0.92712580975694      0.54246821896363      0.31183502283384
  C   -0.19378747100067     -0.24169923243463     -0.37744476327989
  F   0.56451428929463      0.81747491660479      1.61350583925332
  H   0.14079350628350     -0.45064638582220     -1.40075463185215
  H   1.06771006353679      1.49856233436981     -0.20281077841168
  C   2.19577437386896     -0.19904359459295      0.30429078089502
  N   3.20954324287516     -0.78914927702752      0.26550440114432
  C   -1.49095403479981      0.57237259329477     -0.40864510884065
  H   -2.27835808000170      0.01031512363775     -0.91180632337032
  H   -1.81902856419166      0.80051179737743      0.60518906963589
  H   -1.33392388835863      1.50825663811371     -0.94991611670940
  C   -0.39648255159835     -1.52438349116979      0.30131184203985
  N   -0.59192669566516     -2.54403964131481      0.84874076666186
