13
Coordinates from ORCA-job run
  C   1.14127391346007      0.42732970806328     -0.17355468155482
  C   -0.19728735296174     -0.15069856850829     -0.65308607043252
  F   1.12763461775460      1.79009022824614     -0.39804189427610
  H   -0.28504975294042      0.13557835936804     -1.70772263723590
  H   1.97123004934577      0.00237804360407     -0.74464607715669
  C   1.35604547987643      0.17545719772673      1.25854689178898
  N   1.51298248621000     -0.03080966359474      2.40320958693816
  C   -1.38437320430400      0.40674150860407      0.13421299838915
  H   -1.37942186988927      1.49584794631546      0.08198645678528
  H   -1.33475680159388      0.10053282919206      1.18032344565949
  H   -2.32032571783839      0.04078406307782     -0.28930702122061
  C   -0.13268245907688     -1.61140579452444     -0.58194744195021
  N   -0.07526938804229     -2.78182585757018     -0.50997355573418
