13
Coordinates from ORCA-job run
  C   1.13579823724312      0.43444062962315     -0.18983424578707
  C   -0.21234986888713     -0.13462717441116     -0.65254525901741
  F   1.11296280970738      1.80350561622569     -0.37452102482271
  H   -0.32496144801218      0.17546238571464     -1.69788208592038
  H   1.95254986795596      0.02947946618760     -0.79386407071109
  C   1.38728145439421      0.14260351354954      1.22872787262110
  N   1.57398909569265     -0.09692272796299      2.36238221896125
  C   -1.38164204323556      0.40223701099418      0.17521840882426
  H   -2.32676132568296      0.04580942304693     -0.23612629418666
  H   -1.30795461037569      0.06962746221803      1.21195434883414
  H   -1.37826872612696      1.49235514862152      0.15029746957224
  C   -0.14482653157805     -1.59615554372287     -0.61420539921266
  N   -0.08581691109480     -2.76781521008426     -0.56760193915500
