16

C	0.0	0.0	0.0
C	-0.565192	0.203937	-1.4226
Cl	1.750643	0.0	0.0
H	-1.376616	0.917486	-1.287838
H	-0.37266	-0.914583	0.441893
N	-0.412501	1.103229	0.933923
O	-0.557093	0.8005	2.113163
O	-0.479852	2.239401	0.477235
N	-1.123085	-1.10509	-1.791571
H	-1.449845	-1.030694	-2.751971
H	-1.965607	-1.073705	-1.184665
C	0.413351	0.708477	-2.468244
H	1.170227	-0.040672	-2.705562
H	0.904715	1.628608	-2.150949
H	-0.151572	0.926632	-3.381496
F	-2.653733	0.0	0.0
