16

C	0.0	0.0	0.0
C	-0.414002	0.018303	-1.532028
Cl	1.765611	0.0	0.0
H	0.509298	0.240929	-2.077321
H	-0.389504	-0.84589	0.551696
N	-0.402077	1.203694	0.796508
O	-0.72902	1.014639	1.962215
O	-0.286913	2.305024	0.262569
N	-1.428165	0.939729	-1.986453
H	-1.103625	1.882826	-1.80324
H	-2.210274	0.739973	-1.32523
C	-0.863155	-1.404971	-1.841732
H	-1.790582	-1.545078	-1.285065
H	-1.048552	-1.497582	-2.914817
H	-0.113905	-2.146871	-1.541696
F	-2.647405	0.0	0.0
