16

C	0.0	0.0	0.0
C	-0.412105	0.055206	-1.53202
Cl	1.765432	0.0	0.0
H	0.508524	0.298084	-2.069975
H	-0.392161	-0.857887	0.531485
N	-0.403709	1.186323	0.823311
O	-0.288356	2.29984	0.314766
O	-0.738652	0.97106	1.981625
N	-1.432868	0.978078	-1.96509
H	-1.120028	1.918995	-1.761744
H	-2.212994	0.757763	-1.305935
C	-0.853564	-1.362938	-1.876164
H	-1.788837	-1.50825	-1.332848
H	-1.023332	-1.437356	-2.951886
H	-0.114009	-2.115027	-1.5782
F	-2.651369	0.0	0.0
