15

C	-0.607649	-0.003138	-1.387115
C	0.0	0.0	0.0
F	0.115433	0.69961	-2.293994
H	1.097382	0.0	0.0
H	-1.639713	0.344156	-1.387629
N	-0.666799	-1.416509	-1.912174
O	-1.688502	-1.725002	-2.525969
O	0.320529	-2.124951	-1.751929
N	-0.564635	-1.105035	0.762109
H	-0.60583	-0.801171	1.728709
H	0.122838	-1.850998	0.72419
N	-0.398055	1.28823	0.662297
O	-0.626356	2.255496	-0.061977
O	-0.426795	1.309398	1.891201
Cl	3.26093	0.0	0.0
