15

C	-0.485177	-0.017249	-1.430878
C	0.0	0.0	0.0
F	0.064539	-1.075012	-2.073091
H	1.10001	0.0	0.0
H	-0.273301	0.906024	-1.965403
N	-1.989313	-0.204268	-1.443992
O	-2.619751	0.705093	-0.917765
O	-2.454005	-1.208149	-1.962579
N	-0.585917	-1.119705	0.711408
H	-0.060023	-1.937192	0.423658
H	-0.403186	-0.98113	1.698567
N	-0.384805	1.286289	0.654445
O	-0.767011	1.243096	1.819818
O	-0.212779	2.311059	0.004215
Cl	3.246797	0.0	0.0
