15

C	-0.6493	0.061616	-1.369996
C	0.0	0.0	0.0
F	-0.188255	1.110949	-2.09261
H	1.089863	0.0	0.0
H	-1.737831	0.121207	-1.295753
N	-0.38026	-1.209217	-2.131393
O	0.664624	-1.280757	-2.760428
O	-1.26054	-2.063624	-2.059484
N	-0.453139	-1.14499	0.704565
H	-1.400488	-1.034626	1.041204
H	0.180358	-1.352475	1.464157
N	-0.462038	1.314418	0.648081
O	-1.600579	1.303351	1.133242
O	0.284883	2.282409	0.615765
Cl	3.294707	0.0	0.0
