17

C	0.0	0.0	0.0
C	-0.54032	-0.057818	-1.438269
Cl	1.790086	0.0	0.0
H	-1.641318	-0.059496	-1.26069
C	-0.346134	1.340234	0.548088
N	-0.517195	2.415718	0.993274
N	-0.558466	-1.088008	0.726193
H	-1.598744	-0.927075	0.600464
H	-0.347616	-0.970043	1.713477
N	-0.196582	-1.380012	-2.042739
O	0.869959	-1.470135	-2.661901
O	-1.009154	-2.294108	-1.919263
C	-0.082503	1.061318	-2.345261
H	-0.536092	0.937991	-3.331937
H	-0.416602	2.016983	-1.934566
H	1.001454	1.070678	-2.461092
H	-2.928499	0.0	0.0
