17

C	0.0	0.0	0.0
C	-0.217234	0.166486	-1.546643
Cl	1.832942	0.0	0.0
H	0.364122	-0.659957	-1.953726
C	-0.422724	1.09196	0.882034
N	-0.501615	1.898036	1.739187
N	-0.446245	-1.312466	0.371643
H	-0.092711	-1.509544	1.30582
H	-1.483906	-1.145157	0.41519
N	0.497903	1.39222	-2.044276
O	0.215999	2.468956	-1.525606
O	1.272369	1.24649	-2.991387
C	-1.568899	0.199588	-2.234575
H	-2.132881	-0.695244	-1.993858
H	-2.16626	1.04289	-1.904603
H	-1.358027	0.251268	-3.312865
H	-2.653375	0.0	0.0
