16

C	-0.536184	0.018123	-1.396928
C	0.0	0.0	0.0
F	-1.909719	-0.15464	-1.45952
H	1.098103	0.0	0.0
H	-0.283713	0.948095	-1.899544
N	0.048355	-1.073457	-2.257559
O	0.904978	-0.73772	-3.067905
O	-0.375888	-2.216971	-2.100405
C	-0.473162	-1.185003	0.827272
H	0.047599	-1.146375	1.787349
H	-0.226463	-2.13504	0.351728
H	-1.55596	-1.16154	1.005358
N	-0.369293	1.299171	0.594969
H	-1.109205	1.182191	1.279261
H	0.45985	1.627554	1.074376
F	2.628548	0.0	0.0
