16

C	-0.623471	0.029029	-1.357089
C	0.0	0.0	0.0
F	-0.231311	-1.017037	-2.159534
H	1.096878	0.0	0.0
H	-1.717239	0.040211	-1.323262
N	-0.281581	1.28086	-2.143188
O	-1.009177	1.49688	-3.117084
O	0.677094	1.965667	-1.808998
C	-0.454793	-1.256203	0.722249
H	-0.186129	-2.146583	0.151017
H	-1.539197	-1.266355	0.907694
H	0.070353	-1.311534	1.679164
N	-0.506349	1.22053	0.67206
H	-0.806962	0.980058	1.609481
H	0.302611	1.824676	0.770536
F	2.652275	0.0	0.0
