16

C	-0.507882	0.03747	-1.423324
C	0.0	0.0	0.0
F	-0.165316	-1.084195	-2.12235
H	1.095495	0.0	0.0
H	-1.59634	0.160802	-1.499326
N	0.043131	1.220065	-2.183966
O	-0.565498	2.280141	-2.018699
O	1.024952	1.06312	-2.892203
C	-0.534956	-1.251411	0.676618
H	-0.119245	-1.280545	1.685005
H	-1.631806	-1.241919	0.757679
H	-0.221149	-2.153201	0.146938
N	-0.3927	1.200109	0.748269
H	0.402132	1.826169	0.725587
H	-1.173818	1.68486	0.325691
F	2.637927	0.0	0.0
