16

C	-0.292727	-0.005204	-1.484441
C	0.0	0.0	0.0
F	-0.022355	1.207842	-2.054082
H	1.097009	0.0	0.0
H	0.259034	-0.784288	-2.010527
N	-1.750632	-0.278654	-1.751852
O	-2.067041	-1.444404	-1.998032
O	-2.547958	0.650256	-1.605518
C	-0.485839	-1.274629	0.663294
H	-0.08062	-1.291096	1.675947
H	-1.580403	-1.336803	0.725594
H	-0.121088	-2.159669	0.133962
N	-0.489745	1.182783	0.691318
H	-1.415464	1.44217	0.367507
H	0.140195	1.944621	0.473079
F	2.630687	0.0	0.0
