16

C	-0.504834	0.013731	-1.409824
C	0.0	0.0	0.0
F	-1.863193	-0.226875	-1.523013
H	1.098105	0.0	0.0
H	-0.280684	0.960988	-1.893711
N	0.169595	-1.035973	-2.258017
O	-0.207474	-2.200033	-2.136285
O	1.046712	-0.648208	-3.022165
C	-0.499321	-1.182225	0.811031
H	-0.258023	-2.129997	0.328712
H	-1.585075	-1.144968	0.967342
H	0.002628	-1.160832	1.781826
N	-0.382479	1.301015	0.591551
H	0.477993	1.691607	0.956808
H	-1.006573	1.159665	1.37509
F	2.627209	0.0	0.0
