16

C	-0.384387	0.079855	-1.45401
C	0.0	0.0	0.0
F	-1.709857	0.446803	-1.652438
H	1.093757	0.0	0.0
H	0.252333	0.786372	-1.987119
N	-0.217979	-1.236408	-2.165938
O	0.866914	-1.436673	-2.70406
O	-1.162052	-2.023994	-2.138987
C	-0.606741	-1.174058	0.742975
H	-0.302536	-1.08555	1.786784
H	-0.235623	-2.127746	0.360525
H	-1.702063	-1.182464	0.696942
N	-0.351619	1.27251	0.649877
H	-1.161784	1.70584	0.223982
H	0.44963	1.886136	0.550295
F	2.636628	0.0	0.0
