16

C	-0.372783	0.019914	-1.450128
C	0.0	0.0	0.0
F	0.074335	1.159834	-2.061281
H	1.1034	0.0	0.0
H	0.01866	-0.848019	-1.981933
N	-1.871814	-0.007009	-1.666467
O	-2.468852	1.050507	-1.835748
O	-2.394912	-1.122723	-1.608974
C	-0.478472	-1.250412	0.711421
H	-1.565521	-1.274634	0.831721
H	-0.010193	-1.277592	1.699705
H	-0.157057	-2.149847	0.180561
N	-0.568927	1.197766	0.655085
H	-0.144489	1.216232	1.578472
H	-0.163538	1.998742	0.177309
F	2.656795	0.0	0.0
