16

C	-0.277932	0.011528	-1.486718
C	0.0	0.0	0.0
F	0.003778	1.229026	-2.041314
H	1.097073	0.0	0.0
H	0.275905	-0.764462	-2.014861
N	-1.735025	-0.251497	-1.773124
O	-2.051466	-1.412346	-2.039027
O	-2.52975	0.678857	-1.624017
C	-0.505395	-1.274683	0.647787
H	-1.601121	-1.322472	0.697075
H	-0.146392	-2.160315	0.115685
H	-0.112856	-1.303842	1.665013
N	-0.48248	1.185501	0.696074
H	0.188713	1.923227	0.523659
H	-1.380598	1.489156	0.332571
F	2.63411	0.0	0.0
