17

C	0.0	0.0	0.0
C	-0.376065	-0.199575	-1.507988
Cl	1.796419	0.0	0.0
H	0.389806	0.337996	-2.077477
C	-0.370519	1.366276	0.3911
N	-0.589406	2.471305	0.726677
C	-0.633403	-1.007223	0.93464
H	-0.333453	-2.019222	0.658026
H	-1.727074	-0.893215	0.841746
H	-0.331722	-0.806302	1.965019
C	-1.754292	0.33385	-1.9055
H	-2.022421	-0.05567	-2.891771
H	-2.562653	0.085804	-1.17999
H	-1.702824	1.423962	-1.966899
C	-0.205409	-1.613712	-1.851708
N	-0.060325	-2.738158	-2.160249
H	-3.853809	0.0	0.0
