16

C	0.0	0.0	0.0
C	-0.376419	0.059079	-1.532494
Cl	1.791653	0.0	0.0
H	0.575781	0.099691	-2.071398
H	-0.356133	-0.919084	0.453566
C	-0.462891	1.141733	0.781936
N	-0.603547	2.130767	1.40163
C	-1.172258	1.298535	-1.929769
H	-1.32382	1.294831	-3.01632
H	-2.120811	1.243533	-1.393608
H	-0.639049	2.218222	-1.668529
C	-1.089841	-1.226834	-1.938544
H	-2.020534	-1.240151	-1.367904
H	-1.283175	-1.227765	-3.017726
H	-0.474266	-2.105495	-1.709177
F	-2.548737	0.0	0.0
