14

C	-0.349183	-0.1375	-1.449525
C	0.0	0.0	0.0
Br	-2.275839	-0.26361	-1.832813
H	1.094511	0.0	0.0
H	0.098534	-1.049815	-1.830543
N	0.186873	0.980569	-2.292158
O	-0.028888	2.128448	-1.921913
O	0.797851	0.653028	-3.307234
N	-0.33109	-1.263751	0.66464
H	0.442992	-1.469073	1.28582
H	-1.182889	-1.188655	1.20658
C	-0.557389	1.159806	0.674724
N	-1.000505	2.029048	1.332705
F	2.504452	0.0	0.0
