14

C	-0.582537	0.013412	-1.400448
C	0.0	0.0	0.0
Br	0.098004	1.481549	-2.46357
H	1.093255	0.0	0.0
H	-1.670113	0.07178	-1.433186
N	-0.25662	-1.282929	-2.089723
O	-1.228327	-1.934662	-2.476794
O	0.915644	-1.59808	-2.207089
N	-0.374072	-1.270009	0.630191
H	-1.154065	-1.174931	1.267171
H	0.443436	-1.58581	1.138072
C	-0.494825	1.160495	0.727372
N	-0.921348	2.057998	1.358324
F	2.514947	0.0	0.0
