14

C	-0.493823	-0.002394	-1.450801
C	0.0	0.0	0.0
Br	0.263819	1.433098	-2.49372
H	1.093629	0.0	0.0
H	-1.577157	0.068946	-1.550163
N	-0.152768	-1.332714	-2.066872
O	0.988758	-1.551894	-2.439075
O	-1.086096	-2.143656	-2.079937
N	-0.360114	-1.206985	0.73243
H	0.423337	-1.843054	0.655811
H	-1.203632	-1.653645	0.396874
C	-0.556804	1.179332	0.651557
N	-1.016717	2.126459	1.175844
F	2.516986	0.0	0.0
