14

C	-0.588812	-0.002338	-1.399842
C	0.0	0.0	0.0
Br	0.08815	1.451329	-2.485063
H	1.093218	0.0	0.0
H	-1.676929	0.053909	-1.429311
N	-0.265139	-1.310921	-2.07101
O	-1.239469	-1.979406	-2.426698
O	0.908948	-1.616392	-2.206195
N	-0.367525	-1.265779	0.641835
H	-1.126793	-1.167916	1.301583
H	0.461536	-1.584715	1.125846
C	-0.494389	1.164541	0.719524
N	-0.918067	2.069873	1.341084
F	2.515733	0.0	0.0
