14

C	-0.197734	-0.135883	-1.483772
C	0.0	0.0	0.0
Br	-2.060841	-0.448971	-2.070427
H	1.095669	0.0	0.0
H	0.381332	-0.984687	-1.839776
N	0.302276	1.042255	-2.269927
O	-0.11104	2.154994	-1.961113
O	1.082746	0.788637	-3.18363
N	-0.320007	-1.232664	0.713458
H	-1.07942	-1.73939	0.278617
H	0.520485	-1.796894	0.708788
C	-0.650897	1.140111	0.614239
N	-1.177837	2.025069	1.179864
F	2.498342	0.0	0.0
