14

C	-0.608916	0.111035	-1.379254
C	0.0	0.0	0.0
Br	0.077886	1.628759	-2.368452
H	1.107503	0.0	0.0
H	-1.694718	0.190309	-1.388072
N	-0.325711	-1.137178	-2.172774
O	0.807599	-1.586933	-2.1657
O	-1.287608	-1.598939	-2.792515
N	-0.405976	-1.296484	0.560362
H	-1.107172	-1.199596	1.283045
H	0.431604	-1.699719	0.963091
C	-0.450072	1.123027	0.808379
N	-0.805105	2.001409	1.506251
F	2.512719	0.0	0.0
