14

C	-0.353409	0.073798	-1.450607
C	0.0	0.0	0.0
Br	-2.28475	0.094797	-1.842619
H	1.103467	0.0	0.0
H	0.048221	-0.799451	-1.955119
N	0.23495	1.268864	-2.137804
O	0.777861	1.061891	-3.221066
O	0.123585	2.357055	-1.586024
N	-0.33385	-1.343726	0.483647
H	0.445871	-1.632164	1.063465
H	-1.173618	-1.335946	1.050412
C	-0.545676	1.05639	0.833374
N	-0.999389	1.822448	1.60323
F	2.500407	0.0	0.0
