14

C	-0.282425	-0.159757	-1.489267
C	0.0	0.0	0.0
Br	0.325391	-1.864583	-2.164477
H	1.096422	0.0	0.0
H	0.228025	0.614809	-2.057536
N	-1.742961	-0.027336	-1.827257
O	-2.526973	-0.819638	-1.306829
O	-2.061575	0.910457	-2.557617
N	-0.442626	-1.04482	0.897162
H	0.299516	-1.73007	0.947988
H	-1.296123	-1.483417	0.57758
C	-0.512542	1.306194	0.398582
N	-0.923541	2.368892	0.691968
F	2.519065	0.0	0.0
