12
Coordinates from ORCA-job run
  C   0.73751860046417      0.42568674106198      0.03534148707657
  C   -0.48578439359957      0.06103651251050     -0.80940246045503
  Br  1.84339154658833      1.58503358420913     -1.11137014362411
  H   -0.18450615776856     -0.47724472630696     -1.70873087037282
  H   -1.04185555857080      0.95714498525305     -1.08694339008973
  C   0.37050767642119      1.19250688128869      1.22289144792448
  N   0.06574208070613      1.84903401644050      2.14906578313365
  C   1.53266856416861     -0.75034488679978      0.37893620879961
  N   2.18684671254929     -1.69949245395764      0.60863494243387
  N   -1.43846586876985     -0.83092860642698     -0.06650005537379
  O   -1.14737246311092     -1.15728931425199      1.08065828658117
  O   -2.43769073907800     -1.15514273302051     -0.69358123603387
