12
Coordinates from ORCA-job run
  C   0.72287704542876      0.42216338675192      0.15940687547707
  C   -0.57915076009238      0.37877209892235     -0.64419207973030
  Br  1.64857947273263      2.06060089736599     -0.42533429019221
  H   -0.36946288859368      0.33180136717376     -1.71336875421329
  H   -1.19191326171673      1.25493232177363     -0.42920548592512
  C   0.47375900415921      0.53938609270963      1.59372774181507
  N   0.25873926257620      0.68016956323286      2.74071414346021
  C   1.58980775788703     -0.71265997715792     -0.14608318909101
  N   2.29631317585333     -1.60608611875576     -0.43634755672152
  N   -1.40916098631687     -0.82669860359255     -0.30901149855035
  O   -0.97631574604656     -1.60921826096174      0.53218877350875
  O   -2.46407207587094     -0.91416276746218     -0.92249467983732
