12
Coordinates from ORCA-job run
  C   0.76712146926607      0.36609873971489      0.06436382475704
  C   -0.52802264040754      0.25061952810748     -0.74335078110641
  Br  1.88305100837312      1.66422078816098     -0.91172760710557
  H   -0.32046985275401     -0.11230877622626     -1.75063655343282
  H   -1.03403224091443      1.21515870409615     -0.79855824137843
  C   0.52893312755137      0.90009683546403      1.40256001230844
  N   0.32767199661742      1.37401512610394      2.45919197272271
  C   1.49415569796251     -0.89976778211956      0.11083548139038
  N   2.09050644961466     -1.91262339935242      0.10109428229087
  N   -1.49595267295905     -0.71488086303587     -0.12255794702037
  O   -1.16201946348149     -1.27951233973734      0.91520650927817
  O   -2.55094287886864     -0.84911656117603     -0.72742095270401
