12
Coordinates from ORCA-job run
  C   0.61701637422010      0.36315299557043      0.24282614180458
  C   -0.80366158439410     -0.21763782433618      0.23108744536847
  Br  0.61799805901939      2.09730280844498     -0.67454595300944
  H   -1.47642973384443      0.42844906136013      0.79189363194530
  H   -0.79125289931758     -1.22696697996565      0.65097562840389
  C   0.98377136129166      0.59196776055781      1.64109933593955
  N   1.24167871734215      0.75276496651753      2.77700644849606
  C   1.61612973882212     -0.50666499110868     -0.37662524513757
  N   2.45809273193850     -1.20580336869281     -0.80613368814054
  N   -1.35061207328225     -0.32527239506221     -1.15535506721088
  O   -0.61888288392186     -0.83464921210611     -1.99710037765445
  O   -2.49384780787369      0.08335717882075     -1.32412830080498
