12
Coordinates from ORCA-job run
  C   0.67746097642197      0.30349045725330      0.17762502774789
  C   -0.82436495124166     -0.00233747331231      0.22821526672219
  Br  1.00745163867509      1.76258063763084     -1.09065526808782
  H   -1.37268992368647      0.86635838843084      0.58844026946836
  H   -1.00447742282901     -0.86341966872525      0.87794302373947
  C   1.06896937892026      0.76892797221433      1.50939556408499
  N   1.35622275287693      1.11495652930419      2.59580432021522
  C   1.50153451358652     -0.84932722314202     -0.18350424406504
  N   2.19472451126118     -1.77426800425237     -0.39810025618212
  N   -1.38836104778761     -0.34810135126743     -1.11331959273801
  O   -2.53215682181511      0.03681086653340     -1.32681905647544
  O   -0.68431360438208     -1.01467113066752     -1.86302505442971
