12
Coordinates from ORCA-job run
  C   0.58706447975917      0.45699416265806      0.30339360052178
  C   -0.82589243933325     -0.15662091177798      0.26026286511656
  Br  0.59776419570443      2.36154127808756     -0.15805158748508
  H   -1.54475280296406      0.53106695823912      0.70786934542068
  H   -0.82219980684039     -1.11316576895128      0.78244822223772
  C   1.06911833274269      0.34777999479071      1.68078931942694
  N   1.40660048806441      0.24269161483564      2.80212048402976
  C   1.48571873221694     -0.25959527529980     -0.60084520991675
  N   2.17792591802921     -0.86796304105349     -1.33103463104915
  N   -1.26526167239005     -0.44244223835504     -1.14015013797544
  O   -1.63513433657017     -1.58978023262272     -1.36997640231001
  O   -1.23195108841893      0.49049345944923     -1.93482586801701
