12
Coordinates from ORCA-job run
  C   0.72911954606190      0.42844069440271     -0.04274078190200
  C   -0.57998617450931      0.11097768530192     -0.78014710993047
  Br  1.82369542593577      1.47923564826061     -1.29522438992170
  H   -1.15604945064136      1.02548184241166     -0.92489132901722
  H   -0.36471582208142     -0.38255715137382     -1.72545613262636
  C   0.53515063343964      1.23550397317808      1.15955520600519
  N   0.40965900856847      1.90920715262011      2.11490263042384
  C   1.44661960433158     -0.80482638575196      0.27466476724547
  N   1.99072708161479     -1.81910934455570      0.51499620650004
  N   -1.41010046248165     -0.83206707844407      0.03384594880213
  O   -1.65328047528554     -1.92732710027406     -0.46276149188639
  O   -1.77183891495288     -0.42495993577548      1.13425647630747
