12
Coordinates from ORCA-job run
  C   0.72830421346418      0.42877050772371     -0.03017116501852
  C   -0.54330380405520      0.08146140275182     -0.81801344576205
  Br  1.76927549847261      1.64698102068602     -1.16984588146440
  H   -1.10283428549223      0.98996066999718     -1.03278163526728
  H   -0.27835768066673     -0.46130096671587     -1.72441553553398
  C   0.40503762682887      1.12612157398934      1.21285487366375
  N   0.12956152423045      1.68848376550136      2.20817792583378
  C   1.55018641815450     -0.74765338652968      0.24452594062969
  N   2.22720981881652     -1.68451719173735      0.46013060401475
  N   -1.41906586883109     -0.80589510414079      0.00912768416446
  O   -1.12486309925656     -1.99858123305766      0.02648177033755
  O   -2.34115036166532     -0.26383105846808      0.61292886440224
