15
Coordinates from ORCA-job run
  C   -0.45540050505592     -0.52195819084533     -0.17325719134706
  C   0.69188894521274      0.50656922185047      0.00947353174872
  Br  0.25367231171940     -2.33854276719875     -0.07302324373012
  H   0.19150900768315      1.49031925989185      0.01795498579803
  C   -0.99645976794561     -0.32248308812219     -1.51564555354225
  N   -1.44376216506889     -0.09340314297464     -2.57862155188296
  C   -1.54357327977367     -0.34705509621061      0.88105163351244
  H   -1.94370677596642      0.67012496438243      0.83570466449451
  H   -1.12959846981904     -0.53022375812843      1.87391379242126
  H   -2.35597874889067     -1.05190305864353      0.70426292981421
  N   1.69049435766914      0.36796544875101     -1.03465203238553
  H   1.35921612893630      0.79849175784874     -1.88997900402909
  H   2.55807645771888      0.81351745857578     -0.76520607869495
  C   1.30887953213589      0.33291274675180      1.32749017426586
  N   1.81674297144473      0.22566824407141      2.38053294355693
