15
Coordinates from ORCA-job run
  C   -0.49445801686420     -0.49540446792791     -0.13964559633069
  C   0.72711579985009      0.45400737212261     -0.02450678137898
  Br  0.08110396716248     -2.35190183800112      0.05103512443874
  H   0.30007663938423      1.47117720196910     -0.06497028482717
  C   -1.03714612715359     -0.32931514280127     -1.48584833945038
  N   -1.46177383818890     -0.12620562994376     -2.56337129466757
  C   -1.55196185560429     -0.18562686378802      0.91458825982590
  H   -1.87747388572420      0.85451946195117      0.81894464284162
  H   -2.41593031972709     -0.83734206990699      0.78370506369384
  H   -1.13907448553713     -0.34598156732041      1.91190997389580
  N   1.70048712757077      0.18499675724046     -1.06665573693795
  H   2.59488975553141      0.59990062272859     -0.83902620962528
  H   1.38077469028944      0.57117204206136     -1.94729698221117
  C   1.34608780540948      0.30732085724653      1.29602250010438
  N   1.84628274360149      0.22768326436965      2.35511566062891
