16

C	-0.401706	-0.030516	-1.488198
C	0.0	0.0	0.0
Cl	0.099411	1.539168	-2.215952
H	1.09628	0.0	0.0
C	0.396409	-1.126258	-2.181529
H	0.229548	-1.08226	-3.26156
H	0.06805	-2.102139	-1.811844
H	1.459377	-0.997493	-1.949991
N	-1.843984	-0.108488	-1.630502
H	-2.160687	-0.957658	-1.172622
H	-2.073152	-0.18201	-2.617029
C	-0.439602	-1.230092	0.638638
N	-0.792425	-2.247828	1.11321
C	-0.51829	1.149944	0.719677
N	-0.885546	2.079749	1.33835
H	2.562692	0.0	0.0
