16

C	-0.373576	0.029667	-1.478687
C	0.0	0.0	0.0
Cl	-2.267829	0.328334	-1.625212
H	1.097409	0.0	0.0
C	0.293113	1.202118	-2.156757
H	0.093467	1.184091	-3.231296
H	1.367635	1.104236	-1.958511
H	-0.072637	2.144136	-1.748659
N	-0.022042	-1.187109	-2.084813
H	-0.437009	-1.987754	-1.624492
H	-0.255672	-1.191418	-3.067842
C	-0.467296	-1.206168	0.655606
N	-0.813695	-2.226341	1.128729
C	-0.428063	1.189669	0.711427
N	-0.715045	2.183107	1.270895
H	2.525588	0.0	0.0
