16

C	-0.185337	-0.018019	-1.536076
C	0.0	0.0	0.0
Cl	-1.941178	-0.217529	-1.968429
H	1.098507	0.0	0.0
C	0.329567	1.282608	-2.114843
H	1.375665	1.385911	-1.802389
H	0.268334	1.23176	-3.202753
H	-0.243822	2.137734	-1.749722
N	0.549985	-1.118567	-2.114782
H	0.187832	-1.992908	-1.744422
H	1.507142	-1.014499	-1.752798
C	-0.455712	-1.229172	0.618247
N	-0.795738	-2.252701	1.087136
C	-0.52839	1.170642	0.666482
N	-0.927544	2.147288	1.186478
H	2.56322	0.0	0.0
