16

C	-0.202052	-0.03447	-1.518644
C	0.0	0.0	0.0
Cl	-1.963718	-0.270117	-1.965988
H	1.098457	0.0	0.0
C	0.248706	1.28601	-2.123047
H	0.206381	1.219762	-3.213599
H	1.284855	1.446081	-1.804067
H	-0.373217	2.121589	-1.797315
N	0.539641	-1.183078	-1.962739
H	1.47849	-1.092584	-1.550733
H	0.623202	-1.162509	-2.973243
C	-0.469709	-1.20014	0.669369
N	-0.835783	-2.147548	1.261085
C	-0.511113	1.196973	0.635701
N	-0.893845	2.187808	1.140793
H	2.567198	0.0	0.0
