16

C	-0.410651	-0.04497	-1.481704
C	0.0	0.0	0.0
Cl	0.253711	1.514273	-2.225708
H	1.095344	0.0	0.0
C	0.300448	-1.190159	-2.172351
H	-0.09129	-2.134853	-1.787944
H	0.132589	-1.143533	-3.251506
H	1.369201	-1.115668	-1.954391
N	-1.825481	-0.122439	-1.636687
H	-2.272662	0.667905	-1.184366
H	-2.066281	-0.106081	-2.6219
C	-0.429638	-1.215495	0.674807
N	-0.721795	-2.226907	1.199595
C	-0.525476	1.164968	0.688747
N	-0.938193	2.111774	1.252966
H	2.550059	0.0	0.0
