16

C	-0.500705	-0.043456	-1.451224
C	0.0	0.0	0.0
F	-0.30588	-1.348237	-1.886773
H	1.090371	0.0	0.0
H	0.121787	0.602432	-2.070074
N	-1.878425	0.303856	-1.64595
H	-1.967413	1.291617	-1.828963
H	-2.441931	0.069439	-0.843143
C	-0.515309	-1.125768	0.866573
H	-1.607085	-1.176925	0.899947
H	-0.123742	-2.059358	0.464587
H	-0.148185	-1.005344	1.884868
N	-0.407347	1.334938	0.526736
O	-0.077721	2.314576	-0.141563
O	-1.065857	1.399362	1.567764
Br	3.492791	0.0	0.0
