16

C	-0.478538	-0.009425	-1.445745
C	0.0	0.0	0.0
F	-0.047686	-1.225589	-2.00761
H	1.092026	0.0	0.0
H	0.014646	0.781862	-2.006908
N	-1.89149	0.136136	-1.54403
H	-2.168698	0.199419	-2.514811
H	-2.351581	-0.66481	-1.130011
C	-0.512523	-1.156018	0.828843
H	-1.59697	-1.133412	0.957904
H	-0.055216	-1.129073	1.816996
H	-0.212313	-2.082169	0.337198
N	-0.412894	1.317392	0.575197
O	-0.108876	2.320435	-0.065872
O	-1.019549	1.333764	1.647318
Br	3.510611	0.0	0.0
