16

C	-0.425975	-0.117404	-1.462786
C	0.0	0.0	0.0
F	-0.320288	1.148301	-2.031834
H	1.092529	0.0	0.0
H	-1.477021	-0.414941	-1.548183
N	0.403413	-1.014905	-2.20018
H	1.372045	-0.926445	-1.900844
H	0.100641	-1.971313	-2.098226
C	-0.485005	-1.179395	0.823943
H	-0.173479	-1.05958	1.863436
H	-0.016923	-2.090679	0.44908
H	-1.571814	-1.275642	0.78412
N	-0.562713	1.24964	0.575951
O	-1.796449	1.319308	0.61178
O	0.200204	2.122214	0.974669
Br	3.54291	0.0	0.0
