16

C	-0.427113	-0.10274	-1.463058
C	0.0	0.0	0.0
F	-0.297104	1.163865	-2.025807
H	1.092517	0.0	0.0
H	-1.483411	-0.380745	-1.549342
N	0.385781	-1.011389	-2.206212
H	1.357155	-0.932097	-1.914773
H	0.075317	-1.963816	-2.090938
C	-0.486806	-1.186698	0.813548
H	-0.015022	-2.095025	0.435283
H	-0.18182	-1.073793	1.855582
H	-1.5736	-1.284526	0.76749
N	-0.5629	1.243437	0.589728
O	0.199938	2.101425	1.019159
O	-1.796484	1.321873	0.608659
Br	3.547743	0.0	0.0
