16

C	-0.497079	-0.123642	-1.448431
C	0.0	0.0	0.0
F	-0.30273	-1.448331	-1.810115
H	1.090367	0.0	0.0
H	0.123283	0.490381	-2.098742
N	-1.875993	0.20459	-1.68105
H	-1.966869	1.205206	-1.785034
H	-2.458337	-0.094676	-0.905542
C	-0.516798	-1.071785	0.931213
H	-1.607609	-1.085155	1.001916
H	-0.168087	-2.03462	0.560982
H	-0.113391	-0.918363	1.931317
N	-0.395982	1.363915	0.461263
O	-0.153378	2.299843	-0.303259
O	-0.941097	1.49405	1.55853
Br	3.480745	0.0	0.0
