14

C	-0.25467	-0.339066	-1.467692
C	0.0	0.0	0.0
F	-1.556573	-0.871354	-1.658077
H	1.103658	0.0	0.0
H	-0.425872	0.969502	0.263755
C	-0.26006	0.882209	-2.316505
N	-0.275064	1.79853	-3.05217
N	0.697367	-1.314369	-1.872152
H	1.61275	-1.079735	-1.459317
H	0.77479	-1.371588	-2.879439
N	-0.444021	-1.046945	0.91201
H	0.275054	-1.759869	0.923094
H	-1.281666	-1.481416	0.542465
H	2.897222	0.0	0.0
