14

C	-0.583122	-0.078599	-1.397984
C	0.0	0.0	0.0
F	-0.016286	0.945192	-2.177582
H	1.091776	0.0	0.0
H	-0.322517	0.972689	0.409737
C	-0.255721	-1.359144	-2.062271
N	-0.047933	-2.368861	-2.62133
N	-2.007903	0.055767	-1.375047
H	-2.224099	0.944702	-0.94008
H	-2.369067	0.062564	-2.322035
N	-0.435515	-1.15583	0.771193
H	0.319941	-1.422917	1.39027
H	-1.264277	-0.965338	1.315051
H	2.951108	0.0	0.0
