14

C	-0.358578	0.134257	-1.464267
C	0.0	0.0	0.0
F	-1.681422	-0.286192	-1.683596
H	1.096428	0.0	0.0
H	-0.312394	-1.013597	0.294269
C	-0.303711	1.545426	-1.91504
N	-0.278621	2.627987	-2.365699
N	0.494434	-0.662539	-2.317449
H	0.418385	-1.617221	-1.975848
H	1.454995	-0.387318	-2.086695
N	-0.543912	1.057407	0.838796
H	0.193678	1.379157	1.453183
H	-1.309786	0.722116	1.405266
H	2.925799	0.0	0.0
