14

C	-0.330314	-0.153292	-1.475656
C	0.0	0.0	0.0
F	-0.214346	-1.511367	-1.791153
H	1.098463	0.0	0.0
H	-0.330308	0.997563	0.311838
C	-1.72673	0.229179	-1.798947
N	-2.823687	0.587414	-2.014103
N	0.585345	0.564424	-2.31617
H	0.313955	1.536911	-2.38295
H	1.51033	0.510138	-1.873507
N	-0.664449	-1.014284	0.818712
H	-0.421388	-0.822991	1.784722
H	-0.219011	-1.89708	0.594317
H	2.996578	0.0	0.0
