14

C	-0.59108	0.046914	-1.406504
C	0.0	0.0	0.0
F	0.048323	1.058092	-2.10834
H	1.093867	0.0	0.0
H	-0.363846	-0.913838	0.483194
C	-0.362366	-1.228316	-2.122478
N	-0.25732	-2.263402	-2.665911
N	-2.005271	0.344019	-1.448001
H	-2.149677	0.970897	-0.65786
H	-2.538437	-0.502951	-1.294832
N	-0.493961	1.189303	0.724109
H	-0.65757	0.932164	1.689248
H	0.27996	1.847723	0.738275
H	2.954528	0.0	0.0
