19

C	-0.26227	0.115748	-1.494014
C	0.0	0.0	0.0
F	-1.483453	0.704829	-1.800879
H	1.096022	0.0	0.0
N	0.782293	0.808906	-2.097715
H	1.677159	0.59332	-1.630463
H	0.841893	0.654984	-3.094744
N	-0.459108	-1.315214	-2.109483
O	-1.571419	-1.831766	-2.025386
O	0.531395	-1.847806	-2.607352
C	-0.530452	-1.247233	0.682527
H	-0.076577	-2.151671	0.270911
H	-0.255061	-1.203847	1.740273
H	-1.618482	-1.336105	0.606916
C	-0.464957	1.276116	0.689704
H	-0.047884	1.30167	1.701042
H	-1.556672	1.330686	0.755196
H	-0.101116	2.155352	0.154904
H	2.897873	0.0	0.0
