19

C	-0.262307	0.1128	-1.49548
C	0.0	0.0	0.0
F	-1.47979	0.707778	-1.805862
H	1.097373	0.0	0.0
N	0.786353	0.795969	-2.103418
H	0.840379	0.642059	-3.100472
H	1.682025	0.582156	-1.63663
N	-0.470407	-1.319323	-2.101532
O	0.519097	-1.86929	-2.581052
O	-1.589296	-1.821249	-2.02317
C	-0.529515	-1.24716	0.684071
H	-0.248759	-1.20537	1.740472
H	-1.618061	-1.33394	0.613784
H	-0.078836	-2.152031	0.269402
C	-0.463767	1.276866	0.689439
H	-0.043629	1.303592	1.699418
H	-0.101659	2.155726	0.152917
H	-1.55511	1.331565	0.757699
H	2.90113	0.0	0.0
