19

C	-0.236338	-0.082546	-1.502947
C	0.0	0.0	0.0
F	-0.280455	1.181949	-2.036966
H	1.099199	0.0	0.0
N	0.716518	-0.848546	-2.217976
H	1.62103	-0.712066	-1.746441
H	0.463617	-1.825824	-2.184672
N	-1.637214	-0.658046	-1.779187
O	-2.587587	0.111942	-1.673379
O	-1.732288	-1.867533	-1.990169
C	-0.422416	-1.281448	0.706609
H	-0.018346	-1.268209	1.722421
H	-0.016943	-2.165952	0.210172
H	-1.512354	-1.38768	0.768501
C	-0.566095	1.239713	0.665425
H	-0.157502	2.142926	0.212422
H	-1.658499	1.279355	0.59868
H	-0.281957	1.237355	1.72205
H	2.890478	0.0	0.0
