19

C	-0.464531	0.012056	-1.433172
C	0.0	0.0	0.0
F	0.006961	1.09659	-2.109483
H	1.096493	0.0	0.0
N	-0.168105	-1.142889	-2.173121
H	-0.60913	-1.123703	-3.082455
H	-0.432543	-1.976835	-1.675265
N	-2.026886	0.270131	-1.433923
O	-2.447472	1.421443	-1.497958
O	-2.738101	-0.730133	-1.304494
C	-0.413335	-1.254386	0.761065
H	-1.497317	-1.405727	0.795219
H	0.067216	-2.146394	0.348403
H	-0.041206	-1.163176	1.78496
C	-0.430118	1.262196	0.739585
H	0.17922	1.341678	1.643593
H	-0.243248	2.152909	0.138286
H	-1.488122	1.252902	1.026832
H	2.871619	0.0	0.0
