19

C	-0.512906	0.050655	-1.415533
C	0.0	0.0	0.0
F	0.000729	-1.026129	-2.134625
H	1.092806	0.0	0.0
N	-1.924435	0.113725	-1.532007
H	-2.338786	-0.610518	-0.961476
H	-2.186599	-0.012187	-2.502168
N	-0.012322	1.249164	-2.234762
O	0.693813	2.094905	-1.707669
O	-0.390122	1.260417	-3.408096
C	-0.382436	-1.34397	0.627725
H	-1.447847	-1.416709	0.887975
H	-0.112117	-2.176395	-0.023287
H	0.19496	-1.45425	1.5494
C	-0.502343	1.145354	0.870352
H	-0.031426	1.054915	1.853484
H	-0.217001	2.11345	0.462071
H	-1.590199	1.119999	0.998803
H	2.944731	0.0	0.0
