13

C	0.0	0.0	0.0
C	-0.47762	0.086466	-1.435009
F	1.387679	0.0	0.0
H	-0.019	0.993085	-1.840378
H	-0.361316	0.848965	0.58519
H	-1.55951	0.220738	-1.407971
C	-0.414373	-1.239778	0.684088
N	-0.606328	-2.246117	1.256612
C	-0.087725	-1.129813	-2.267553
H	-0.66603	-2.002321	-1.954622
H	-0.306194	-0.949539	-3.322352
H	0.976331	-1.356869	-2.170438
Br	-3.730758	0.0	0.0
