13

C	0.0	0.0	0.0
C	-0.418868	-0.155453	-1.453726
F	1.38775	0.0	0.0
H	-1.497211	-0.010961	-1.519587
H	-0.367488	0.932249	0.430109
H	0.083652	0.660319	-1.987845
C	-0.393142	-1.137455	0.853269
N	-0.5219	-2.089623	1.527493
C	0.005092	-1.503396	-2.027472
H	-0.169008	-1.533699	-3.1058
H	1.065973	-1.696643	-1.850225
H	-0.573866	-2.30944	-1.572452
Br	-3.581605	0.0	0.0
