13

C	0.0	0.0	0.0
C	-0.456952	0.090163	-1.443805
F	1.387775	0.0	0.0
H	-1.540123	0.224006	-1.439108
H	-0.358068	0.848063	0.586078
H	0.010291	0.995654	-1.849111
C	-0.396042	-1.254023	0.669881
N	-0.566047	-2.255407	1.257475
C	-0.046987	-1.135289	-2.252176
H	-0.623921	-2.007605	-1.936939
H	1.016074	-1.358407	-2.128278
H	-0.238263	-0.975121	-3.316318
Br	-3.66311	0.0	0.0
