10
Coordinates from ORCA-job run
  C   -0.25167821656790      0.43187490766523     -0.12939659934127
  C   1.10984549702815     -0.22326249862174     -0.19358317809257
  Cl  -0.12316130054760      2.00208990024753      0.73979646411174
  H   1.04612126117657     -1.15797540145842     -0.75917911503356
  H   -0.58716731863015      0.71412150347812     -1.13400742099917
  H   1.45322838465720     -0.44282735555321      0.81762750074030
  H   1.83158572236265      0.42805230268499     -0.68622130932830
  N   -1.17558828899810     -0.40441337951873      0.59778981182985
  H   -2.11094380156675     -0.01872824972446      0.56412372785955
  H   -1.19224193891407     -1.32893172919932      0.18405011825344
