15

C	0.0	0.0	0.0
C	-0.604721	0.135776	-1.377805
Cl	1.765042	0.0	0.0
H	-1.692525	0.347903	-1.171711
H	-0.548193	-0.831902	-1.870478
N	-0.351096	1.274281	0.860756
O	-0.842965	2.250065	0.31601
O	-0.121281	1.16081	2.062392
N	-0.578419	-1.137751	0.57645
H	-0.326163	-1.168907	1.559742
H	-1.61924	-0.944551	0.493382
N	-0.029512	1.112873	-2.322822
O	0.686832	2.02898	-1.924974
O	-0.351807	0.942309	-3.502662
H	-2.948621	0.0	0.0
