14
Coordinates from ORCA-job run
  C   0.69581977247456     -0.21511498326025     -0.29949268664726
  C   -0.82362877864066     -0.09636392755480     -0.09805493465004
  Br  1.10114229237734     -0.54019676817463     -2.16135357219010
  H   -1.30057087636355     -1.01034888364686     -0.45112025647431
  N   1.16030924566435     -1.47833195814595      0.48179842449825
  O   2.29529139930982     -1.45059703833633      0.92349097632320
  O   0.35121364724880     -2.39229661743856      0.53323896843609
  C   1.43989021027357      0.92859598846626      0.19024785982131
  N   2.05338913275493      1.84846008863810      0.59337171767604
  N   -1.36648001540034      1.03666891894421     -0.94798463218477
  O   -1.02459279000835      2.16821348340321     -0.62981086507829
  O   -2.09040349104665      0.70230098217734     -1.87691735144906
  C   -1.12827320097799      0.15702601261149      1.30299425669453
  N   -1.36210654766583      0.34298470231677      2.43959209522442
