14
Coordinates from ORCA-job run
  C   0.53734095422552     -0.55509054669094     -0.11703210064595
  C   -0.55308327220099      0.52815045177207     -0.20583892800669
  Br  -0.22228796974052     -2.30350717652070      0.06633889699429
  H   -0.06216587180072      1.50401501418118     -0.11999139815491
  N   1.48532805320750     -0.20065841771978      1.08467384758890
  O   1.88062152091778      0.95403237557046      1.04462865393654
  O   1.76361200887319     -1.07173714285405      1.87885489645647
  C   1.37692851470193     -0.49012572876750     -1.30298794471446
  N   2.05794426404891     -0.42624525431036     -2.26072225910145
  N   -1.48649563440658      0.43698908079182      0.99394240560548
  O   -0.92265906871323      0.29438349330608      2.07077646437800
  O   -2.68389591099180      0.55547695616000      0.78783133799299
  C   -1.30004001382400      0.42532171736231     -1.44806162599671
  N   -1.86914757429700      0.34999517771941     -2.47341224633248
