14
Coordinates from ORCA-job run
  C   0.67233374310097     -0.29124181208596     -0.29186379477667
  C   -0.83187952666636     -0.05700467447490     -0.07454288851146
  Br  1.01189469760506     -0.84900044683575     -2.11072705514256
  H   -1.37238820836554     -0.96904520139140     -0.32736630447756
  N   1.07899843143171     -1.48313190288292      0.62185116452021
  O   2.21490200536157     -1.46212528083007      1.06206767889634
  O   0.22668478708618     -2.34559360495880      0.76904647316574
  C   1.49363140529994      0.85408370187178      0.04742480695046
  N   2.17224051237678      1.77530806088122      0.32312867419199
  N   -1.32368375429239      1.02165358008438     -1.02020741662472
  O   -2.04601231195252      0.63870714684336     -1.93153817323167
  O   -0.94520310584317      2.16313258975600     -0.78867621941182
  C   -1.08256649624687      0.34830599691337      1.30142205998735
  N   -1.26995217889536      0.65595184710970      2.41998099446437
