13
Coordinates from ORCA-job run
  C   0.97624263375778      0.10294735607749      0.21297588610396
  C   -0.16622393642989     -0.90040480780544     -0.02553891870136
  Br  2.63860782241718     -0.87875352453860      0.58989350958834
  H   0.13903939496274     -1.54425210354899     -0.85486308950859
  H   -0.23893440767871     -1.52399951985209      0.86963467120459
  C   1.20223949376482      0.92756636681503     -0.97363202438908
  N   1.34060636344234      1.56690959679731     -1.95028139117329
  C   0.68890141384681      0.95656918600282      1.36531138051406
  N   0.40918775254462      1.62053712718243      2.29415100524791
  C   -1.49040102054854     -0.20577626910675     -0.32391743872596
  H   -1.80643884312903      0.42714103485196      0.50792449821977
  H   -1.42588960204806      0.40844755809793     -1.22447360086915
  H   -2.26593706490205     -0.95693200097310     -0.48618448751122
