13
Coordinates from ORCA-job run
  C   0.82791003516914      0.34999365903521      0.20461197059191
  C   -0.39774798332009     -0.56303361247038      0.40173234187332
  Br  2.12661458251639     -0.49384333593621     -1.01355471760572
  H   -0.02729419246122     -1.51304661044053      0.79646146368505
  H   -1.00323987929874     -0.09481843937586      1.18585024619919
  C   0.43951142297762      1.63413613791531     -0.37745924019882
  N   0.07806645363602      2.65140382166134     -0.84249275578343
  C   1.50792681743619      0.56642317781527      1.48095267270152
  N   2.01563751349016      0.71431310377575      2.53078858735978
  C   -1.22691038204914     -0.76941043917430     -0.85738663284120
  H   -0.64536576947883     -1.24904583640412     -1.64525719503768
  H   -2.07804797672696     -1.41320656693013     -0.62733999514163
  H   -1.61606064189055      0.17713494052864     -1.23790674580231
