13
Coordinates from ORCA-job run
  C   0.88707481312561      0.20018454219582      0.10133044931487
  C   -0.40163598636778     -0.09781896517776     -0.68827662054036
  Br  1.80113951105613     -1.47565656870362      0.58672432142787
  H   -0.11029844938395     -0.67007295949219     -1.57337943174582
  H   -0.77895409028660      0.87154208480566     -1.03325760938940
  C   1.81665616718951      0.97947365199104     -0.71578768502003
  N   2.56341804807767      1.58889901503050     -1.38879338183009
  C   0.59263181251139      0.92281273894432      1.33858445050344
  N   0.34251844547527      1.52631207779347      2.31594760322499
  C   -1.46840676342436     -0.82459132335477      0.11787683086984
  H   -2.34999115950919     -0.98059953556549     -0.50688059528173
  H   -1.11874000672871     -1.80036841639083      0.45648264528510
  H   -1.77441234173499     -0.24211634207615      0.98942902318132
