13
Coordinates from ORCA-job run
  C   0.88117669697854      0.23908989700507      0.12728692701044
  C   -0.35418682303827     -0.18574222336374     -0.69009444533112
  Br  1.80727598360327     -1.34281593844706      0.84969587839953
  H   0.00139379163690     -0.84529719660579     -1.48658012706582
  H   -0.73431817512719      0.72658359655041     -1.16357509760198
  C   1.83396950929306      0.94665121914780     -0.72696154145908
  N   2.56397716853704      1.51263197952013     -1.45390581549666
  C   0.49893828517069      1.08641472347625      1.25613474502908
  N   0.14374988627280      1.76749265362137      2.14600053933032
  C   -1.44634260603095     -0.84965726317887      0.13587609210993
  H   -1.09089178272299     -1.76792577054707      0.60463411789988
  H   -2.28488433190133     -1.10599475185116     -0.51470194059433
  H   -1.81885760267158     -0.18143092532733      0.91519066776981
