13
Coordinates from ORCA-job run
  C   0.85191167123416      0.23127322429047      0.24836353879317
  C   -0.60055376737896     -0.22779475469098      0.48082490018853
  Br  2.00881674547158     -1.31454731185845     -0.14224972307827
  H   -1.14929975988742      0.65901286570360      0.81760839533563
  H   -0.58247295999978     -0.93808990582710      1.31200236654336
  C   0.93871921018350      1.15243634756596     -0.88422370444811
  N   0.98190471217161      1.91301504542643     -1.77943669730192
  C   1.37973418996499      0.87653735592693      1.44976278578818
  N   1.77637543128090      1.41738115786445      2.41520934087435
  C   -1.26549443044408     -0.82752288601214     -0.74953677506039
  H   -2.29340627449524     -1.10336206052319     -0.50623760490168
  H   -1.29736726322985     -0.11204785244282     -1.57388274416407
  H   -0.74686750487140     -1.72529122542317     -1.08720407856878
