13
Coordinates from ORCA-job run
  C   0.97727887610187      0.14524436333802      0.17865575947052
  C   -0.12669412890771     -0.90658961183788     -0.02976004042136
  Br  2.69496002820505     -0.76342648183957      0.48402681698687
  H   -0.13858151874720     -1.54139291049705      0.86043638555034
  H   0.17652137680831     -1.52805324134849     -0.87673964294067
  C   1.12273743521258      0.99067951471832     -1.00586898348607
  N   1.19806546963967      1.64467630551897     -1.97973718960271
  C   0.69434303902173      0.97365426324919      1.35028343708328
  N   0.42105578861409      1.61519395204369      2.29665630542548
  C   -1.49089160073423     -0.26995982907220     -0.27239321478518
  H   -1.80468402273621      0.33977972433611      0.57744983317889
  H   -1.48702391154183      0.35525854484644     -1.16772211310749
  H   -2.23708683093614     -1.05406459345556     -0.41528735335188
