13
Coordinates from ORCA-job run
  C   0.96074562552316      0.15311302149295      0.24791220255809
  C   -0.12141582848250     -0.90756435098564     -0.02122657845921
  Br  2.65372918693386     -0.74165825852272      0.69796460233086
  H   -0.19817150104693     -1.52458068738095      0.87817857984193
  H   0.24632375077653     -1.54439719764300     -0.83040975330186
  C   1.19100848957202      0.97652696829766     -0.93868002905728
  N   1.33659107640943      1.61366054061212     -1.91579278320861
  C   0.58902306840169      1.00236205921897      1.37911618364372
  N   0.24354258307618      1.65912420817394      2.29077066762550
  C   -1.46547628847990     -0.28197476318754     -0.37807335832377
  H   -2.19728931797317     -1.07204982164378     -0.55773234562538
  H   -1.84257827459907      0.34523050348732      0.43243931661076
  H   -1.39703257011129      0.32320777808067     -1.28446670463474
