13
Coordinates from ORCA-job run
  C   0.83119189034006      0.34426617138723      0.20488374197830
  C   -0.38816184655702     -0.58117175325102      0.38324709282257
  Br  2.10867283425832     -0.43791250525766     -1.07497853583680
  H   -0.00804071282269     -1.54671253804413      0.72823549958540
  H   -0.98041805452460     -0.15048879193157      1.19852399143062
  C   0.42783812712981      1.65198182643182     -0.31065433668261
  N   0.05255957511173      2.68659910420093     -0.72383536074716
  C   1.53399162210019      0.50408738090323      1.47719259472817
  N   2.05697014166884      0.60183269772940      2.52534555052134
  C   -1.23995779125429     -0.73368430296514     -0.86850831143128
  H   -0.67266511584740     -1.17780108801937     -1.68686256340588
  H   -1.63659017985199      0.22790506340362     -1.20040441694122
  H   -2.08639048975097     -1.38790126458732     -0.65118494602145
