13
Coordinates from ORCA-job run
  C   0.72000598192292      0.41151194760712      0.40375029176547
  C   -0.35322955376984     -0.67992043717629      0.22533374217097
  Br  0.00820928508583      1.91053495019196      1.46536626891330
  H   -0.65605717078795     -0.99658135703052      1.22720375207652
  H   0.15154350635001     -1.52880813701103     -0.24945149093069
  C   1.87288792580713     -0.12449653650484      1.12625901496452
  N   2.78096404057455     -0.60306871661778      1.69899294070635
  C   1.14729208842108      0.94402499139460     -0.88967359324635
  N   1.45731778077313      1.33851784560800     -1.95284296814855
  C   -1.55045772456876     -0.24214760519212     -0.60576927042794
  H   -2.07625878967956      0.59285708181017     -0.14171781990436
  H   -2.25146428451914     -1.07427117381799     -0.69502741459684
  H   -1.24975308560941      0.05184714673872     -1.61342345334241
