13
Coordinates from ORCA-job run
  C   0.86072709881202      0.22573811095096      0.24222043408314
  C   -0.49584559841159     -0.49027141541542      0.39019692015679
  Br  2.07759485116820     -0.83088020141525     -0.89041008876246
  H   -1.06176777257326      0.07977973388718      1.13555889282970
  H   -0.29158998505861     -1.47618603113933      0.81678117272650
  C   0.69616450783873      1.53793959812940     -0.38240902287875
  N   0.51255359316923      2.58376531249877     -0.88695466057203
  C   1.50099265996997      0.37401200713018      1.54858836855338
  N   1.97087409400722      0.48049384892664      2.62072910025652
  C   -1.28475492263221     -0.59735319558504     -0.90671248480990
  H   -2.23134983161342     -1.10554505349853     -0.71248359056314
  H   -0.74256997398741     -1.17121410031873     -1.65899538003899
  H   -1.51202872068890      0.38872138584917     -1.31710966098077
