13
Coordinates from ORCA-job run
  C   0.88307306204891      0.22977671300785      0.13776864030119
  C   -0.34303233750685     -0.19406824432447     -0.69410096608953
  Br  1.78239738896518     -1.35143585474522      0.89413577937095
  H   -0.70251840140730      0.71367611201847     -1.19165564638016
  H   0.01831233988631     -0.87316889792338     -1.47118489806575
  C   1.85576178865152      0.91779552483237     -0.70989945134062
  N   2.60274058832972      1.46914527274971     -1.43044402986314
  C   0.49013082953214      1.09418133146086      1.24978191977867
  N   0.12219908154809      1.78517896079449      2.12700177516815
  C   -1.45878989292449     -0.82712488288630      0.12448120681221
  H   -1.84325668478943     -0.13419342443796      0.87599652600591
  H   -2.28425670137487     -1.09523750728888     -0.53801142160809
  H   -1.12176106095893     -1.73452510325753      0.62713056591019
