13
Coordinates from ORCA-job run
  C   0.97309362568252      0.13665346560734      0.20957792084166
  C   -0.13397406327876     -0.90545675230023     -0.03023741361918
  Br  2.67111432899935     -0.78749521565434      0.57264211432421
  H   -0.18155107912275     -1.53528081351984      0.86233521427789
  H   0.19118492463028     -1.53439415567034     -0.86347219844727
  C   1.16350089248563      0.97681344875058     -0.97229187553047
  N   1.27320298834147      1.62844626318703     -1.94456818103300
  C   0.66049852996042      0.97172212352337      1.36896076991054
  N   0.36246356407970      1.61739756528863      2.30494756247340
  C   -1.48312384796216     -0.25711857408697     -0.32072809880762
  H   -2.23120416455306     -1.03462928611512     -0.48743067284138
  H   -1.81995388419571      0.35729209159414      0.51675083697780
  H   -1.44325181506693      0.36604983939575     -1.21648597852658
