17

C	-0.396209	0.019245	-1.459094
C	0.0	0.0	0.0
F	0.224722	1.065467	-2.066738
H	1.095649	0.0	0.0
C	-0.069552	-1.253781	-2.197012
H	0.998423	-1.440816	-2.048699
H	-0.646763	-2.091659	-1.803971
H	-0.279606	-1.118373	-3.260578
N	-1.895001	0.306641	-1.611444
O	-2.643848	-0.252743	-0.812604
O	-2.248618	1.026854	-2.53863
C	-0.415417	-1.217891	0.683151
N	-0.704839	-2.18218	1.291824
N	-0.416965	1.231113	0.66261
H	0.387712	1.574005	1.18073
H	-1.178974	1.058205	1.308743
H	2.671801	0.0	0.0
