17

C	-0.505138	0.112182	-1.427378
C	0.0	0.0	0.0
F	-1.843345	0.433863	-1.451457
H	1.092062	0.0	0.0
C	0.288377	1.112864	-2.219367
H	0.108913	2.09074	-1.773735
H	1.349752	0.868604	-2.130599
H	-0.034423	1.112309	-3.263516
N	-0.404768	-1.254857	-2.090968
O	-1.437695	-1.903566	-2.237515
O	0.722259	-1.613304	-2.413995
C	-0.521308	-1.174546	0.688825
N	-0.94838	-2.093531	1.287571
N	-0.295023	1.255092	0.693118
H	-1.116251	1.176666	1.276492
H	0.514985	1.463565	1.269077
H	2.651774	0.0	0.0
