17

C	-0.497952	0.129896	-1.430089
C	0.0	0.0	0.0
F	-1.827094	0.480378	-1.459778
H	1.092131	0.0	0.0
C	0.324595	1.109628	-2.218669
H	1.378984	0.839211	-2.119934
H	0.008008	1.118037	-3.264805
H	0.167987	2.090617	-1.772425
N	-0.423168	-1.235693	-2.09771
O	0.705697	-1.64896	-2.341701
O	-1.473794	-1.825684	-2.332088
C	-0.521909	-1.184623	0.671767
N	-0.925418	-2.1161	1.266626
N	-0.301763	1.245225	0.70324
H	-1.149405	1.174323	1.252567
H	0.491423	1.431988	1.313526
H	2.657192	0.0	0.0
