17

C	-0.415156	0.114485	-1.462751
C	0.0	0.0	0.0
F	-1.735268	0.522418	-1.568393
H	1.093212	0.0	0.0
C	0.473965	1.055005	-2.230817
H	1.516649	0.789934	-2.031827
H	0.293982	2.068742	-1.868388
H	0.244751	1.012011	-3.297618
N	-0.364965	-1.260036	-2.110206
O	-1.419686	-1.877268	-2.223666
O	0.745903	-1.657368	-2.449179
C	-0.562317	-1.178267	0.64879
N	-0.984826	-2.132164	1.191012
N	-0.31848	1.204947	0.756195
H	-1.112687	1.695197	0.367637
H	0.507064	1.796589	0.74814
H	2.656766	0.0	0.0
