17

C	-0.416276	0.14101	-1.45921
C	0.0	0.0	0.0
F	-1.749786	0.501256	-1.558634
H	1.09325	0.0	0.0
C	0.438242	1.134503	-2.197226
H	0.213586	1.112632	-3.265655
H	0.221955	2.129657	-1.808017
H	1.488906	0.900194	-2.004491
N	-0.314571	-1.211245	-2.143996
O	-1.337374	-1.884888	-2.221106
O	0.797957	-1.53761	-2.546173
C	-0.557647	-1.190878	0.63001
N	-0.975985	-2.150191	1.165222
N	-0.321921	1.190397	0.77861
H	-1.106686	1.695369	0.391989
H	0.506653	1.774989	0.793206
H	2.654349	0.0	0.0
