16
Coordinates from ORCA-job run
  C   -0.56146390433669      0.21451395392718     -0.04691562639050
  C   0.91616674118231     -0.12941800406171      0.17648251891350
  Br  -0.99940025493364      1.85519984258087      0.85688012701380
  H   1.18356439387574     -0.92380797289083     -0.52863221498907
  C   -1.47456574402099     -0.90899388969929      0.41837875102876
  H   -1.40909978635220     -1.02703167324596      1.49953953573151
  H   -1.18945792116441     -1.84243650906860     -0.07222882304704
  H   -2.50489313909402     -0.66433283317334      0.15423611292632
  N   -0.79196814424155      0.33930450808512     -1.56570969832716
  O   -1.44271001088278      1.27381818275745     -1.99411320656891
  O   -0.34472759031401     -0.60578628795741     -2.20661415660094
  C   1.16616045970060     -0.55564708990240      1.54417064796163
  N   1.34831719568495     -0.95653689103728      2.63327226852263
  N   1.81817071499851      1.03872256189193     -0.18850657112427
  O   1.56753983852933      1.56226855229576     -1.26595838600243
  O   2.71836715136886      1.32816354949850      0.58571872095217
