16
Coordinates from ORCA-job run
  C   -0.55413915944468      0.23148901930466     -0.03328330639400
  C   0.91891065835373     -0.15467060135189      0.14568058348717
  Br  -0.90122246960201      1.92037168110786      0.82007045538394
  H   1.13110103134526     -0.98570776934736     -0.53551883938349
  C   -1.48506620421278     -0.84047988817175      0.51140327342222
  H   -1.24957765542113     -1.80216152422573      0.04977532179292
  H   -1.38253020939847     -0.91716897267320      1.59332670165042
  H   -2.51611214479746     -0.57174814745132      0.27479059192191
  N   -0.84150411225047      0.30525663541928     -1.54578659258710
  O   -0.44867053259005     -0.67706124720000     -2.16613100079291
  O   -1.48088360273046      1.24255609104791     -1.98500874230913
  C   1.20911087841661     -0.53228143112684      1.51973478578584
  N   1.39783862877820     -0.88576862529611      2.62403419099483
  N   1.84528682444449      0.96441258448065     -0.30349904204141
  O   1.56269132006087      1.46174368616004     -1.38535848936095
  O   2.79376674904836      1.24121850932380      0.41577010842973
