16
Coordinates from ORCA-job run
  C   -0.70947338131984      0.02368551099783      0.14614869445029
  C   0.71862695489966      0.04971193095566      0.70092927145467
  Br  -1.88155115899996      0.53973566937088      1.61313126081009
  H   0.80645658232210     -0.78100400832048      1.40861500641492
  C   -1.12779036386172     -1.33495028457039     -0.37372136638286
  H   -2.17834469946734     -1.31368813617046     -0.65464438498398
  H   -0.98848280245592     -2.08012566487710      0.41167711959368
  H   -0.53729890279133     -1.60083573619878     -1.24995762403592
  N   -0.88776518413567      1.09051101025414     -0.92990667038760
  O   -0.14914639312961      2.06404097002025     -0.86707155741788
  O   -1.77909782912282      0.89618762730268     -1.74381011942823
  C   1.13510351669075      1.26875609608145      1.38595219702737
  N   1.51962173593079      2.19451003933605      1.99784090542660
  N   1.76567606978196     -0.26195572156130     -0.36922102366470
  O   1.40784434644014     -0.27062875293703     -1.54022067990758
  O   2.88662150921881     -0.48595054968340      0.06325897103111
