15
Coordinates from ORCA-job run
  C   -0.36088243463471      0.31305276020386      0.02641678830337
  C   0.75634865996351     -0.49694115584072      0.66751208819022
  F   -0.63342552898548      1.41584818029907      0.82592191770477
  H   0.91401679457435     -1.38299382035937      0.02788918397135
  H   0.39893812905085     -0.85519632337246      1.63772789407930
  N   0.11862769605361      0.86352779988340     -1.23057688711406
  H   0.16453808603200      0.13183101815382     -1.93043239852904
  H   -0.53952558136537      1.56424701232091     -1.55248458463054
  C   -1.65552948003981     -0.47492955337579     -0.07691892781579
  H   -1.98384777981362     -0.80340189749362      0.91144237614318
  H   -1.52759331724764     -1.35227597689186     -0.71530347601220
  H   -2.43329907526486      0.16064861663497     -0.50594556726157
  N   1.93647498040656      0.33103702778325      0.86005680828873
  H   2.73965585490941     -0.25235057510523      1.05473558054541
  H   2.10550299636122      0.83689688715977     -0.00104079586315
