15
Coordinates from ORCA-job run
  C   -0.43703845445770      0.28390350795457     -0.03835734203359
  C   0.78172670825074     -0.45470507133768      0.50551719744539
  F   -0.64584186614434      1.33333699926626      0.89257961061433
  H   0.96211175583847     -1.33180038837152     -0.12292804222230
  H   0.55448034713393     -0.79991353383863      1.52406040198584
  N   -0.21336553426550      0.87682169052293     -1.31307248065546
  H   -0.59772158957500      0.32716291358903     -2.06626929144622
  H   0.77715990777550      1.03941834596273     -1.44781147202415
  C   -1.69473986670421     -0.55494266917071     -0.02786621365625
  H   -1.58607456343099     -1.43262558054426     -0.66962710180754
  H   -1.91733561828400     -0.88548172955494      0.98732652153904
  H   -2.52880997109391      0.05085210747451     -0.38617560553263
  N   1.94191142800537      0.42816146366477      0.41743089518959
  H   2.78487925676851     -0.06897019048082      0.67300492865395
  H   1.81865806018314      1.18978213486373      1.07318799394999
