15
Coordinates from ORCA-job run
  C   -0.41600495051112      0.41059357438074     -0.06008182645244
  C   1.05450811833101      0.05572748034434      0.12238394244695
  F   -0.78161810620581      1.03308493735752      1.15399039268522
  H   1.60260359229035      1.00937900181440      0.20624194148459
  H   1.40015666341250     -0.44606589752552     -0.78640415380937
  N   -0.64726546145777      1.36048301799564     -1.10515051591478
  H   -0.86794598653639      0.91261594705950     -1.98194212266156
  H   0.13329858132984      1.99219963339109     -1.22715027406777
  C   -1.31341559657202     -0.79386591128061     -0.22691161525300
  H   -1.05193491327666     -1.34715430965211     -1.13258817759532
  H   -1.19423371247963     -1.45756840155298      0.62652117613723
  H   -2.34950725001839     -0.45827434373489     -0.29422713822395
  N   1.23778254685768     -0.83629174242936      1.26007430135206
  H   2.21142517146466     -1.09999301783776      1.34233085051768
  H   0.98115130337174     -0.33586996833000      2.10191321935448
