15
Coordinates from ORCA-job run
  C   -0.32928664821683      0.36298352025583     -0.17077598404840
  C   1.10139860740539     -0.09137017213695      0.06640321431490
  F   -0.65956751289026      1.16089849949623      0.97257740657739
  H   1.38239043591363     -0.75946786958827     -0.75075732438250
  H   1.74505395362499      0.80143142446300      0.00376861901565
  N   -0.39423735494016      1.14156989238073     -1.35590377373854
  H   0.19890206570369      1.95866460914734     -1.27763528245440
  H   -1.34337448196868      1.44700996340982     -1.53092402262925
  C   -1.33021493940616     -0.76717026019417     -0.20116592865730
  H   -2.34317292871811     -0.36050868353389     -0.25545870600361
  H   -1.15234930049954     -1.39766434144918     -1.07334022635316
  H   -1.23194182012774     -1.36440084354651      0.70284801323819
  N   1.20051197214082     -0.80679076790476      1.33173909879468
  H   1.01809949484113     -0.15807548375961      2.08678812076530
  H   2.13778845713783     -1.16810948703960      1.45183677556104
