15
Coordinates from ORCA-job run
  C   -0.39329174097485      0.43385835944874     -0.05620165744744
  C   1.05866853754386     -0.01102306388029      0.06953228865635
  F   -0.65628734481112      1.12456107927053      1.14596568449114
  H   1.32751201053674     -0.56132313268911     -0.83706283066441
  H   1.66945712966611      0.90725406748833      0.09658473158357
  N   -0.61891462228114      1.36102183138314     -1.12499993604063
  H   -0.85311960145220      0.88785741973747     -1.98546518873549
  H   0.17975780734560      1.96434375212352     -1.27486796278002
  C   -1.37364109870960     -0.71343881007310     -0.13470208287166
  H   -2.38754941380788     -0.31154709097896     -0.16018207521671
  H   -1.25077968305968     -1.35837696991817      0.73252963266549
  H   -1.19812023259277     -1.31028337787771     -1.03357268959545
  N   1.24016953078179     -0.87753287638404      1.22734229648814
  H   1.05689290037980     -0.33453664549464      2.06211798078354
  H   2.19924582143539     -1.19783454215572      1.27398180868359
