15
Coordinates from ORCA-job run
  C   -0.45188762577701      0.51808717710725      0.08369485067244
  C   0.77805023619976      0.08595959044654      0.86965661054956
  F   -1.07257229859781      1.52774572810601      0.82298091060783
  H   1.27678807870870      1.00465640198910      1.19701036445351
  H   0.45218095611929     -0.45911850531492      1.75935604196153
  N   -0.00762560553481      1.12773140796062     -1.14867499421426
  H   -0.81459865895536      1.47498208177125     -1.65563549137947
  H   0.42753575086893      0.40625471721260     -1.71246869039792
  C   -1.46870183933234     -0.59572058587671     -0.08068518841965
  H   -1.84073979787025     -0.92338316460215      0.89305300788148
  H   -2.31619714352793     -0.24200544994720     -0.67283808194970
  H   -1.00350309409184     -1.44187561022490     -0.58896100521219
  N   1.62058864860768     -0.77170178710064      0.03245573758448
  H   2.06080456010569     -1.49279507433626      0.58616197123965
  H   2.35787783307731     -0.21881692719056     -0.38410604337730
