15
Coordinates from ORCA-job run
  C   -0.54767723823935      0.47746766201332      0.05696315412537
  C   0.72680904744314      0.14877060009872      0.83024893697174
  F   -1.19602332444496      1.45036465964164      0.82706760990753
  H   1.22148152627173      1.10280938680816      1.06647989028168
  H   0.45109207896378     -0.31621055112187      1.78051125460273
  N   -0.31390514763673      1.06649681570110     -1.23463522202939
  H   0.40849341502502      1.77564978378124     -1.18473761009220
  H   -0.03889044784136      0.35620526610858     -1.89967103350478
  C   -1.47094232310930     -0.71088446024542     -0.07939678974782
  H   -2.34423626675863     -0.42185338521714     -0.66511919542930
  H   -0.95157368447833     -1.53771108182458     -0.56459258290822
  H   -1.79834076483634     -1.03242151096073      0.91066501725565
  N   1.55085859714551     -0.78001762832197      0.05756614527324
  H   2.15154139080590     -1.31189826533819      0.67265527666080
  H   2.15131314168992     -0.26676729112287     -0.57400485136704
