15
Coordinates from ORCA-job run
  C   -0.38181786825035      0.15338223333731     -0.06571188370752
  C   0.79635906593695     -0.45847474479325      0.68629589759968
  F   -0.72837626714957      1.33054988129813      0.67093959352118
  H   1.03900622878290     -1.41980771292355      0.22699159894616
  H   0.46400763821078     -0.65159203885335      1.71026721484868
  N   -0.01409432219836      0.49726718223815     -1.39395165309428
  H   0.73869556100469      1.17345500465514     -1.38036215722879
  H   -0.79848605314613      0.90867537040944     -1.88448960454337
  C   -1.60699764936560     -0.73124404588883     -0.05370605458198
  H   -1.41445398081836     -1.65305962942697     -0.60376634577137
  H   -1.88472823398128     -0.97185690540737      0.97342682309942
  H   -2.44802411338586     -0.21052794517573     -0.51819158862922
  N   2.00340827271515      0.35033646584624      0.74410815181050
  H   2.46059283414540      0.39277578111735     -0.15663040668214
  H   1.77490888749963      1.28912110356728      1.04478041441306
