15
Coordinates from ORCA-job run
  C   -0.34857228791649      0.44337179418993     -0.08593897856252
  C   1.12420644475543      0.12205812862595      0.17839163855904
  F   -0.78186900853796      1.12873746450248      1.06979747197807
  H   1.64915730008915      1.08286230610882      0.24275333588540
  H   1.52514575577309     -0.40565606252880     -0.69281703730041
  N   -0.53907135297864      1.31766891916631     -1.20164302070330
  H   0.26166731670443      1.91427497454228     -1.36256800280225
  H   -0.77290090005334      0.81996022135278     -2.04737472709484
  C   -1.23248666074411     -0.77744372582151     -0.21837315290452
  H   -0.89723435484056     -1.41869567324287     -1.03773639431594
  H   -1.22050396407607     -1.35221007334263      0.70719703029225
  H   -2.25866886126674     -0.45775121370660     -0.40715368443266
  N   1.43247142045221     -0.63663367107662      1.37868487824150
  H   1.08060806643544     -1.58222360411257      1.30478816777689
  H   0.97905108620414     -0.19731978465696      2.16999247538330
