15
Coordinates from ORCA-job run
  C   -0.49557116910409      0.48573304349474      0.07571844259159
  C   0.77153669321527      0.26706874459795      0.90749745328228
  F   -1.25976911747890      1.38342882643314      0.84391319761617
  H   0.48292516869167     -0.09204298225523      1.89877206698688
  H   1.23038770239429      1.25180071265171      1.05225377132201
  N   -0.25625468971127      1.10114154033893     -1.19276177409961
  H   -0.21829183693347      0.44958966580197     -1.96025103590433
  H   0.54867364506699      1.71189935440414     -1.19537843834936
  C   -1.33375050441332     -0.76238453539273     -0.10017107192332
  H   -2.23740536868334     -0.51078901901332     -0.65761565373994
  H   -0.78819022514975     -1.53839460609085     -0.64109828777332
  H   -1.62486611854291     -1.15089686419940      0.87661831665082
  N   1.76520659395922     -0.63803991408442      0.35239898719771
  H   1.41726063234012     -1.58749573851650      0.33475418857071
  H   1.99710859434951     -0.37061822817013     -0.59565016242828
