16
Coordinates from ORCA-job run
  C   -0.56967476786683     -0.09585217772092     -0.22448085520258
  C   0.85949008823182      0.29084399027951      0.18890029982475
  Br  -0.44728448563858     -2.05644995525503     -0.84190238290788
  H   0.77858257030978      1.33047283852929      0.52914704760851
  C   -1.54522230687953     -0.09381248251775      0.93293063988507
  H   -1.24408563691818     -0.79452672221854      1.71096300148785
  H   -2.54089771977442     -0.37559215785837      0.58500744895433
  H   -1.59363971396127      0.91849759061442      1.34528472710659
  N   -0.96606833295069      0.77170107104260     -1.25258613512110
  H   -1.87424228115196      0.54114601139892     -1.63216544646776
  H   -0.26201053226526      0.81992052468258     -1.97941486647872
  N   1.74083853787769      0.27776977648868     -0.96847911949301
  H   1.97288177951348     -0.67982791817835     -1.20766279454903
  H   2.59947307924357      0.77182201826129     -0.75891203387880
  C   1.33331990812440     -0.51257551787439      1.32974405320264
  N   1.75853981410598     -1.11453688967395      2.24462641602914
