16
Coordinates from ORCA-job run
  C   -0.53388457354972     -0.06540382560467     -0.53288993747400
  C   0.99761404161860      0.00387936742965     -0.34250834631532
  Br  -0.87668085743689     -1.37231592403363     -1.95134429346179
  H   1.41808141170404      0.20340407070899     -1.33115522262508
  C   -1.24390204796027     -0.53751622243622      0.72684802453229
  H   -0.91255854418769     -1.53408154761351      1.02154304119629
  H   -2.32130338979205     -0.56874259095948      0.55593116001930
  H   -1.04433319638690      0.16914422394863      1.54065395246385
  N   -0.96082450257839      1.22456192160784     -1.04579590076263
  H   -0.97181444596789      1.90104094683092     -0.28721593089010
  H   -1.90184470654857      1.15496577682405     -1.41510749400449
  N   1.54823521312421     -1.23431724497482      0.17912149343865
  H   2.52343323795045     -1.31877581696588     -0.07634275699155
  H   1.48848389392295     -1.25966219465510      1.18941092143521
  C   1.29093379119575      1.17241403586477      0.51505663493594
  N   1.50136467489235      2.06140502402846      1.25479465450342
