16
Coordinates from ORCA-job run
  C   -0.56807438262850     -0.01564124647788     -0.45280073539090
  C   0.96399712484315      0.09679571090086     -0.28527035429417
  Br  -0.84327861652956     -1.33238947206600     -1.96280932345210
  H   1.37576157821913      0.38545017599915     -1.25827663856318
  C   -1.23860058885682     -0.59740588377692      0.77396506590772
  H   -1.06818223292094      0.06938793827992      1.62463128738160
  H   -0.84667095566927     -1.59058502686266      0.98816016435389
  H   -2.31440683751518     -0.68604642778989      0.60984841724683
  N   -1.09262437572043      1.26195982774628     -0.76150467112304
  H   -2.10335727033129      1.25060252680555     -0.81028507346670
  H   -0.72715642496721      1.62852001928693     -1.63222484266754
  N   1.56313851991922     -1.16529506633762      0.11348314026536
  H   2.51527680371176     -1.22548612500668     -0.22138970653079
  H   1.58224580845085     -1.24811705413122      1.12208486157327
  C   1.25516434389400      1.18591020922638      0.67006558158917
  N   1.54676750610108      1.98233989420380      1.48332282717059
