16
Coordinates from ORCA-job run
  C   -0.50052235134147     -0.06089106809963     -0.49380522402327
  C   1.01600952374110      0.06055398161438     -0.22210966941467
  Br  -0.70073309815303     -1.44526257465168     -1.88631269669793
  H   1.47047140491614      0.34609039053978     -1.18128936203954
  C   -1.28053197873425     -0.50853570795331      0.73030898919728
  H   -2.33714025437071     -0.61594224515545      0.47744679620291
  H   -0.90103178626931     -1.44989856444917      1.12418684373435
  H   -1.18370898931892      0.25720822677530      1.50709850875010
  N   -0.93102364970424      1.18373427028922     -1.09878475627930
  H   -0.94395716931913      1.90885021292171     -0.38609970671644
  H   -1.87450353583787      1.08509328933495     -1.45634376519462
  N   1.55497453084356     -1.15063524521979      0.38259861093553
  H   1.54970884520690     -1.88803302658990     -0.31282428605170
  H   2.51517115012448     -0.99519801609068      0.66567617043736
  C   1.21005870289582      1.18288416072506      0.70725665462546
  N   1.33775865532090      2.08898191600919      1.44299689253448
