16
Coordinates from ORCA-job run
  C   -0.49276662270747      0.00685954640066     -0.42258233200804
  C   1.04177639374561      0.17338756205991     -0.23884321138875
  Br  -0.67769986932981     -1.43225819696242     -1.87621875636355
  H   1.43482095881736      0.54650263869672     -1.19284822385449
  C   -1.19494589380597     -0.53416170495323      0.80405430225548
  H   -2.25810451082915     -0.67639226509482      0.60052148254958
  H   -0.78398769176805     -1.49798176032943      1.10180649878945
  H   -1.08489830001980      0.18458312751339      1.62073865206562
  N   -1.04438001221878      1.23344544528652     -0.82711338330163
  H   -0.63719157681045      1.59211617748030     -1.68157568041020
  H   -2.05176919538284      1.20432234567865     -0.91374832652325
  N   1.82186925573707     -0.98766324908399      0.13157452261303
  H   1.56108601888041     -1.32372970386480      1.04983361410495
  H   1.68274306300223     -1.72739207599240     -0.54523383500143
  C   1.25578317517453      1.21978832697174      0.77383222869017
  N   1.42666480751511      2.01857378619320      1.61680244778306
