16
Coordinates from ORCA-job run
  C   -0.49275016375865     -0.14475665307587     -0.18081488532846
  C   0.93183990381439      0.29614013793508      0.23513323963800
  Br  -0.34278062386067     -2.08803637626778     -0.76131649658418
  H   0.80251711609940      1.32479638869506      0.59559730379230
  C   -1.46835483931820     -0.10668162530723      0.97763009235561
  H   -2.45855518974631     -0.43228158719272      0.65185576855531
  H   -1.14514656978244     -0.75843427458015      1.78832858826667
  H   -1.54006613469727      0.92243063877464      1.34237900414268
  N   -0.92976131012647      0.69038737668911     -1.23802143583029
  H   -1.89649419455686      0.50792553876770     -1.47685849270483
  H   -0.36588981478607      0.56777055323934     -2.06939866835331
  N   1.94444220829170      0.32815449363842     -0.79770302879258
  H   1.99597963581024     -0.55915802617905     -1.28313546145272
  H   1.77255897941060      1.07913550153172     -1.45176548370074
  C   1.41002319442405     -0.50340554979109      1.37175728590223
  N   1.78343780278255     -1.12398653687717      2.29533267009431
