16
Coordinates from ORCA-job run
  C   -0.54530723866052     -0.02489799321648     -0.38145511043924
  C   0.96838878956666     -0.23067357874282     -0.18674413227989
  Br  -0.84981801309252     -0.18587560220954     -2.38311879763959
  H   1.24972761182809     -1.16992793473670     -0.66994603515478
  C   -1.35408410322213     -1.13018040881150      0.26833759380690
  H   -1.03246957407799     -2.10524463718056     -0.09810875142707
  H   -1.20919834785321     -1.08886696067757      1.34757820133699
  H   -2.41262969875683     -1.00733567690256      0.02933859739638
  N   -0.91078716527277      1.24552721392468      0.12598417010782
  H   -1.91535648704160      1.36854498936591      0.14395239372007
  H   -0.49199030165370      2.00580998662614     -0.39808379932096
  N   1.24045566938515     -0.33607392891775      1.23861639223776
  H   1.00576027513848      0.54380036875640      1.68390523837410
  H   2.22330639849315     -0.52623726586459      1.39362619163683
  C   1.71259506180090      0.86619702259643     -0.84278566863126
  N   2.32040712341884      1.77643440599052     -1.27109648372405
