16
Coordinates from ORCA-job run
  C   -0.57019301571232     -0.01545184359468     -0.34358765972998
  C   0.95694351337365     -0.19918693622180     -0.26886695260058
  Br  -1.01499326773285     -0.06902010508052     -2.32449786431015
  H   1.21985153763016     -1.10245464162083     -0.82548471444732
  C   -1.31138080057080     -1.17259210284669      0.29662165992921
  H   -1.08966146624457     -1.18939905846677      1.36343362226324
  H   -1.00107668715923     -2.11875609025939     -0.14716615271847
  H   -2.38624476203320     -1.05789382121231      0.14103939116614
  N   -0.92032949514761      1.21566409103077      0.26185299867652
  H   -1.92272781864963      1.31532251753547      0.35944101480289
  H   -0.55461695642013      2.01383513342731     -0.24525192857764
  N   1.33240160172858     -0.38148121284907      1.12534974125099
  H   2.32760598035054     -0.55598232112142      1.19815113626537
  H   1.11327059615197      0.46554619838092      1.63732109986057
  C   1.63218458704111      0.95066203671950     -0.90825286164205
  N   2.19096645339435      1.89818815617952     -1.32210253018875
