16
Coordinates from ORCA-job run
  C   -0.54950584286980     -0.09385677249221     -0.45822868861339
  C   0.99581582501976      0.10072771167210     -0.32951638961761
  Br  -0.77828506558718     -1.52671862735136     -1.80725204892717
  H   1.35522989010064      0.38920818459244     -1.32484046453803
  C   -1.19202878031390     -0.54534872027858      0.83791219839716
  H   -2.26190073538963     -0.68045995588127      0.67989799742601
  H   -0.77018032587954     -1.48702477002015      1.18810099558638
  H   -1.04309991355416      0.21876799259558      1.60834987333075
  N   -1.23278615056758      1.06499111278442     -0.95830164949235
  H   -0.77419019076371      1.45261449954380     -1.77480248980664
  H   -1.29722795420609      1.77625187063522     -0.23847030039892
  N   1.81038510282116     -1.00468321586305      0.12979136476278
  H   1.55439341263512     -1.27964910312339      1.06965031097823
  H   1.68854392793408     -1.79656003618757     -0.48931805065574
  C   1.19987727670703      1.25181277617814      0.56491254840988
  N   1.29495952391380      2.16092705319588      1.30211479315866
