16
Coordinates from ORCA-job run
  C   -0.53880202132075     -0.07327517565201     -0.52739569448352
  C   0.99308125760021      0.02466814142947     -0.35342185034353
  Br  -0.87155122126643     -1.38161961132587     -1.94695942640402
  H   1.39834856626441      0.23612315377852     -1.34595083713155
  C   -1.22600962463198     -0.56348954943736      0.73801648643344
  H   -0.87131429680851     -1.55393515798733      1.02608484134934
  H   -1.03265522185932      0.14480564253772      1.55190897409190
  H   -2.30427660076543     -0.61628157532426      0.57798680958744
  N   -0.99569783659263      1.20998192973929     -1.03110148843254
  H   -1.01056885250210      1.88379539212505     -0.27026509855139
  H   -1.93939237140358      1.12388507028027     -1.38999138270302
  N   1.57295566794558     -1.20522263366694      0.15691950458658
  H   1.52839150891894     -1.23382619252584      1.16809383489622
  H   2.54585057684122     -1.27144767921556     -0.11258827365063
  C   1.27396693229012      1.19426767639130      0.50687824425483
  N   1.47667353729026      2.08157056885354      1.25078535650044
