16
Coordinates from ORCA-job run
  C   -0.49824721193692     -0.21858445725192     -0.22433049017549
  C   0.95869824561688      0.07810602821115      0.18711327811868
  Br  -0.70509038021026     -2.13807751138729     -0.53145398921215
  H   0.97904509625223      1.17485456600982      0.33321129235626
  C   -1.48163295763530      0.19515449985486      0.86059958899885
  H   -2.50280966354740      0.01656634976229      0.51944512142971
  H   -1.36507261195621      1.26570525965981      1.06618946056323
  H   -1.32235373384374     -0.35774004256303      1.78721893141422
  N   -0.70331533823060      0.44786595421719     -1.50662734554126
  H   -1.50645259057339      0.05079425600854     -1.97977758420951
  H   -0.89996178104538      1.43059292605765     -1.33441166921871
  N   1.88616247821869     -0.39135594307564     -0.82342245992422
  H   2.80414539500503      0.00555779824745     -0.66526706768477
  H   1.53349407223988     -0.07660527933386     -1.72101064768147
  C   1.27753540481111     -0.52094159057768      1.48876327975745
  N   1.54485557683538     -0.96089281383934      2.54376030100917
