16
Coordinates from ORCA-job run
  C   -0.51990184421397     -0.00324243588408     -0.52761390483360
  C   0.96860953003167     -0.13288890363509     -0.14510039353499
  Br  -0.64481312077133     -0.32587530056564     -2.46913134073220
  H   1.30952097567178     -1.12811004579447     -0.45944175363994
  C   -1.34344440211039     -1.08426635319971      0.16280344578321
  H   -1.30652144702068     -0.92009565281943      1.24329262434783
  H   -0.97779751370426     -2.08756645892207     -0.07102889194322
  H   -2.38475565112156     -1.02020462171984     -0.15853502776701
  N   -0.92572702085045      1.34796968604958     -0.26587919328721
  H   -0.69369044828935      1.55767869839057      0.70038077893686
  H   -1.92191122536732      1.46203434575087     -0.40868160183452
  N   1.09174909862676      0.08532529565486      1.30335081760913
  H   1.10066259406250     -0.80404719256228      1.78593457306934
  H   1.95401429998970      0.56725138355247      1.52285448869579
  C   1.78583926297002      0.85661914810097     -0.85383600198862
  N   2.51116691209685      1.62941840760330     -1.35836861888086
