16
Coordinates from ORCA-job run
  C   -0.48368823065173     -0.08563263080053     -0.50919704425233
  C   1.03329001521923     -0.14560481134872     -0.14747037125709
  Br  -0.57478829219892     -0.49934951058259     -2.44533852836957
  H   1.43113248825780     -1.10393401408113     -0.49653826212847
  C   -1.26312829785466     -1.16031447404643      0.22761864776680
  H   -1.27681483681029     -0.94702227098059      1.30093900553824
  H   -2.29170386808795     -1.17082075745932     -0.13168446677414
  H   -0.82153048931161     -2.14530560287231      0.06720362830003
  N   -1.10898074997898      1.18502995362786     -0.30576983896908
  H   -0.57735457852048      1.95500769989972     -0.69326774678538
  H   -1.33076947561423      1.34824393728542      0.66720642083981
  N   1.33666941513159     -0.02136362600077      1.26801715599285
  H   0.99013899477554     -0.81774118708320      1.78548964918588
  H   0.94768329421694      0.83012782885989      1.65336883745027
  C   1.73873650807046      0.93041290546584     -0.85783004665826
  N   2.25110810335730      1.84826656011687     -1.38074703987954
