16
Coordinates from ORCA-job run
  C   -0.46615230155916     -0.17452354566598     -0.20371112387196
  C   0.99417390123204      0.21449376022077      0.15052647953917
  Br  -0.52758886401058     -2.09956005840515     -0.57120678598578
  H   0.96096205411416      1.30528120334808      0.29600253976546
  C   -1.43305058418504      0.12443206560221      0.93116795267542
  H   -1.19900925649735     -0.44817869618340      1.82954293644654
  H   -2.45495255081158     -0.10678307782914      0.62446034095839
  H   -1.37751071495418      1.19228035720926      1.17401269414335
  N   -0.76821353655620      0.50542925163330     -1.45618167280218
  H   -0.98016892312988      1.47890546482815     -1.25237611390652
  H   -1.58936527534418      0.09703236319747     -1.88742835048801
  N   1.99451209237112     -0.05793686274445     -0.86056315549269
  H   1.60733812784924      0.24687871382173     -1.74833981159104
  H   2.14413159708829     -1.05881624152314     -0.92172712476663
  C   1.39546704410223     -0.37140684521050      1.43321795567462
  N   1.70142719029108     -0.84752785229920      2.46160323970186
