16
Coordinates from ORCA-job run
  C   -0.62800825463486     -0.08233716826278     -0.42494294394447
  C   0.90333906943943     -0.23448404544256     -0.22872272049778
  Br  -0.95945510892716     -0.43666860926712     -2.34058551285853
  H   1.18521946947928     -1.25197995417422     -0.51473155098529
  C   -1.37674354369565     -1.12297258845787      0.38631528858792
  H   -1.17246819827446     -0.96725980378045      1.44717367324374
  H   -1.05796340325720     -2.13017410593978      0.11426811756642
  H   -2.44514073892061     -1.02359807029379      0.19502221682789
  N   -1.13819942876041      1.22334486774138     -0.12731254238388
  H   -1.17329477737300      1.37654339923124      0.87282541945172
  H   -0.62264005750076      1.96244433814012     -0.59009125496627
  N   1.21546852021219     -0.04160531578363      1.18547022823216
  H   1.29741682614540      0.94750743526492      1.38850581015908
  H   2.10699622534420     -0.46863919057240      1.40494138275957
  C   1.63400585403601      0.71322306461246     -1.09079959114791
  N   2.23146754668761      1.53665574698448     -1.67933602004436
