16
Coordinates from ORCA-job run
  C   -0.54817101649977      0.00781668383637     -0.37817870727121
  C   0.97086400662006     -0.19129241512794     -0.21988811882412
  Br  -0.87096183612057      0.06680712620862     -2.38167435520245
  H   1.26302151461368     -1.06491363841386     -0.80836807251353
  C   -1.33146046251389     -1.17732978671399      0.15086145051018
  H   -2.39422985678908     -1.04736311373957     -0.06441290974778
  H   -0.99722218089243     -2.09967366205608     -0.32447364390420
  H   -1.17651500599761     -1.25420363699426      1.22671952190037
  N   -0.92973142600266      1.20670498515306      0.27192683930660
  H   -0.53023331201247      2.02835984325027     -0.16765206470568
  H   -1.93577779028122      1.30859640785823      0.31317669145034
  N   1.25833004196721     -0.45149062618649      1.18251557609676
  H   1.00921543401478      0.36744477789587      1.72549017232758
  H   2.24659681309137     -0.63536228218777      1.30801775406613
  C   1.68934921662101      0.98611508516068     -0.75363702246431
  N   2.27692586018160      1.94978425205689     -1.08142311102466
