16
Coordinates from ORCA-job run
  C   -0.49654221154677     -0.00557401125319     -0.41839266362823
  C   1.03535281112400      0.19716358489407     -0.24864869277377
  Br  -0.66051617791082     -1.45099491581374     -1.86805923164621
  H   1.41120358059084      0.57847182813902     -1.20637403517488
  C   -1.17476708529512     -0.56065365239079      0.81543347579568
  H   -1.07302414472995      0.16133549122587      1.63024282692924
  H   -0.73980989406310     -1.51464255229838      1.11051346846676
  H   -2.23632112578794     -0.72666142825993      0.62202880880122
  N   -1.08013222729036      1.20697597387925     -0.81964342027940
  H   -2.08732544904173      1.15611261195898     -0.89476008988098
  H   -0.69018700760583      1.57362086070977     -1.67866403902426
  N   1.84583474339636     -0.94469982569934      0.11620247935610
  H   1.71773355671188     -1.68861187615854     -0.55825904985181
  H   1.60104020383109     -1.28530662449053      1.03725809530898
  C   1.23380133960209      1.24952039092476      0.76111036732527
  N   1.39265908801535      2.05394414463272      1.60101170027631
