16
Coordinates from ORCA-job run
  C   -0.59313738445461     -0.10365270145146     -0.44442936715164
  C   0.93766705462761      0.08166659243690     -0.26017742370017
  Br  -0.77454514241531     -1.51514497250146     -1.82966367126210
  H   1.33428183247701      0.39517045985182     -1.23995296253195
  C   -1.27251661899614     -0.57583479624017      0.82363414416453
  H   -2.33197514002868     -0.73765987091959      0.62497200143476
  H   -0.81438670086632     -1.49089952611411      1.19163160517126
  H   -1.16950298935235      0.19443859377440      1.59542574081303
  N   -1.25246982689900      1.06206966573721     -0.95532365987261
  H   -0.75815255125621      1.47112298988753     -1.73940242710136
  H   -1.36671090164404      1.75428020665397     -0.22376123155442
  N   1.57635167692695     -1.10412853877530      0.29175887359627
  H   2.54856967252643     -0.91058551042395      0.50069333621379
  H   1.54151528881027     -1.84341232422253     -0.40055278020577
  C   1.13157810836573      1.20663040707323      0.66585251568427
  N   1.26343362217865      2.11493932523350      1.39829530630211
