16
Coordinates from ORCA-job run
  C   -0.50359184131950     -0.06215429454060     -0.49070301607614
  C   1.01244161354670      0.08560757591296     -0.22960761944600
  Br  -0.68805896822996     -1.42658877458349     -1.90505829877657
  H   1.45239870073873      0.39912953272997     -1.18679447791988
  C   -1.26368170353825     -0.54618528334467      0.73219896797950
  H   -1.17728762776022      0.20929433327123      1.52031041650304
  H   -2.31977861865243     -0.67288836356236      0.48605241958058
  H   -0.86015221827200     -1.48501615960797      1.10808158039773
  N   -0.96451199923631      1.18349159327863     -1.07057756494452
  H   -0.98585302354745      1.89618715928039     -0.34566206768428
  H   -1.90879473933520      1.07181501141485     -1.42205036140036
  N   1.58176139601849     -1.12549712147659      0.34722185692131
  H   2.54196219444162     -0.95542555813499      0.62273728883100
  H   1.58388909614688     -1.85017897636104     -0.36170830144597
  C   1.19165469372529      1.19279005890976      0.72029768213738
  N   1.30760304527359      2.08561926681392      1.47426149534319
