16
Coordinates from ORCA-job run
  C   -0.64518267038930     -0.03003221644794     -0.42283897972639
  C   0.89962129459550     -0.15119025284102     -0.28293810999232
  Br  -1.04585585615574     -0.30153911362386     -2.32688969430243
  H   1.21914148765072     -1.10370313020034     -0.72686331784851
  C   -1.32659903671768     -1.12561723124388      0.37710293764383
  H   -1.14994232675336     -0.95605625094741      1.44251755728064
  H   -0.95240898215688     -2.11340202371001      0.09822577750773
  H   -2.39984943063408     -1.08569267273442      0.19493272747105
  N   -1.17431913448507      1.25018324986095     -0.03605486757106
  H   -0.88187891735045      1.42503073076120      0.92141662619920
  H   -0.80038244415462      1.98736663542305     -0.62450955895431
  N   1.23163272765029     -0.02912544125463      1.14158948210915
  H   1.27480200433171     -0.94943935211779      1.56081313153271
  H   2.13505118163942      0.40958928423643      1.26677496430930
  C   1.55198811219637      0.93450524877054     -1.01822021502747
  N   2.06318199073316      1.83912253606913     -1.56505846063112
