16
Coordinates from ORCA-job run
  C   -0.50510603112595     -0.11382031289901     -0.16755684497204
  C   0.95689450703226      0.22951401181900      0.20815477854226
  Br  -0.53688902770567     -2.10613125685136     -0.57690749368767
  H   0.92485946685101      1.29311728416349      0.47732976995664
  C   -1.46395050463383      0.11275327946387      0.98329706784873
  H   -2.48256946689367     -0.14586732309501      0.68634241643537
  H   -1.43739738415096      1.17134821360935      1.25898336767820
  H   -1.19600470642415     -0.49482232763944      1.84669324524441
  N   -0.87303736732061      0.66266421334539     -1.29329345862709
  H   -0.32871089959007      0.41867555459205     -2.11077941638841
  H   -1.85410445957910      0.54892518828164     -1.51560727140688
  N   1.96001844081921      0.07878288639399     -0.82328090741596
  H   1.92640932398329     -0.84791591828175     -1.23023719897822
  H   1.85349562488550      0.78366220660852     -1.53954632242149
  C   1.36892371362336     -0.50870749321396      1.41059390238503
  N   1.68816877022937     -1.08017820629676      2.38481436580712
