16
Coordinates from ORCA-job run
  C   -0.63316072872350     -0.10936038488618     -0.47840534296787
  C   0.91309354995726      0.02427111760961     -0.37930719734867
  Br  -0.96911970444754     -1.43872688377799     -1.88822278852345
  H   1.28005591616632      0.24084391076355     -1.38764704252865
  C   -1.23298781168961     -0.60773639008492      0.82154591648737
  H   -1.01638604202157      0.10439241828626      1.62635764674109
  H   -2.31405595834535     -0.68590089836557      0.70813414498951
  H   -0.83103143202643     -1.58519832154945      1.08590162419031
  N   -1.29229239368132      1.10432578607771     -0.88280083002023
  H   -0.89091834886456      1.48737148519963     -1.73078300586514
  H   -1.24456283899109      1.79782995188243     -0.14422215634552
  N   1.55481152428019     -1.18796274024090      0.09467758219670
  H   2.51891297209004     -1.22306771668838     -0.20983960279573
  H   1.54458320748404     -1.22949815603382      1.10604719796816
  C   1.20018082850744      1.20342523518842      0.46654829277950
  N   1.41187726030567      2.10399158661960      1.19201556104263
