16
Coordinates from ORCA-job run
  C   -0.49357191146230      0.00279218702529     -0.42050966540157
  C   1.03795435381018      0.19754747305954     -0.24012660945194
  Br  -0.65641986378544     -1.41763682803655     -1.89352850242133
  H   1.41984760591043      0.59313789288988     -1.18965641619165
  C   -1.17957544877652     -0.56937458637026      0.80124084468605
  H   -1.07772012234313      0.13829236130641      1.62855863728176
  H   -0.75082679510198     -1.53055778172007      1.08192881755943
  H   -2.24127907297007     -0.72626584652898      0.60102088760292
  N   -1.07166087290873      1.22410710089172     -0.80491497492479
  H   -0.67529274388837      1.60223783559775     -1.65610890414458
  H   -2.07844075372961      1.17485884346313     -0.88890768811370
  N   1.84255418930332     -0.95306584982153      0.10973495328948
  H   1.71759108968080     -1.68398357407942     -0.57931742847507
  H   1.58983730312095     -1.31007102395898      1.02231804428984
  C   1.23505229134905      1.23325030601783      0.78696450403008
  N   1.38195075179142      2.02573149026426      1.64030350038507
