16
Coordinates from ORCA-job run
  C   -0.54630604137480     -0.06039605581271     -0.44573371424061
  C   1.00622643151193     -0.10429707561046     -0.29315443272939
  Br  -0.88820731354740     -0.32374081952407     -2.37979308165319
  H   1.37091408384850     -1.02141549632218     -0.76705466056806
  C   -1.19993256366531     -1.21178658241291      0.29768976207928
  H   -2.26657845196272     -1.22608878878534      0.07572261926064
  H   -0.76343425119466     -2.16757486894483      0.00268327982453
  H   -1.07620034464703     -1.08196225917449      1.37731337882697
  N   -1.16251963768458      1.17191064496407     -0.05918656776748
  H   -1.24760743746649      1.25508786286170      0.94527298527673
  H   -0.70498883495881      1.98422651901424     -0.45501413150976
  N   1.49411153395975     -0.07980046631323      1.07506190104293
  H   1.15137891843586      0.73208019282222      1.57288184397725
  H   1.22994546516518     -0.91985488806981      1.57137358338657
  C   1.59113955951274      1.04209084965283     -1.00281900163871
  N   2.01405888406784      2.01052123165496     -1.51424376356770
