16
Coordinates from ORCA-job run
  C   -0.46239467308597     -0.05840568910688     -0.50302421421768
  C   1.06830575613483      0.13253306286153     -0.30296606143837
  Br  -0.66908166937693     -1.43552607939007     -1.89743938699466
  H   1.45743066844138      0.44387245422271     -1.27746120963175
  C   -1.16621747845434     -0.55768476707435      0.74963584723627
  H   -0.77020402227069     -1.51464227973368      1.09342515602123
  H   -2.23156930877244     -0.68722915977299      0.55080258900589
  H   -1.05027848273169      0.18524768798689      1.54581607456671
  N   -0.98230233495140      1.17153697584252     -1.06188899078212
  H   -0.95213916155846      1.90103754831443     -0.35473808014348
  H   -1.94793401338022      1.04838930115594     -1.34486946900049
  N   1.84903492638562     -0.98977198980616      0.17239798996456
  H   1.54532864483932     -1.28837800017850      1.09035885264910
  H   1.76281074760648     -1.76475412551472     -0.47313379081536
  C   1.24290012117090      1.26048264067314      0.62597446919003
  N   1.30731028000360      2.15329241952020      1.38611022439014
