13

C	-0.075642	0.091654	-1.537475
C	0.0	0.0	0.0
Br	-0.130593	-2.017701	-2.163049
H	1.094209	0.0	0.0
H	-0.447325	-0.906241	0.396817
C	-1.327613	0.525144	-2.146594
N	-2.335553	0.91912	-2.610163
N	1.038144	0.74557	-1.971563
H	1.151652	0.839998	-2.969701
H	1.892503	0.521428	-1.378898
C	-0.533598	1.196428	0.623427
N	-0.971149	2.156484	1.141784
F	2.648846	0.0	0.0
