13

C	-0.125679	0.077119	-1.543236
C	0.0	0.0	0.0
Br	-0.043896	-1.779994	-2.276556
H	1.093914	0.0	0.0
H	-0.316799	0.974045	0.390169
C	-1.408575	0.621145	-1.999188
N	-2.441333	1.099007	-2.299689
N	0.981461	0.817279	-2.090174
H	1.803319	0.593715	-1.485514
H	0.781523	1.809796	-2.016606
C	-0.692061	-1.060571	0.688411
N	-1.266666	-1.891895	1.288442
F	2.615978	0.0	0.0
