13

C	-0.071414	0.356212	-1.499784
C	0.0	0.0	0.0
Br	-0.268146	-1.634161	-2.479151
H	1.102991	0.0	0.0
H	-0.446123	-0.961649	0.234144
C	-1.291211	0.953498	-2.027894
N	-2.252706	1.499812	-2.429732
N	1.0741	1.00302	-1.836677
H	1.186475	1.279192	-2.799766
H	1.923456	0.676573	-1.278469
C	-0.531953	1.070014	0.822495
N	-0.969969	1.925615	1.498924
F	2.661805	0.0	0.0
