13

C	-0.115515	0.103859	-1.534314
C	0.0	0.0	0.0
Br	-0.119277	-1.856333	-2.306386
H	1.094542	0.0	0.0
H	-0.330717	0.956952	0.416804
C	-1.38805	0.608272	-2.05127
N	-2.398401	1.07959	-2.425365
N	0.976926	0.850895	-1.950315
H	1.096333	0.904534	-2.95089
H	1.835591	0.591191	-1.398479
C	-0.66349	-1.09344	0.666745
N	-1.197164	-1.935118	1.289888
F	2.636947	0.0	0.0
