17

C	-0.479384	-0.070408	-1.447374
C	0.0	0.0	0.0
F	-0.029973	-1.211349	-2.028401
H	1.095626	0.0	0.0
C	-1.945877	-0.02667	-1.556318
N	-3.117438	0.008171	-1.637059
N	0.059325	1.092913	-2.287352
O	-0.480728	2.177317	-2.084313
O	0.965151	0.853718	-3.066553
N	-0.527526	-1.23724	0.595955
H	0.174798	-1.956641	0.479674
H	-0.637022	-1.092706	1.590209
C	-0.514621	1.213094	0.75176
H	-0.104568	1.177432	1.764298
H	-1.607596	1.213418	0.809581
H	-0.180607	2.142709	0.295197
Cl	3.375046	0.0	0.0
