17

C	-0.499398	-0.030075	-1.446778
C	0.0	0.0	0.0
F	-1.873845	-0.115893	-1.462705
H	1.093897	0.0	0.0
C	-0.113762	1.127179	-2.25837
N	0.101541	2.093323	-2.890192
N	0.004394	-1.283827	-2.153398
O	1.076738	-1.19005	-2.733348
O	-0.692199	-2.286125	-2.038612
N	-0.433946	-1.174958	0.737703
H	0.234895	-1.924176	0.613461
H	-1.34604	-1.492955	0.435026
C	-0.501499	1.271789	0.673471
H	-1.594156	1.291637	0.722651
H	-0.105916	1.273641	1.688846
H	-0.145097	2.16912	0.162699
Cl	3.351986	0.0	0.0
