17

C	-0.483887	-0.081271	-1.444613
C	0.0	0.0	0.0
F	-0.045645	-1.236402	-2.010657
H	1.101293	0.0	0.0
C	-1.950481	-0.028545	-1.555811
N	-3.120293	0.011548	-1.64984
N	0.072289	1.06741	-2.295529
O	-0.462779	2.15663	-2.113466
O	0.981622	0.810922	-3.061988
N	-0.528684	-1.225372	0.618741
H	-0.518213	-1.092099	1.623406
H	0.129603	-1.972977	0.424025
C	-0.515585	1.218342	0.740021
H	-0.189527	2.14569	0.272961
H	-1.608179	1.210333	0.806515
H	-0.098302	1.19614	1.750567
Cl	3.376848	0.0	0.0
