17

C	0.0	0.0	0.0
C	-0.442554	-0.059613	-1.48796
Cl	1.798984	0.0	0.0
H	0.285747	0.553254	-2.033123
H	-0.272358	0.986891	0.381955
C	-0.577174	-1.069453	0.898122
H	-1.669174	-1.028837	0.819047
H	-0.29899	-0.892968	1.939667
H	-0.226811	-2.06181	0.61005
N	-1.746938	0.502339	-1.76643
H	-1.78495	1.469171	-1.465846
H	-2.512329	0.040406	-1.273401
C	-0.381195	-1.475753	-2.04465
H	-0.540244	-1.436253	-3.123487
H	-1.179663	-2.08565	-1.614759
H	0.580823	-1.953579	-1.841871
Cl	-4.448569	0.0	0.0
