14

C	-0.358042	0.0045	-1.514954
C	0.0	0.0	0.0
Cl	0.244326	-1.528059	-2.206038
H	1.097218	0.0	0.0
C	-1.816462	0.041153	-1.695582
N	-2.982891	0.092278	-1.816794
N	0.256067	1.095882	-2.223262
H	-0.124486	1.971601	-1.877766
H	1.256519	1.074458	-2.023127
C	-0.526691	-1.151979	0.723305
N	-0.95019	-2.080139	1.307188
C	-0.469071	1.249334	0.595329
N	-0.843072	2.278767	1.021816
Br	3.319702	0.0	0.0
