14

C	-0.280751	-0.08795	-1.517039
C	0.0	0.0	0.0
Cl	-2.029709	-0.396127	-1.841283
H	1.098935	0.0	0.0
C	0.017783	1.213128	-2.149902
N	0.281813	2.222229	-2.694226
N	0.495628	-1.185284	-2.010427
H	1.462849	-1.071093	-1.691948
H	0.475312	-1.211875	-3.022409
C	-0.468953	-1.199717	0.686869
N	-0.834562	-2.148783	1.273891
C	-0.540228	1.206234	0.609843
N	-0.979035	2.176556	1.105637
Br	3.300898	0.0	0.0
