14

C	-0.445028	0.024947	-1.475818
C	0.0	0.0	0.0
Cl	-2.320936	0.187086	-1.494443
H	1.097313	0.0	0.0
C	0.026743	1.239995	-2.143208
N	0.361294	2.207457	-2.718686
N	0.01319	-1.113929	-2.145165
H	-0.256893	-1.977855	-1.692412
H	-0.21748	-1.118699	-3.12834
C	-0.462073	-1.236156	0.625092
N	-0.808964	-2.260973	1.082968
C	-0.47315	1.169345	0.733024
N	-0.832587	2.117612	1.325131
Br	3.287351	0.0	0.0
