14

C	-0.296606	-0.027685	-1.52814
C	0.0	0.0	0.0
Cl	-2.069449	-0.207246	-1.794983
H	1.098299	0.0	0.0
C	0.108863	1.257437	-2.113479
N	0.404824	2.2918	-2.585455
N	0.387221	-1.095421	-2.203784
H	1.387218	-0.990322	-2.014439
H	0.081709	-1.981657	-1.812195
C	-0.456218	-1.241577	0.61364
N	-0.80713	-2.26291	1.076305
C	-0.535765	1.168256	0.6823
N	-0.969161	2.115741	1.225579
Br	3.285713	0.0	0.0
