14
Coordinates from ORCA-job run
  C   -0.37193854921080      0.11299119801396      0.16266947871246
  C   1.14422220430678      0.02858612816556      0.38110501154565
  H   -0.81185705446720      0.57812082672693      1.05150230643105
  H   1.62161011573098     -0.35574255256646     -0.52770505321567
  H   1.37775497368847     -0.67318158984878      1.18753989414024
  C   -0.95641154071814     -1.28889940617655     -0.00636559753015
  H   -0.50845099003076     -1.78539623017955     -0.87348530054217
  H   -0.78037025210358     -1.91466507145151      0.87342251887123
  H   -2.03524705583700     -1.23344692838070     -0.17129643455671
  N   -0.61944412398884      1.01771068581912     -0.95427279600835
  H   -0.38214055763754      0.55924317966412     -1.82783701806256
  H   -1.60123039054481      1.26217528197916     -0.99815207887410
  C   1.72722525000190      1.32917186595309      0.70523985801533
  N   2.19927797081054      2.36233261228161      0.99763521107376
