14
Coordinates from ORCA-job run
  C   -0.43254050055280      0.18853808426413      0.06800876585977
  C   1.02089835206446      0.68261662624159      0.07094804965145
  H   -0.87871264681748      0.44797105907036      1.04115307983509
  H   1.48942153874679      0.39793496986510     -0.87555915031474
  H   1.04914951356068      1.77555545435333      0.13079819054775
  C   -0.49958846129498     -1.31851263414513     -0.11388378610191
  H   -0.06299886911978     -1.59315782834860     -1.07746683514170
  H   0.03483705102180     -1.83923667182269      0.68289388930401
  H   -1.53805447820244     -1.66121147122797     -0.09910519744960
  N   -1.09752260149503      0.83990020712690     -1.05949932326164
  H   -1.22390498623141      1.82760296027786     -0.86764423674675
  H   -2.02054137350302      0.44125522397061     -1.18678409588320
  C   1.78629005804517      0.13452158229591      1.18853094197306
  N   2.37226740377806     -0.32277756192140      2.09660970772841
