14
Coordinates from ORCA-job run
  C   -0.50678167926623      0.15750315612989      0.15957947855100
  C   0.93574466319005      0.70692549937532      0.06185625825682
  H   -0.87733958554538      0.37572251880469      1.16724739053372
  H   0.92826011973280      1.79432622100736      0.18766597782641
  H   1.33546401524567      0.49746907148739     -0.93668647491493
  C   -0.53645645515573     -1.34641011493311     -0.06085023213644
  H   -1.56328360229753     -1.70591195116351      0.01366990553748
  H   0.07873575952630     -1.87263983118771      0.67117781286620
  H   -0.16056144181429     -1.59225975659630     -1.06003557965352
  N   -1.41787903627362      0.79847400402302     -0.77944076128095
  H   -1.11855626471600      0.62096927462920     -1.73206216658265
  H   -1.43346822103505      1.80224131243511     -0.64136621624903
  C   1.82800599882970      0.12564724637251      1.06305379292888
  N   2.50911572957935     -0.36205665038384      1.88519081431702
