15

C	0.0	0.0	0.0
C	-0.467763	0.090265	-1.451139
F	1.381863	0.0	0.0
H	-1.565373	0.18548	-1.390294
H	-0.302422	0.912299	0.528092
N	-0.537989	-1.206002	0.544005
H	-1.569147	-1.029347	0.46788
H	-0.329776	-1.222714	1.53804
N	-0.057308	-1.005554	-2.290317
H	0.950499	-1.097303	-2.205839
H	-0.460734	-1.832214	-1.861181
N	0.072315	1.367789	-2.008884
O	-0.406563	2.410435	-1.562636
O	0.980751	1.316519	-2.838328
H	-3.009133	0.0	0.0
