15

C	0.0	0.0	0.0
C	-0.220279	-0.04753	-1.54381
Br	1.940433	0.0	0.0
H	0.381501	0.776671	-1.92925
H	0.278281	-0.968719	-1.862009
N	-0.47254	1.257411	0.625301
O	-0.545191	1.284226	1.861607
O	-0.459253	2.266787	-0.100882
C	-0.498748	-1.148439	0.72701
N	-0.61009	-2.185642	1.2831
C	-1.593594	0.028489	-2.198198
H	-2.112007	0.942249	-1.914433
H	-2.228447	-0.822713	-1.956172
H	-1.429173	0.039064	-3.288631
H	-1.913781	0.0	0.0
