15

C	0.0	0.0	0.0
C	-0.22306	-0.022284	-1.546229
Br	1.941023	0.0	0.0
H	0.271545	-0.941478	-1.87969
H	0.381454	0.80557	-1.919028
N	-0.461546	1.255271	0.642087
O	-0.521879	1.270828	1.878068
O	-0.469339	2.269026	-0.074987
C	-0.50088	-1.156278	0.710926
N	-0.602139	-2.202459	1.253559
C	-1.598412	0.070044	-2.195946
H	-2.112738	0.981297	-1.893289
H	-2.235004	-0.782362	-1.966101
H	-1.436597	0.100799	-3.285948
H	-1.914663	0.0	0.0
