15

C	0.0	0.0	0.0
C	-0.319493	-0.002701	-1.517369
Br	1.947044	0.0	0.0
H	-1.27944	0.484316	-1.655342
H	0.44557	0.588455	-2.023249
N	-0.387279	1.300693	0.652432
O	-0.465138	1.312448	1.880567
O	-0.365212	2.300827	-0.070464
C	-0.552796	-1.108065	0.753165
N	-0.629252	-2.122953	1.36055
C	-0.359707	-1.421789	-2.062399
H	-0.517703	-1.399879	-3.145989
H	0.567317	-1.961072	-1.859898
H	-1.179294	-1.978556	-1.604786
H	-2.052664	0.0	0.0
