15

C	0.0	0.0	0.0
C	-0.220766	0.005956	-1.546757
Br	1.941323	0.0	0.0
H	0.288602	-0.898138	-1.897053
H	0.371695	0.850928	-1.900547
N	-0.46992	1.240131	0.664957
O	-0.469836	2.268908	-0.031202
O	-0.538019	1.230303	1.901416
C	-0.495823	-1.172688	0.68806
N	-0.604226	-2.228926	1.208024
C	-1.595764	0.086439	-2.197053
H	-1.433607	0.133546	-3.286251
H	-2.21834	-0.779084	-1.976944
H	-2.125798	0.984846	-1.883736
H	-1.921453	0.0	0.0
