15

C	0.0	0.0	0.0
C	-0.299317	0.066271	-1.522648
Br	1.946753	0.0	0.0
H	0.426681	0.75189	-1.962228
H	-1.289666	0.48745	-1.662762
N	-0.420994	1.264796	0.695398
O	-0.483163	1.242411	1.925321
O	-0.428262	2.288195	0.00296
C	-0.546282	-1.149801	0.688766
N	-0.579465	-2.202864	1.231376
C	-0.210564	-1.308224	-2.170609
H	-0.436555	-1.228184	-3.2382
H	-0.929401	-1.994875	-1.716982
H	0.788205	-1.738408	-2.066421
H	-2.033624	0.0	0.0
