14

C	-0.360239	-0.006248	-1.462486
C	0.0	0.0	0.0
Cl	-2.179753	-0.451458	-1.679066
H	1.093793	0.0	0.0
H	0.153597	-0.835729	-1.942623
N	-0.033937	1.221681	-2.062608
H	-0.207613	1.209127	-3.056834
H	-0.521817	1.997779	-1.633739
N	-0.322366	-1.238749	0.675388
O	-0.570765	-1.201474	1.889639
O	-0.157835	-2.275777	0.019001
C	-0.513524	1.153351	0.694784
N	-0.863078	2.17466	1.163512
H	2.388062	0.0	0.0
