14

C	-0.343759	-0.112146	-1.489388
C	0.0	0.0	0.0
Cl	-0.481908	1.629869	-2.187803
H	1.090945	0.0	0.0
H	-1.343344	-0.50582	-1.668738
N	0.657824	-0.881557	-2.084632
H	0.601978	-0.919705	-3.091025
H	1.584138	-0.613038	-1.741887
N	-0.402745	-1.223936	0.734798
O	-0.903337	-2.163187	0.111603
O	-0.141529	-1.234611	1.93879
C	-0.518042	1.14388	0.713751
N	-0.912452	2.067147	1.325952
H	2.545344	0.0	0.0
