14

C	-0.470426	0.021251	-1.452862
C	0.0	0.0	0.0
Cl	0.308494	-1.260639	-2.431594
H	1.090296	0.0	0.0
H	-0.072264	0.950837	-1.877092
N	-1.903584	-0.124113	-1.535491
H	-2.262728	0.309919	-2.374388
H	-2.352088	0.291117	-0.728233
N	-0.501488	-1.173878	0.717428
O	0.053875	-2.241109	0.45751
O	-1.409146	-1.024881	1.549149
C	-0.472906	1.218218	0.635796
N	-0.827383	2.247883	1.079547
H	2.527888	0.0	0.0
