14

C	-0.325364	-0.089921	-1.492361
C	0.0	0.0	0.0
Cl	-0.072865	1.610594	-2.213504
H	1.091925	0.0	0.0
H	-1.383337	-0.275334	-1.688571
N	0.513685	-1.081332	-2.020842
H	1.473821	-0.929762	-1.691046
H	0.471582	-1.133611	-3.029137
N	-0.492799	-1.273017	0.624576
O	-1.69133	-1.322469	0.918912
O	0.311979	-2.18342	0.781392
C	-0.597016	1.118514	0.695165
N	-1.027561	2.032944	1.295175
H	2.645928	0.0	0.0
