14

C	-0.494999	0.133512	-1.428213
C	0.0	0.0	0.0
Cl	0.492194	-0.930591	-2.556409
H	1.09055	0.0	0.0
H	-0.227055	1.138985	-1.754678
N	-1.898604	-0.06321	-1.558657
H	-2.109849	-1.017165	-1.292385
H	-2.181191	0.076722	-2.52098
N	-0.40025	-1.210389	0.679543
O	-0.19134	-1.254579	1.901411
O	-0.780707	-2.184135	-0.000747
C	-0.396187	1.155852	0.776231
N	-0.639628	2.141349	1.370613
H	2.381831	0.0	0.0
