14

C	-0.455688	0.012028	-1.453208
C	0.0	0.0	0.0
Cl	0.295453	-1.241812	-2.480171
H	1.090858	0.0	0.0
H	-0.05131	0.948552	-1.857989
N	-1.894951	-0.123386	-1.552799
H	-2.184999	0.033568	-2.511741
H	-2.328297	0.583502	-0.968113
N	-0.43763	-1.153626	0.77941
O	-0.892149	-0.956686	1.916182
O	-0.209363	-2.265514	0.299638
C	-0.463567	1.227249	0.615682
N	-0.787065	2.283422	1.022145
H	2.449689	0.0	0.0
