14

C	-0.322524	-0.092864	-1.492549
C	0.0	0.0	0.0
Cl	-0.067586	1.603327	-2.217347
H	1.091951	0.0	0.0
H	-1.378483	-0.280713	-1.691972
N	0.520445	-1.087962	-2.008842
H	0.478568	-1.152092	-3.015865
H	1.480274	-0.931105	-1.680097
N	-0.499952	-1.275174	0.61905
O	0.316085	-2.15158	0.873748
O	-1.717404	-1.357103	0.807762
C	-0.602254	1.115233	0.696188
N	-1.041344	2.022288	1.301282
H	2.656602	0.0	0.0
