14

C	0.0	0.0	0.0
C	-0.267678	-0.046467	-1.542958
Br	1.964453	0.0	0.0
H	0.508994	-0.684588	-1.976221
C	-0.52719	1.19371	0.642542
N	-0.58087	2.221118	1.228314
C	-0.457622	-1.203797	0.682249
N	-0.535459	-2.210747	1.295616
C	-0.171885	1.28835	-2.120553
N	-0.048637	2.347088	-2.614481
N	-1.541918	-0.723533	-2.0151
O	-2.362947	-0.070429	-2.650055
O	-1.549419	-1.940705	-1.853093
H	-1.931357	0.0	0.0
