14

C	0.0	0.0	0.0
C	-0.227932	0.024658	-1.552488
Br	1.969369	0.0	0.0
H	0.457144	-0.714795	-1.9755
C	-0.47792	1.190926	0.681742
N	-0.561326	2.207659	1.278547
C	-0.534149	-1.214739	0.596136
N	-0.57457	-2.274335	1.124144
C	0.063763	1.343419	-2.102695
N	0.325665	2.395679	-2.554545
N	-1.585264	-0.436069	-2.065129
O	-1.730875	-1.655861	-2.071607
O	-2.3401	0.389748	-2.566528
H	-1.91527	0.0	0.0
