14

C	0.0	0.0	0.0
C	-0.397154	-0.029117	-1.517199
Br	1.951911	0.0	0.0
H	-1.453873	-0.320582	-1.518604
C	-0.553193	1.163516	0.691381
N	-0.609068	2.152577	1.339176
C	-0.538843	-1.230056	0.600154
N	-0.548337	-2.312879	1.07842
C	0.400481	-0.920007	-2.345057
N	0.924609	-1.670178	-3.084723
N	-0.392604	1.338947	-2.155592
O	-1.244531	1.504441	-3.026204
O	0.441916	2.158909	-1.794929
H	-2.155626	0.0	0.0
