14

C	0.0	0.0	0.0
C	-0.379415	-0.057861	-1.532102
Br	1.95188	0.0	0.0
H	-1.4269	-0.369583	-1.557193
C	-0.450001	1.256029	0.598524
N	-0.538901	2.303367	1.136031
C	-0.713034	-1.129384	0.639672
N	-0.698297	-2.189665	1.179861
C	0.460982	-0.937814	-2.331501
N	1.015678	-1.688601	-3.047338
N	-0.381741	1.312754	-2.170047
O	0.686842	1.90879	-2.251271
O	-1.469204	1.720258	-2.567458
H	-2.100841	0.0	0.0
