17
Coordinates from ORCA-job run
  C   0.70192105142406      0.34149456972126     -0.41440981274246
  C   -0.34021097135915     -0.66676816709427      0.09222268328699
  Cl  1.00228346638423      0.02012594784629     -2.20487366330797
  H   0.09693965909716     -1.66822334238284     -0.05707572951554
  N   1.92059845772600      0.13398330169752      0.32457740441603
  H   2.32860980747706     -0.76406765305066      0.08668805204859
  H   2.59765730627989      0.85173733786925      0.09220463502979
  N   0.17981390222828      1.66509609799293     -0.31108461495062
  H   0.87009378216924      2.36044112087114     -0.56555279422876
  H   -0.12481261056967      1.79301227582335      0.64815538922983
  C   -1.66709297332954     -0.59210041579246     -0.64199488149964
  H   -2.36638307993553     -1.31460928321545     -0.21052322541353
  H   -1.55023653454799     -0.82546877542813     -1.69910708741056
  H   -2.08755175008510      0.40845116439171     -0.54584846896511
  N   -0.55403854716501     -0.33266471586886      1.50093770927881
  H   -1.30124034094091     -0.90059071778695      1.88053691630155
  H   0.29364937514699     -0.50984874559383      2.02514748844261
