17
Coordinates from ORCA-job run
  C   0.59775836718291      0.57793772182211     -0.21771425829435
  C   -0.26795796599135     -0.58250418127692      0.29358647498333
  Cl  -0.53043438811929      2.04217733202877     -0.44976240025002
  H   0.44232544939422     -1.41551243004501      0.37150872408505
  N   1.11461256782825      0.29121920688429     -1.53895276349808
  H   1.30924761992479      1.14970396086597     -2.03842062114167
  H   1.98851337648941     -0.20845476240456     -1.41154064170800
  N   1.61311161738575      0.83890241621757      0.73178517013043
  H   1.21131400195984      0.85883544720093      1.66239932981200
  H   2.10936653605355      1.69659261756755      0.52741125737703
  C   -1.38701394102086     -0.97711185215753     -0.65944709244753
  H   -1.00238521353814     -1.13661385725916     -1.66632734957566
  H   -2.15088630039877     -0.19804344421714     -0.70022324066435
  H   -1.85853970879989     -1.89837971652886     -0.30633825120294
  N   -0.69897174426937     -0.26925958955461      1.65733002789753
  H   -1.50428514232905      0.34644705171306      1.61648272768830
  H   -0.98877513175201     -1.11793592085648      2.12722290680893
