16

C	0.0	0.0	0.0
C	-0.429589	0.251331	-1.446469
Br	1.993003	0.0	0.0
H	0.012509	-0.533284	-2.069616
H	-1.514924	0.104496	-1.443503
N	-0.464461	1.05851	0.841048
H	-1.473249	1.125318	0.679191
H	-0.334819	0.763705	1.804086
N	-0.397606	-1.292897	0.516729
H	-1.420427	-1.262163	0.533927
H	-0.117771	-2.020814	-0.134024
C	-0.098391	1.629598	-2.002593
H	-0.563073	2.406245	-1.395224
H	0.979124	1.80627	-2.01636
H	-0.478125	1.720683	-3.024743
Br	-3.785848	0.0	0.0
