16

C	0.0	0.0	0.0
C	-0.388235	0.049851	-1.460505
Br	2.216232	0.0	0.0
H	-1.474436	-0.12027	-1.424337
H	0.098368	-0.777644	-1.984945
N	-0.359793	1.130516	0.717553
H	0.198197	1.945161	0.525154
H	-0.524145	0.977021	1.69973
N	-0.393887	-1.167401	0.61709
H	-0.35788	-1.981337	0.026921
H	0.014966	-1.330147	1.523434
C	-0.103941	1.374237	-2.14842
H	-0.692804	2.168286	-1.686226
H	-0.401908	1.317175	-3.198144
H	0.957744	1.62865	-2.10557
Br	-4.106056	0.0	0.0
