16

C	0.0	0.0	0.0
C	-0.382973	0.005725	-1.462365
Br	2.216234	0.0	0.0
H	0.083775	0.865713	-1.952477
H	-1.473034	0.149241	-1.414806
N	-0.410018	1.132463	0.659997
H	-0.422494	1.97325	0.108334
H	-0.028495	1.262932	1.582741
N	-0.356443	-1.165197	0.673649
H	-0.644563	-1.02575	1.629684
H	0.269636	-1.940872	0.542648
C	-0.074105	-1.282223	-2.20569
H	-0.627589	-2.109586	-1.757903
H	0.994934	-1.506976	-2.193898
H	-0.398625	-1.195992	-3.245267
Br	-4.040904	0.0	0.0
