16

C	0.0	0.0	0.0
C	-0.418948	-0.068262	-1.464258
Br	2.062551	0.0	0.0
H	-1.50033	0.114508	-1.428768
H	0.063806	0.759219	-1.993707
N	-0.422945	1.176399	0.698707
H	-0.177174	1.997192	0.157959
H	-1.446498	1.1021	0.729275
N	-0.455447	-1.101183	0.726118
H	-0.139146	-1.990452	0.374642
H	-0.275814	-0.994721	1.713793
C	-0.153525	-1.391635	-2.168488
H	-0.791721	-2.175184	-1.753443
H	0.894661	-1.691696	-2.088017
H	-0.402428	-1.308285	-3.229965
Br	-3.892483	0.0	0.0
