17

C	-0.520399	0.013795	-1.426861
C	0.0	0.0	0.0
Br	0.477653	-1.171228	-2.674891
H	1.090052	0.0	0.0
N	-1.90714	-0.402873	-1.488664
H	-2.451904	0.189028	-0.867946
H	-2.258034	-0.304338	-2.435189
C	-0.319297	1.351957	-2.012786
N	-0.288835	2.420621	-2.504675
N	-0.427607	-1.23025	0.671258
O	-1.014856	-1.14071	1.762687
O	-0.096705	-2.300591	0.153618
C	-0.393253	1.226794	0.8013
H	0.03472	2.111939	0.328403
H	-1.472012	1.356399	0.929895
H	0.057141	1.132477	1.790193
H	2.537827	0.0	0.0
