17

C	-0.240808	0.030705	-1.493003
C	0.0	0.0	0.0
Br	-2.218399	0.442721	-1.927255
H	1.094387	0.0	0.0
N	0.578811	1.082643	-2.000397
H	1.499524	0.97788	-1.532853
H	0.699167	0.991046	-3.002234
C	-0.03225	-1.2313	-2.214
N	0.164054	-2.115292	-2.964683
N	-0.457462	-1.232981	0.643771
O	-0.034531	-2.297083	0.182529
O	-1.166427	-1.149496	1.655275
C	-0.466594	1.23314	0.732074
H	-0.000854	1.250243	1.719431
H	-0.138913	2.109414	0.173463
H	-1.549625	1.253462	0.848965
H	2.553568	0.0	0.0
