17

C	-0.268234	0.166013	-1.480481
C	0.0	0.0	0.0
Br	-2.209603	0.560302	-1.854561
H	1.109502	0.0	0.0
N	0.513697	1.256603	-2.035493
H	0.208954	2.122804	-1.606165
H	1.474281	1.077821	-1.706162
C	0.06058	-1.017418	-2.286568
N	0.380271	-1.873474	-3.025738
N	-0.489806	-1.242436	0.583903
O	-0.388224	-1.360227	1.811841
O	-0.919506	-2.135646	-0.158007
C	-0.379187	1.169149	0.884253
H	-1.457945	1.22781	1.049028
H	-0.031347	2.103745	0.44307
H	0.129972	1.050799	1.840216
H	2.526158	0.0	0.0
