16

C	0.0	0.0	0.0
C	-0.443618	-0.408027	-1.41654
F	1.377678	0.0	0.0
H	0.341033	-0.032578	-2.080738
H	-0.382984	-1.50426	-1.432642
N	-0.292289	1.492472	0.196971
O	-0.688728	1.882941	1.290888
O	-0.007675	2.221893	-0.752605
C	-0.586778	-0.795003	1.119554
H	-1.679386	-0.685317	1.065528
H	-0.314429	-1.843256	0.975114
H	-0.218506	-0.446207	2.0851
N	-1.734514	0.014249	-1.898849
H	-1.706745	1.015122	-2.053277
H	-2.492206	-0.128974	-1.192389
H	-3.647341	0.0	0.0
