16

C	0.0	0.0	0.0
C	-0.45949	-0.031915	-1.485138
F	1.361875	0.0	0.0
H	-1.511355	-0.288393	-1.564398
H	0.114425	-0.844639	-1.952134
N	-0.478436	1.108214	0.77792
O	0.342654	1.86017	1.47977
O	-1.755972	1.658539	0.322122
C	-0.394451	-1.239346	0.847554
H	-0.0749	-2.199892	0.397921
H	-1.467282	-1.240377	0.980642
H	0.043339	-1.089134	1.844559
N	-0.130704	1.249163	-2.092845
H	0.066458	1.116154	-3.072535
H	-0.921819	1.876234	-1.983089
H	-1.968226	0.0	0.0
