16

C	0.0	0.0	0.0
C	-0.612378	0.096456	-1.390557
F	1.376248	0.0	0.0
H	-1.375858	0.877111	-1.338122
H	0.178077	0.403512	-2.080492
N	-0.249893	1.350301	0.70761
O	-0.509001	1.355337	1.905664
O	-0.04381	2.355621	0.029837
C	-0.512994	-1.115643	0.851912
H	-0.312211	-2.05025	0.329648
H	-1.597228	-0.976683	0.945905
H	-0.023276	-1.095487	1.825489
N	-1.208246	-1.179946	-1.785804
H	-2.114916	-1.157109	-1.292166
H	-1.432652	-1.10579	-2.77302
H	-3.26351	0.0	0.0
