16

C	0.0	0.0	0.0
C	-0.439223	-0.056761	-1.474002
F	1.379546	0.0	0.0
H	0.343049	0.473697	-2.025346
H	-0.36835	-1.116087	-1.753532
N	-0.289818	1.401556	0.550579
O	-0.657927	1.517568	1.715089
O	-0.028993	2.338801	-0.20221
C	-0.587623	-1.040375	0.895961
H	-0.314685	-2.023904	0.506964
H	-0.222338	-0.932986	1.917227
H	-1.680082	-0.919554	0.868138
N	-1.732342	0.459224	-1.845689
H	-1.710959	1.468098	-1.755896
H	-2.490047	0.148058	-1.194775
H	-3.644211	0.0	0.0
