16

C	0.0	0.0	0.0
C	-0.504027	-0.04198	-1.430133
F	1.361582	0.0	0.0
H	-0.28176	-1.038392	-1.828322
H	-1.605368	0.03845	-1.33428
N	-0.603743	1.183113	0.646158
O	-0.315298	2.316154	0.156674
O	-1.768106	0.880971	1.161448
C	-0.418701	-1.24885	0.754881
H	0.149956	-2.090544	0.346857
H	-0.183627	-1.128774	1.814851
H	-1.49302	-1.404078	0.643323
N	0.116127	0.972659	-2.291001
H	-0.507941	1.108321	-3.080296
H	0.091767	1.83655	-1.754865
H	-2.940194	0.0	0.0
