16

C	0.0	0.0	0.0
C	-0.411326	-0.579227	-1.356415
F	1.373005	0.0	0.0
H	-0.169226	0.164793	-2.119677
H	-1.493985	-0.712076	-1.350942
N	-0.583555	1.338191	0.160223
O	-1.754851	1.382128	-0.430751
O	-0.276049	1.973356	1.20556
C	-0.474584	-0.814036	1.179367
H	-1.5736	-0.764891	1.183122
H	-0.078246	-0.359242	2.087503
H	-0.151238	-1.854387	1.100668
N	0.251218	-1.842827	-1.696806
H	-0.109983	-2.568697	-1.089851
H	1.237123	-1.74851	-1.482462
H	-2.908824	0.0	0.0
