16

C	0.0	0.0	0.0
C	-0.52299	0.024397	-1.422944
F	1.382719	0.0	0.0
H	-1.605827	0.205911	-1.334065
H	-0.401377	-0.996216	-1.801724
N	-0.30643	1.319719	0.725163
O	-0.083404	1.340377	1.933795
O	-0.665686	2.292712	0.066962
C	-0.568737	-1.124917	0.804733
H	-0.183686	-1.103061	1.823833
H	-0.304889	-2.070528	0.324742
H	-1.666177	-0.983939	0.77963
N	0.123139	0.945665	-2.352439
H	-0.146963	1.883622	-2.087105
H	1.127431	0.87995	-2.228023
H	-3.311052	0.0	0.0
