13

C	-0.534583	-0.007654	-1.418724
C	0.0	0.0	0.0
Cl	-0.253471	1.526126	-2.293464
H	1.094672	0.0	0.0
H	-0.038389	-0.791932	-1.994987
H	-1.618108	-0.161707	-1.408074
N	-0.407882	-1.268727	0.639039
H	-0.850584	-1.889491	-0.028433
H	0.45251	-1.722881	0.932901
N	-0.532164	1.132542	0.755938
H	-0.994194	0.73999	1.566002
H	0.26055	1.673798	1.084916
H	2.959174	0.0	0.0
