13

C	-0.518571	-0.061584	-1.425635
C	0.0	0.0	0.0
Cl	-0.26009	1.451623	-2.364672
H	1.101396	0.0	0.0
H	-1.598656	-0.232562	-1.422355
H	0.000418	-0.853374	-1.966015
N	-0.373231	-1.21826	0.707427
H	0.330381	-1.923696	0.522474
H	-1.286211	-1.555224	0.41996
N	-0.612071	1.128523	0.705958
H	-0.305007	1.020193	1.667193
H	-0.166311	1.974564	0.363195
H	3.016603	0.0	0.0
