15

C	-0.377225	-0.035085	-1.499661
C	0.0	0.0	0.0
Cl	-2.165636	-0.21118	-1.68767
H	1.098532	0.0	0.0
C	-0.009133	1.238091	-2.120177
N	0.272116	2.264523	-2.617914
C	0.33114	-1.19524	-2.183916
H	0.113275	-1.188333	-3.252845
H	1.4063	-1.088174	-2.011723
H	-0.012887	-2.137305	-1.754073
C	-0.448842	-1.218066	0.670674
N	-0.795772	-2.206038	1.203026
C	-0.515336	1.183212	0.679537
N	-0.93399	2.137004	1.222583
Br	3.311766	0.0	0.0
