15

C	-0.49483	-0.015971	-1.471202
C	0.0	0.0	0.0
Cl	0.201524	1.408994	-2.299462
H	1.096591	0.0	0.0
C	-0.006226	-1.22619	-2.136553
N	0.279873	-2.213963	-2.704953
C	-2.015301	0.04342	-1.578212
H	-2.455343	-0.822682	-1.077663
H	-2.377861	0.959682	-1.109354
H	-2.312376	0.038653	-2.627929
C	-0.480417	-1.19582	0.690925
N	-0.878109	-2.167103	1.219581
C	-0.483653	1.196646	0.685864
N	-0.890861	2.153225	1.233011
Br	3.301483	0.0	0.0
