15

C	-0.375849	-0.035984	-1.499918
C	0.0	0.0	0.0
Cl	-2.163664	-0.206073	-1.690557
H	1.09857	0.0	0.0
C	-0.000208	1.235086	-2.121303
N	0.290794	2.260204	-2.61718
C	0.329585	-1.199953	-2.181751
H	0.114582	-1.192772	-3.251152
H	-0.020207	-2.140306	-1.752013
H	1.404901	-1.097083	-2.007172
C	-0.450919	-1.216642	0.671786
N	-0.800707	-2.202905	1.205387
C	-0.514693	1.184712	0.677672
N	-0.93227	2.139214	1.220284
Br	3.31141	0.0	0.0
