15

C	-0.39731	0.033736	-1.500714
C	0.0	0.0	0.0
Cl	0.133389	-1.508991	-2.239899
H	1.097295	0.0	0.0
C	-1.850469	0.127553	-1.659575
N	-3.014297	0.235436	-1.786594
C	0.319934	1.188578	-2.190343
H	-0.027858	2.139653	-1.779855
H	1.391872	1.080989	-2.005232
H	0.116178	1.164403	-3.261752
C	-0.523297	-1.171811	0.695191
N	-0.951648	-2.109532	1.258385
C	-0.459955	1.223373	0.656727
N	-0.821256	2.220345	1.162918
Br	3.332213	0.0	0.0
