15

C	-0.41107	0.017018	-1.495605
C	0.0	0.0	0.0
Cl	0.169463	-1.507689	-2.235305
H	1.097324	0.0	0.0
C	-1.869107	0.054864	-1.639842
N	-3.037488	0.115433	-1.75815
C	0.253895	1.197829	-2.194273
H	1.33102	1.134684	-2.017211
H	0.043956	1.160234	-3.264153
H	-0.131093	2.135503	-1.786011
C	-0.508548	-1.173801	0.704125
N	-0.9193	-2.116641	1.271764
C	-0.467024	1.221692	0.654066
N	-0.835607	2.218157	1.15603
Br	3.330695	0.0	0.0
