15

C	-0.378158	-0.037078	-1.498887
C	0.0	0.0	0.0
Cl	-2.168934	-0.179372	-1.685752
H	1.098516	0.0	0.0
C	0.017749	1.224717	-2.126448
N	0.330317	2.240645	-2.627865
C	0.306964	-1.215655	-2.176241
H	1.383895	-1.130739	-2.002325
H	0.092104	-1.208503	-3.245625
H	-0.059772	-2.148069	-1.743347
C	-0.454431	-1.213666	0.674605
N	-0.807005	-2.19866	1.208739
C	-0.509241	1.188327	0.676035
N	-0.919403	2.146108	1.218691
Br	3.309304	0.0	0.0
