15

C	-0.425601	0.014083	-1.489885
C	0.0	0.0	0.0
Cl	0.185266	-1.491407	-2.243586
H	1.097321	0.0	0.0
C	-1.885694	0.011585	-1.615842
N	-3.055827	0.038813	-1.718802
C	0.196659	1.213645	-2.19413
H	-0.025332	1.171642	-3.26134
H	-0.210669	2.13813	-1.778275
H	1.276604	1.181205	-2.030833
C	-0.497015	-1.177619	0.708297
N	-0.888994	-2.127088	1.278376
C	-0.469266	1.218067	0.659854
N	-0.833139	2.211965	1.170255
Br	3.320041	0.0	0.0
