15

C	-0.376267	-0.029678	-1.500029
C	0.0	0.0	0.0
Cl	-2.162952	-0.207166	-1.690589
H	1.098598	0.0	0.0
C	-0.007724	1.246376	-2.114871
N	0.273952	2.273984	-2.610034
C	0.334453	-1.186494	-2.188223
H	-0.008306	-2.13036	-1.761388
H	0.116533	-1.176289	-3.257273
H	1.409579	-1.078396	-2.015777
C	-0.44929	-1.220158	0.666551
N	-0.794747	-2.208348	1.199497
C	-0.515604	1.180972	0.683526
N	-0.931465	2.131553	1.234309
Br	3.312576	0.0	0.0
