16
Coordinates from ORCA-job run
  C   0.53143297754074      0.62324698064431      0.28129940944312
  C   -0.43785511785306     -0.56880448726719      0.09655359166986
  Cl  -0.36046039785375      2.12326158368907      0.46863877230308
  H   0.20924855341393     -1.44687731916984     -0.01644192669023
  N   1.48549079618434      0.51254297495672      1.33561590635314
  H   1.04373274198003      0.64868110319717      2.23565210223877
  H   1.95364895190392     -0.38487643995509      1.30060507562983
  N   1.35675433673251      0.65125248257838     -1.01975207676749
  O   2.09542690445018     -0.32360199687571     -1.13435070512075
  O   1.21385933838083      1.55710213612977     -1.82306123762807
  C   -1.35516948901522     -0.46313328774940     -1.12221126172505
  H   -1.98034277098499     -1.35466876071734     -1.18909452229833
  H   -0.76532588513983     -0.39346363902924     -2.03771292557965
  H   -2.00093639958550      0.41138508133861     -1.05119270849949
  C   -1.19293527990398     -0.73197997362424      1.33732073334689
  N   -1.79556926025013     -0.85906643814598      2.33713177332438
