16
Coordinates from ORCA-job run
  C   0.48166427172883      0.57511824012181      0.37633119784967
  C   -0.52022456796602     -0.56969444278250      0.14878556394107
  Cl  -0.31428103897608      2.13607919037665      0.48213597317822
  H   0.07598985784295     -1.49046106251964      0.16165812206102
  N   1.24585811397110      0.34571433997646      1.54039028138810
  H   1.80278101213020     -0.49445431325342      1.44178414267793
  H   1.83649862606288      1.13517639569419      1.76978268491172
  N   1.37060165532654      0.55701230018115     -0.91639753807204
  O   2.10906656779452     -0.42505194754472     -0.96631638487965
  O   1.26131865454178      1.42723591011504     -1.76474230105763
  C   -1.27478345582448     -0.48363492837357     -1.17944038873210
  H   -2.00023596433400     -1.29597629509582     -1.23686146741207
  H   -1.80764039010017      0.46366377680012     -1.26380069114196
  H   -0.58880313079449     -0.58233232293134     -2.02190020645769
  C   -1.44482700976498     -0.61645479878569      1.28055136887043
  N   -2.23298320163858     -0.68094004197872      2.14803964287499
