16
Coordinates from ORCA-job run
  C   0.61203386184478      0.36557922212182      0.37957228207559
  C   -0.84250545039290      0.04637896046072      0.00972410047913
  Cl  0.74467291180433      0.76096496308860      2.10565268442733
  H   -1.44149500442510      0.91993204362220      0.27655282122617
  N   1.49016131941148     -0.67902176227164      0.05951597721414
  H   1.43773317235257     -0.90720876210242     -0.92752422291798
  H   2.44554180071680     -0.44370121174886      0.29671160997151
  N   0.98294281160436      1.71307111043229     -0.34060811424413
  O   2.10614962022837      1.77253020330660     -0.82443677765827
  O   0.13309415131667      2.59313824713997     -0.34846063263130
  C   -1.36719089322710     -1.20723174722654      0.71254570139237
  H   -0.75368486490471     -2.07205925065069      0.46361360450174
  H   -2.39586808314479     -1.39554627172930      0.40120347804675
  H   -1.35173876832531     -1.06442095195539      1.79265921906956
  C   -0.89948651232648     -0.11552461864008     -1.44575631353727
  N   -0.90036007253299     -0.28688017384729     -2.60796541741533
