16
Coordinates from ORCA-job run
  C   0.60086426800205      0.45636015148391      0.25330136783359
  C   -0.84245788487793      0.05053494709857     -0.05616775499161
  Cl  0.63862895081473      1.12476000377820      1.96025950437487
  H   -1.47945214368311      0.90391100790699      0.18564129773906
  N   1.52336377949477     -0.55592066363873     -0.00923671241026
  H   2.47648620974920     -0.21892856848439      0.03936322599704
  H   1.39157886666517     -1.36000151345646      0.58794469228714
  N   0.99323837323791      1.67184664537770     -0.59774709701693
  O   2.18577106914598      1.80352276848001     -0.83852595473115
  O   0.09064292119089      2.43011108324948     -0.92293053506120
  C   -1.28784658538640     -1.18057245705107      0.73928053319247
  H   -2.34665360779970     -1.36457163909605      0.55293009297080
  H   -0.74023982021888     -2.07052975532763      0.42438393748080
  H   -1.14916072066708     -1.02018904343328      1.80864209273428
  C   -0.96298285318787     -0.21226980781482     -1.49264379534324
  N   -1.09378082247973     -0.45606315907243     -2.63349489505573
