16
Coordinates from ORCA-job run
  C   0.46465176954505      0.66200511562022      0.22489853603763
  C   -0.54144393946658     -0.50056681516105      0.27037887868256
  Cl  -0.30426019554806      2.18238950725483     -0.19850078599116
  H   0.03272098926198     -1.37499152105458      0.60092487466208
  N   1.13539140491095      0.79048828182192      1.45960509137483
  H   1.67878306885067     -0.04058273416974      1.65901020857657
  H   1.72466395597743      1.61309530587023      1.48970689109439
  N   1.44642336418452      0.26250190809238     -0.93221460596390
  O   2.16497692991272     -0.68919299297796     -0.63195224478665
  O   1.41890078808617      0.84156124431299     -2.00590323276494
  C   -1.19416244479475     -0.81427754243660     -1.07725097155154
  H   -0.44995100981804     -1.15558293580436     -1.79819142619679
  H   -1.92883681090218     -1.60982396642784     -0.94735684325941
  H   -1.70104715894736      0.06377444573930     -1.47798994401441
  C   -1.54771332786338     -0.21138282459255      1.29117669172838
  N   -2.39909738338914     -0.01741447608720      2.07565888237237
