16
Coordinates from ORCA-job run
  C   0.60634959375284      0.65671272440134      0.42935258855954
  C   -0.80626344867738      0.02226169071540      0.31420100239320
  Cl  0.44264279525904      2.22659808037060      1.21914918217668
  H   -1.16589142650633     -0.03184545078361      1.34897851492029
  N   1.59718999654820     -0.09992159215770      1.11188281656108
  H   1.80378423080302     -0.96433668626171      0.63114163397708
  H   1.34001856980924     -0.25782625718417      2.07666906116232
  N   1.11959164087785      0.85236524270255     -1.00741952359948
  O   1.71636775313346     -0.11716863214785     -1.47019482587233
  O   0.84204825784370      1.88630533674369     -1.59351919602784
  C   -0.80739755389152     -1.38352951041261     -0.29361401654116
  H   -1.81899671305931     -1.79005734383042     -0.25022411615269
  H   -0.48769506187294     -1.37071646624623     -1.33538233265127
  H   -0.15243506126725     -2.04863921851248      0.27055751430954
  C   -1.72869560965839      0.88850065010158     -0.42168473692073
  N   -2.50161796309422      1.53029743250167     -1.02989356629417
