16
Coordinates from ORCA-job run
  C   0.54842179523426      0.46100854055941      0.43740049627037
  C   -0.59151780765765     -0.50970897821453      0.08515416268319
  Cl  -0.03753811854093      2.09087001652029      0.72242296920430
  H   -0.12042750197640     -1.49593746426990     -0.00931239225611
  N   1.26367198249614      0.00329412581184      1.56428216659238
  H   1.95002321730059      0.67736169779315      1.87954733940692
  H   1.70669191811251     -0.88626639404007      1.36883250709381
  N   1.44167288976033      0.47294922338504     -0.85329049713979
  O   2.04734527375803     -0.58482292642535     -1.01652667136186
  O   1.45532485245557      1.43972969524971     -1.59778559918661
  C   -1.31479887324127     -0.17617527376178     -1.22111292092421
  H   -1.71894536334702      0.83596006292001     -1.19478979793883
  H   -2.13921903573104     -0.87519120924421     -1.36674872731346
  H   -0.63892298847137     -0.26757333143448     -2.07251837005185
  C   -1.52610070143861     -0.56331945378197      1.20852294755768
  N   -2.32568153871317     -0.62217833106718      2.06592238736411
