16
Coordinates from ORCA-job run
  C   0.48690854037054      0.68338593261239     -0.00604185902648
  C   -0.62878195498647     -0.31308047382952      0.35186502807297
  Cl  -0.03636277955802      1.85699050477541     -1.20198302257691
  H   -0.21334889635025     -0.95060220728750      1.14209529035091
  N   0.95163798423069      1.34824341752673      1.14853809817169
  H   1.61064374801290      2.08373393983458      0.92587444675485
  H   1.36352073231293      0.68980148924984      1.79855241809363
  N   1.60115458681622     -0.21644509316075     -0.64734481908134
  O   2.15329295006658     -0.94162145243343      0.17834090275158
  O   1.81868235258085     -0.18628802811467     -1.84765937048018
  C   -1.07631903460876     -1.19450745426940     -0.81574567632886
  H   -0.26201362598439     -1.84005439945169     -1.14777024087810
  H   -1.41333973739098     -0.58661876490106     -1.65554343416060
  H   -1.90223332671401     -1.82993649193113     -0.49404045364367
  C   -1.75563327232954      0.42696656944698      0.91839876068781
  N   -2.70080826646828      0.97203251193320      1.35146393129268
