16
Coordinates from ORCA-job run
  C   0.61208229930258      0.49628309661785      0.37403299298606
  C   -0.83760267112628      0.00072361687363      0.30057441990034
  Cl  0.62507032251501      2.16221968572744      1.10309859572859
  H   -1.12979776368662     -0.13067232087755      1.35112461836116
  N   1.42734243855859     -0.43397372963839      1.04260628209581
  H   2.40166218777257     -0.16166617094423      0.99172678311332
  H   1.14311457323409     -0.53817044125360      2.00825639407865
  N   1.21978904776320      0.69314703662532     -1.01663109364456
  O   2.44257569896326      0.66983414255249     -1.07558235622797
  O   0.44668469016858      0.88810536219501     -1.94449151876043
  C   -0.97217670903017     -1.34485547498216     -0.42201256674763
  H   -1.98704683433450     -1.72347386331098     -0.28951011617832
  H   -0.26596019549515     -2.06289389275034     -0.00745483324424
  H   -0.78833388287136     -1.22903830952292     -1.48928723236126
  C   -1.76166717115863      0.99002568295674     -0.25565757339730
  N   -2.57673603057522      1.72440557973171     -0.67279279570220
