16
Coordinates from ORCA-job run
  C   0.71054743453560      0.45101924128720      0.29000784647832
  C   -0.78709283019234      0.10144911181315      0.09519393864369
  Cl  0.96724252110984      0.90187746577654      1.98551900461284
  H   -1.36852099172091      0.97111004704181      0.41555926453300
  N   1.68017444960517     -0.50402540744857     -0.08786067627679
  H   1.63397383170792     -1.33411665223757      0.48535962209906
  H   1.64153935369250     -0.72084178309869     -1.07542839636827
  N   0.93628319989941      1.71680597841509     -0.56807212369280
  O   1.69127530293027      1.61057531741693     -1.52496622644965
  O   0.27998711349338      2.70016222703391     -0.25357081897594
  C   -1.21685020065337     -1.14262987343513      0.87394163408788
  H   -0.66816627842089     -2.02366654400163      0.53658550996443
  H   -1.05383525552675     -1.00167195457398      1.94209302726997
  H   -2.27912386061020     -1.32755152365074      0.70828861655526
  C   -1.01011634347518     -0.10268541905381     -1.33762162926942
  N   -1.15631744637441     -0.29681023128456     -2.48702859321155
