16
Coordinates from ORCA-job run
  C   0.59318647867145      0.46997563214014      0.15590874823075
  C   -0.58890682843314     -0.51163572627380      0.14088977574864
  Cl  0.14851949364411      1.97522632358768     -0.75729183715201
  H   -0.17294168629195     -1.46631183505192      0.47803774753676
  N   1.07790479764368      0.69329928847578      1.45549102717541
  H   0.36302486865064      1.05791750945347      2.07272687470082
  H   1.88072931107284      1.31118492726340      1.44181786886513
  N   1.79279254455217     -0.12162739297651     -0.60149679864805
  O   1.66900186466769     -1.23232657661202     -1.10327533610935
  O   2.80364866191186      0.56616581805849     -0.59709920980596
  C   -1.29278252013666     -0.70443414326685     -1.20549631819099
  H   -2.00097475625107     -1.53001842908288     -1.11511509270907
  H   -0.57012728525813     -0.95372538190469     -1.97951716290324
  H   -1.84067156638189      0.19094752409041     -1.49355813944569
  C   -1.54847387983971     -0.06141985976770      1.15058419596693
  N   -2.31392949822189      0.31578232186701      1.95739365674001
