16
Coordinates from ORCA-job run
  C   0.59898543438694      0.39360393509058      0.37369004849090
  C   -0.84180019917849      0.03823093646310     -0.01630131761820
  Cl  0.68151386922932      0.88661871889076      2.07750696076436
  H   -1.45623018363370      0.91904568191176      0.18318877364181
  N   1.49485410795032     -0.65868619259387      0.13712802824543
  H   2.44001873503598     -0.40305875386475      0.39350549541731
  H   1.47756202114461     -0.93718394868733     -0.83819958907389
  N   0.97777995920081      1.70195065648988     -0.41177905691022
  O   0.12024618947542      2.57087086950951     -0.49445947454233
  O   2.11425121880191      1.74628529023945     -0.86563572826648
  C   -1.37380865614175     -1.17872690684045      0.74302918049238
  H   -0.74462534099946     -2.04911627047264      0.56190527869164
  H   -1.39070578191626     -0.97343307071927      1.81303480153190
  H   -2.39123196960433     -1.39666963357501      0.41450656527487
  C   -0.85864796541325     -0.20769643421285     -1.46104311917764
  N   -0.84616143833809     -0.45203487762882     -2.61007684696187
