16
Coordinates from ORCA-job run
  C   0.55513395259745      0.43552985045003      0.39703732938383
  C   -0.83933494865931     -0.01097196935277     -0.06136840823689
  Cl  0.51530110793022      0.96735092219648      2.09070276900238
  H   -1.51301358668895      0.83608760679473      0.08629446147066
  N   1.52148292413779     -0.56632781077926      0.23289985487573
  H   2.43673770665764     -0.24819098693746      0.52527176373492
  H   1.56686663141045     -0.87214325008208     -0.73325041889114
  N   0.89979020528059      1.74799215210574     -0.39733356899174
  O   2.05364955510415      1.84841106146769     -0.79477122384634
  O   0.00020602189909      2.56447638627077     -0.54195570218363
  C   -1.34134413209474     -1.24263277006865      0.69478416169036
  H   -2.32622137501481     -1.52410514021508      0.31881417909494
  H   -1.42570861347191     -1.01969690418015      1.75803821522432
  H   -0.65596594533724     -2.07901306727504      0.56433495527025
  C   -0.76472155462074     -0.28459698660862     -1.49925644511395
  N   -0.68285794912966     -0.55216909378632     -2.64024192248369
