16
Coordinates from ORCA-job run
  C   0.62717337768133      0.42309966611519      0.15774419067470
  C   -0.53235934932334     -0.58188418491696      0.07814756225487
  Cl  -0.02781064285677      2.11632524419142      0.13174438530096
  H   -0.06292885277763     -1.54278913895733     -0.15497871650170
  N   1.49457288717685      0.14521121428715      1.22754544534464
  H   2.27262730458619      0.79401791291493      1.24144898927899
  H   1.01504824315620      0.15117696643462      2.11921046377206
  N   1.51660648758362      0.31656837515210     -1.09155382322931
  O   2.50279705935989      1.03923792636906     -1.09309286352986
  O   1.20734274430292     -0.49656426861693     -1.95412120351227
  C   -1.62269311108621     -0.27763161712132     -0.95333129890406
  H   -1.18238414948488     -0.10892831619794     -1.93372696811151
  H   -2.20588900073501      0.59397292354942     -0.66161366813707
  H   -2.29257290338010     -1.13688912673656     -1.01836181881680
  C   -1.12008943729110     -0.68494184025153      1.41498670853357
  N   -1.58844065691196     -0.74998173621535      2.48995261558280
