16
Coordinates from ORCA-job run
  C   0.53445547988419      0.61917443693220      0.47876723978689
  C   -0.87215377849160      0.01519399613815      0.31569203446476
  Cl  0.42298677172087      2.21561377725090      1.21463113726344
  H   -1.27105217895793     -0.00377433982399      1.33571080724035
  N   1.34900194533003     -0.22161726695223      1.27543827916243
  H   2.16835242159106      0.27965696897327      1.59723102542714
  H   1.65316119470319     -1.01993779581669      0.73044197314454
  N   1.11593505602878      0.80232402452761     -0.96578669627447
  O   1.80985673231112     -0.13389651000685     -1.35860247158058
  O   0.79437410425080      1.78909345538313     -1.60864481029786
  C   -0.85805710363436     -1.41030451455353     -0.24628642753176
  H   -0.43245990963361     -1.44360491841312     -1.24972170152635
  H   -1.88182895926014     -1.78303598673547     -0.29835246606837
  H   -0.29362765195622     -2.07180097696553      0.41141431802111
  C   -1.74508683954710      0.87115986966577     -0.48944168697256
  N   -2.49485728433905      1.49675578039640     -1.14149055425872
