14

C	-0.43526	-0.064585	-1.438619
C	0.0	0.0	0.0
Br	-2.419437	-0.02891	-1.639834
H	1.095804	0.0	0.0
H	-0.158203	-1.061912	-1.781066
C	0.129428	0.920543	-2.351326
N	0.572931	1.633947	-3.173331
N	-0.422161	-1.15844	0.719288
H	-1.326526	-1.017543	1.153783
H	0.259181	-1.33089	1.447967
N	-0.434741	1.281573	0.628995
O	-0.389295	2.302847	-0.056593
O	-0.767778	1.257446	1.816845
F	2.490147	0.0	0.0
