14

C	-0.416481	0.218733	-1.456907
C	0.0	0.0	0.0
Br	0.261285	-1.254858	-2.55438
H	1.10889	0.0	0.0
H	0.058459	1.115618	-1.845823
C	-1.862429	0.283886	-1.646419
N	-3.032437	0.293628	-1.76087
N	-0.471336	-1.179851	0.630689
H	0.276203	-1.856677	0.665
H	-1.300958	-1.577895	0.212119
N	-0.434688	1.222402	0.756587
O	-0.513474	1.160574	1.977377
O	-0.610077	2.261523	0.102175
F	2.518658	0.0	0.0
