14

C	-0.429953	-0.083705	-1.438343
C	0.0	0.0	0.0
Br	-2.411497	-0.0903	-1.64485
H	1.094251	0.0	0.0
H	-0.130365	-1.076927	-1.771715
C	0.116168	0.903493	-2.359172
N	0.538135	1.61089	-3.196839
N	-0.409061	-1.157699	0.729239
H	0.288628	-1.328297	1.442575
H	-1.303945	-1.015859	1.181787
N	-0.445182	1.280786	0.619666
O	-0.768203	1.264009	1.810823
O	-0.419817	2.295991	-0.07527
F	2.491365	0.0	0.0
