14

C	-0.614334	0.099354	-1.394288
C	0.0	0.0	0.0
Br	0.52295	1.09265	-2.65287
H	1.096081	0.0	0.0
H	-1.549027	0.664934	-1.387289
C	-0.854788	-1.216546	-1.975658
N	-1.058821	-2.241796	-2.512083
N	-0.349381	-1.220012	0.67251
H	-1.113578	-1.094276	1.32318
H	0.468424	-1.519955	1.188903
N	-0.409543	1.199967	0.779276
O	-0.398026	1.110589	2.009819
O	-0.698867	2.2338	0.168951
F	2.495084	0.0	0.0
