17

C	0.0	0.0	0.0
C	-0.492417	0.048459	-1.45137
Cl	1.798604	0.0	0.0
H	-1.583655	0.143245	-1.300906
C	-0.31559	1.28946	0.668541
N	-0.464321	2.256163	1.320826
N	-0.575741	-1.130439	0.653041
H	-0.386189	-1.068703	1.649111
H	-1.611045	-0.94236	0.529337
C	-0.18782	-1.242285	-2.199988
H	0.892317	-1.369455	-2.335622
H	-0.573857	-2.109059	-1.662796
H	-0.655922	-1.198886	-3.188955
N	0.001556	1.259648	-2.096939
H	0.903494	1.08334	-2.527802
H	-0.648144	1.533849	-2.823017
H	-3.024754	0.0	0.0
