17

C	0.0	0.0	0.0
C	-0.349986	-0.054187	-1.533313
Cl	1.797629	0.0	0.0
H	0.448847	-0.674038	-1.956952
C	-0.359236	1.296627	0.613691
N	-0.561528	2.327035	1.143415
N	-0.518631	-1.132253	0.698492
H	-0.358324	-1.002118	1.693189
H	-1.537797	-1.098962	0.549558
C	-0.241776	1.345038	-2.14817
H	-1.073993	1.962579	-1.806976
H	0.7001	1.848245	-1.907128
H	-0.302578	1.255664	-3.239072
N	-1.610627	-0.723849	-1.794941
H	-1.900207	-0.477806	-2.737366
H	-2.360703	-0.373063	-1.141518
H	-3.286116	0.0	0.0
