17

C	0.0	0.0	0.0
C	-0.240874	-0.063259	-1.56354
Cl	1.871613	0.0	0.0
H	0.557888	0.528522	-2.022512
C	-0.31808	1.338181	0.512519
N	-0.500018	2.436261	0.888236
N	-0.619449	-1.007287	0.757967
H	-1.615013	-0.717862	0.850123
H	-0.619353	-1.831044	0.158188
C	-1.574986	0.510607	-1.998403
H	-1.718184	0.302677	-3.067276
H	-2.416489	0.1279	-1.393353
H	-1.579476	1.595307	-1.863775
N	-0.120503	-1.475837	-1.926245
H	0.814881	-1.68685	-2.247754
H	-0.784585	-1.705417	-2.652574
H	-3.497683	0.0	0.0
