13

C	0.0	0.0	0.0
C	-0.238806	-0.122025	-1.536278
Br	1.958781	0.0	0.0
H	0.166656	0.80896	-1.942569
H	0.403068	-0.932999	-1.889463
N	-0.519949	1.221027	0.514806
H	-1.544754	1.137914	0.384385
H	-0.349731	1.261007	1.51527
C	-0.364778	-1.232544	0.720959
N	-0.543412	-2.211544	1.347808
C	-1.53305	-0.348482	-2.19108
N	-2.295638	-0.551063	-3.064331
Cl	-3.359427	0.0	0.0
