13

C	0.0	0.0	0.0
C	-0.490539	0.26905	-1.42727
Br	1.962714	0.0	0.0
H	-1.588757	0.225632	-1.369234
H	-0.179673	1.282673	-1.693294
N	-0.49868	1.051273	0.837699
H	-1.52388	1.000503	0.747535
H	-0.266	0.85184	1.804919
C	-0.367011	-1.363533	0.419861
N	-0.624019	-2.44876	0.792715
C	0.00211	-0.688187	-2.408472
N	0.388235	-1.445123	-3.21917
Cl	-3.483249	0.0	0.0
