13

C	0.0	0.0	0.0
C	-0.548253	0.322715	-1.388617
Br	2.025713	0.0	0.0
H	-1.649405	0.240942	-1.266811
H	-0.190121	-0.403338	-2.120406
N	-0.509315	0.873807	0.948099
H	-0.278247	0.677212	1.909306
H	-0.4804	1.852157	0.701982
C	-0.304987	-1.393918	0.345476
N	-0.47379	-2.524199	0.616671
C	-0.181433	1.67085	-1.803356
N	0.109176	2.764828	-2.115932
Cl	-3.654508	0.0	0.0
