13

C	0.0	0.0	0.0
C	-0.469509	0.392539	-1.418545
Br	1.966821	0.0	0.0
H	-0.077714	-0.301336	-2.166743
H	-1.568324	0.321056	-1.377489
N	-0.490094	0.810939	1.069012
H	-0.287716	1.784922	0.863309
H	-1.511226	0.68493	1.067433
C	-0.362238	-1.40652	0.23407
N	-0.589784	-2.541078	0.434178
C	-0.073377	1.755127	-1.748887
N	0.229456	2.859173	-2.010069
Cl	-3.466245	0.0	0.0
