12

C	-0.052676	-0.029109	0.017082
C	-0.488469	-0.795264	-1.213463
Br	1.89123	0.310378	-0.018777
H	-0.016188	-1.771868	-1.299408
H	-0.559732	0.933668	0.054207
H	-1.583572	-0.853413	-1.158076
C	-0.331281	-0.811161	1.213148
N	-0.467816	-1.474563	2.172788
N	-0.171992	-0.058257	-2.466618
O	0.017759	-0.745657	-3.469957
O	-0.167235	1.16733	-2.433413
Cl	-3.18738	0.492717	-0.044118
