12

C	-0.073374	-0.036247	0.000217
C	-0.505241	0.229584	-1.425968
Br	1.875131	0.204523	0.200063
H	-0.045645	-0.445958	-2.144791
H	-0.567553	0.662066	0.673792
H	-1.601594	0.169537	-1.423962
C	-0.377567	-1.412738	0.363989
N	-0.53103	-2.544169	0.63965
N	-0.162874	1.610537	-1.86091
O	-0.144202	2.497176	-1.014269
O	0.031657	1.770285	-3.065826
Cl	-3.199487	0.446455	0.307068
