13

C	-0.135017	-0.082441	-1.527719
C	0.0	0.0	0.0
F	-0.086091	1.2454	-2.03062
H	1.094588	0.0	0.0
H	-0.342215	-0.93231	0.45432
N	0.930999	-0.88067	-1.97656
H	1.046807	-0.822935	-2.979187
H	1.789932	-0.62458	-1.441566
C	-1.438734	-0.597192	-2.01546
N	-2.472932	-1.016047	-2.38198
C	-0.645972	1.144344	0.598998
N	-1.173806	2.056008	1.119168
F	2.636237	0.0	0.0
