13

C	-0.477982	0.054493	-1.444356
C	0.0	0.0	0.0
F	-0.009526	-1.07226	-2.092934
H	1.093777	0.0	0.0
H	-0.318063	0.918533	0.507219
N	-1.909112	0.079884	-1.691271
H	-2.32197	-0.674929	-1.150302
H	-2.285989	0.952656	-1.339161
C	0.102225	1.250862	-2.103597
N	0.526101	2.223793	-2.603738
C	-0.599217	-1.140662	0.659499
N	-1.122836	-2.063296	1.167259
F	2.524306	0.0	0.0
