13

C	-0.413109	0.032524	-1.454599
C	0.0	0.0	0.0
F	-0.065421	-1.157836	-2.070422
H	1.092873	0.0	0.0
H	-0.297305	0.941311	0.477593
N	-1.832148	0.189808	-1.641606
H	-2.192367	0.888381	-1.006596
H	-2.046206	0.459873	-2.593439
C	0.351961	1.097482	-2.164893
N	0.80775	1.988126	-2.779316
C	-0.596081	-1.11832	0.699588
N	-1.056048	-2.016709	1.302378
F	2.525727	0.0	0.0
