12
Coordinates from ORCA-job run
  C   0.28373316751509     -0.19700115715579      0.45537649142609
  C   -0.82750315811928     -0.10713731143632     -0.58994523091177
  Cl  -0.40357197606394      0.15109336416314      2.07047621594921
  H   -0.38953965490724     -0.22413860159419     -1.58683873879006
  H   0.65707564018293     -1.22169183137406      0.50466446497585
  H   -1.29176847337885      0.88206134133358     -0.54381672996596
  C   1.41157941741898      0.77101894001901      0.15364030996409
  H   2.18656037725412      0.70855662188818      0.91811630462719
  H   1.03939502288500      1.79729380569866      0.12648103034062
  H   1.86096867674550      0.53208363640225     -0.81419225740334
  C   -1.85748224546288     -1.12868120028468     -0.41365214082186
  N   -2.67044679406945     -1.96345760765978     -0.27930971939006
