12
Coordinates from ORCA-job run
  C   0.28285326845323     -0.28380332768451      0.68602808094071
  C   -0.77934681843220     -0.84961748106800     -0.25710612231623
  Cl  -0.52728233531767      0.51434979243742      2.06891542012481
  H   -0.28533785341960     -1.46200792863000     -1.01923495255594
  H   0.83315653821380     -1.12593849775299      1.11146039386193
  H   -1.46512145306464     -1.49629310873735      0.29550366601381
  C   1.22989268858182      0.68511695532514      0.00725293517817
  H   1.72654345976715      0.19164556006783     -0.83334300051764
  H   0.68856382774088      1.55546634281472     -0.36720390472536
  H   1.99256155478543      1.02747963636323      0.70749763542750
  C   -1.54829431645065      0.19772564672779     -0.92663321602189
  N   -2.14818856085756      1.04487641013672     -1.47313693540985
