17

C	-0.429167	-0.060816	-1.463673
C	0.0	0.0	0.0
Br	0.170737	1.835654	-2.321086
H	1.094547	0.0	0.0
N	0.277337	-1.077035	-2.112243
H	0.123375	-1.074831	-3.112317
H	1.272029	-0.98335	-1.914615
N	-1.828789	-0.145013	-1.631889
H	-2.078564	-0.129291	-2.613073
H	-2.267506	0.653298	-1.18564
C	-0.453058	-1.26381	0.749569
H	-1.540953	-1.342551	0.781749
H	-0.043601	-2.140498	0.24894
H	-0.058201	-1.226753	1.767033
C	-0.540141	1.176857	0.668856
N	-1.062789	2.062138	1.238853
Cl	3.31836	0.0	0.0
