17

C	-0.191401	-0.017304	-1.519343
C	0.0	0.0	0.0
Br	-2.105374	-0.070183	-2.053904
H	1.102052	0.0	0.0
N	0.329643	1.230811	-2.029703
H	1.29705	1.298316	-1.71459
H	0.320509	1.216896	-3.042374
N	0.406711	-1.246626	-2.006429
H	0.353735	-1.261447	-3.019865
H	1.392103	-1.218655	-1.732174
C	-0.519616	-1.228324	0.735135
H	-0.175711	-1.20021	1.771545
H	-0.134478	-2.128141	0.257601
H	-1.612354	-1.256605	0.723865
C	-0.503508	1.228234	0.598767
N	-0.907723	2.175783	1.163382
Cl	3.318875	0.0	0.0
