17

C	-0.361203	-0.174767	-1.476244
C	0.0	0.0	0.0
Br	0.069062	1.756102	-2.415041
H	1.092801	0.0	0.0
N	0.490101	-1.121294	-2.037962
H	1.457717	-0.929534	-1.777598
H	0.397745	-1.195316	-3.041951
N	-1.729891	-0.418205	-1.708645
H	-2.273418	0.355331	-1.343579
H	-1.920861	-0.496787	-2.699945
C	-0.441353	-1.236182	0.803554
H	-0.036179	-1.159472	1.814387
H	-1.528279	-1.320332	0.850005
H	-0.032459	-2.127984	0.329832
C	-0.581157	1.196263	0.587912
N	-1.136175	2.104232	1.08678
Cl	3.316297	0.0	0.0
