17

C	-0.365352	-0.096936	-1.499596
C	0.0	0.0	0.0
Br	-0.066805	1.773971	-2.301586
H	1.09594	0.0	0.0
N	0.479932	-1.062033	-2.070258
H	1.453787	-0.89844	-1.815795
H	0.361614	-1.095617	-3.07408
N	-1.728657	-0.399387	-1.854839
H	-1.947827	-1.316078	-1.479131
H	-2.353117	0.290632	-1.454789
C	-0.433609	-1.269186	0.74965
H	-1.521553	-1.344204	0.835323
H	-0.041288	-2.143781	0.230908
H	-0.010282	-1.247022	1.75555
C	-0.576352	1.160919	0.658196
N	-1.12972	2.030796	1.222984
Cl	3.326707	0.0	0.0
