17

C	-0.542972	-0.096895	-1.435114
C	0.0	0.0	0.0
Br	0.398796	-1.636092	-2.340388
H	1.093333	0.0	0.0
N	-1.960653	-0.319236	-1.423254
H	-2.303078	-0.360364	-2.376654
H	-2.189133	-1.196746	-0.970907
N	-0.167685	1.062131	-2.193858
H	-0.348714	0.925264	-3.180364
H	-0.694765	1.858942	-1.851578
C	-0.453887	-1.137289	0.919818
H	-0.189114	-2.096993	0.472139
H	0.084292	-1.055546	1.865719
H	-1.526863	-1.103243	1.129032
C	-0.460987	1.279702	0.543138
N	-0.86595	2.29792	0.968263
Cl	3.384865	0.0	0.0
