13

C	0.0	0.0	0.0
C	-0.242391	-0.117465	-1.535886
Br	1.939505	0.0	0.0
H	0.149414	0.818057	-1.948012
H	0.430134	-0.910771	-1.865532
C	-0.464192	1.208556	0.656261
N	-0.537137	2.264055	1.173577
N	-0.396757	-1.25704	0.765486
O	-0.502481	-1.140846	1.975481
O	-0.444555	-2.285363	0.108077
C	-1.513156	-0.400201	-2.211456
N	-2.169509	-0.674391	-3.152638
Br	-3.16374	0.0	0.0
