15

C	-0.07673	0.032608	-0.055028
C	-0.314935	0.061217	-1.55781
Cl	1.708388	0.1003	0.247392
H	0.257256	-0.741736	-2.023985
H	-0.475249	0.95132	0.387181
N	-0.620832	-1.192483	0.463265
H	-1.655448	-1.009745	0.501396
H	-0.327735	-1.271738	1.433246
N	0.312161	1.324361	-2.132588
O	1.036316	1.198075	-3.121252
O	0.02169	2.394636	-1.606784
N	-1.697267	0.060326	-1.904707
H	-2.317535	0.12182	-1.069273
H	-1.927823	-0.804173	-2.373713
H	-3.140932	-0.234689	0.409179
