17

C	0.0	0.0	0.0
C	-0.279678	-0.249408	-1.498577
F	1.373367	0.0	0.0
H	0.175716	-1.227526	-1.675603
N	-0.437307	1.364627	0.459059
O	-0.649657	2.211431	-0.398882
O	-0.419633	1.555794	1.670298
C	-0.412926	-1.098127	0.944404
H	-1.502826	-1.086292	0.980814
H	0.049249	-0.894066	1.911341
H	-0.019721	-2.040615	0.552428
C	0.436538	0.700711	-2.35585
N	1.102357	1.372746	-3.051252
N	-1.683282	-0.422259	-2.044911
O	-2.062418	-1.585526	-2.104082
O	-2.204364	0.543683	-2.5779
F	-2.49268	0.0	0.0
