17

C	0.0	0.0	0.0
C	-0.432096	0.178299	-1.45768
F	1.36636	0.0	0.0
H	0.006426	1.113334	-1.804043
N	-0.404732	1.250712	0.766414
O	-0.506466	1.151591	1.982633
O	-0.474511	2.298682	0.131883
C	-0.393307	-1.259801	0.728614
H	0.073901	-1.230152	1.712737
H	-1.474395	-1.306114	0.791845
H	0.009091	-2.105161	0.169248
C	-1.8638	0.159933	-1.817325
N	-2.6069	0.253212	-2.736771
N	0.285463	-0.875874	-2.26757
O	1.287552	-0.51278	-2.880538
O	-0.164616	-2.018282	-2.258042
F	-2.542843	0.0	0.0
