17

C	0.0	0.0	0.0
C	-0.283772	-0.125642	-1.511952
F	1.364937	0.0	0.0
H	0.292795	-1.013348	-1.787635
N	-0.448274	1.313907	0.585518
O	-0.379153	1.398216	1.807993
O	-0.722778	2.226714	-0.181586
C	-0.412118	-1.181015	0.841682
H	0.051145	-1.061185	1.821915
H	-1.500974	-1.177132	0.8813
H	-0.017944	-2.082891	0.366446
C	0.283043	0.976955	-2.29262
N	0.828874	1.748873	-2.989097
N	-1.666356	-0.454345	-2.032844
O	-1.933098	-1.649706	-2.01944
O	-2.281987	0.426574	-2.609831
F	-2.496174	0.0	0.0
