13

C	-0.497983	0.057469	-1.446476
C	0.0	0.0	0.0
Br	-0.128846	-1.669915	-2.299008
H	1.093959	0.0	0.0
H	-1.587136	0.145732	-1.483327
H	-0.344297	-0.908031	0.501362
C	0.177898	1.170731	-2.227206
H	-0.092717	2.134026	-1.782442
H	-0.139484	1.167038	-3.27198
H	1.263268	1.055058	-2.168812
C	-0.502621	1.163253	0.727323
N	-0.933355	2.111763	1.269964
Br	3.563189	0.0	0.0
