13

C	-0.365408	0.010401	-1.477379
C	0.0	0.0	0.0
Br	-2.313031	0.216246	-1.736413
H	1.096214	0.0	0.0
H	0.059609	0.914077	-1.916929
H	-0.34215	0.90969	0.499005
C	0.13614	-1.220636	-2.20193
H	-0.059957	-1.154305	-3.273384
H	-0.339214	-2.123168	-1.812267
H	1.215374	-1.285738	-2.031722
C	-0.518031	-1.165356	0.705123
N	-0.949088	-2.105094	1.261937
Br	3.50611	0.0	0.0
