14

C	0.0	0.0	0.0
C	-0.556489	0.106847	-1.409757
Br	1.952036	0.0	0.0
H	-1.652969	0.043028	-1.265945
H	-0.327022	-0.932421	0.456062
C	-0.405424	1.144513	0.807044
N	-0.590368	2.085301	1.485124
N	-0.171138	-1.170784	-2.158321
O	-0.264576	-2.233561	-1.551615
O	0.165644	-1.057053	-3.336429
N	-0.183575	1.293913	-2.07645
H	0.768504	1.254302	-2.416068
H	-0.808496	1.478925	-2.847069
Cl	-3.414746	0.0	0.0
