14

C	0.0	0.0	0.0
C	-0.566775	0.157833	-1.400056
Br	1.940686	0.0	0.0
H	-1.662941	0.086509	-1.251585
H	-0.326989	-0.948475	0.421966
C	-0.403824	1.11163	0.85576
N	-0.591522	2.015615	1.581233
N	-0.180255	-1.090355	-2.195645
O	0.150247	-0.934179	-3.370235
O	-0.263326	-2.174791	-1.62581
N	-0.201626	1.369392	-2.028279
H	0.736713	1.333227	-2.402127
H	-0.848754	1.592082	-2.769935
Cl	-3.439724	0.0	0.0
