14

C	0.0	0.0	0.0
C	-0.408191	-0.641952	-1.365916
Br	1.941809	0.0	0.0
H	0.501485	-0.814833	-1.943299
H	-0.329711	-0.678048	0.784218
C	-0.419279	1.356774	0.326413
N	-0.580558	2.452151	0.720563
N	-1.129226	0.329593	-2.32417
O	-0.786305	1.505997	-2.301697
O	-1.849013	-0.19217	-3.168075
N	-1.061858	-1.87841	-1.16276
H	-1.231517	-2.317123	-2.058426
H	-1.963919	-1.656034	-0.731376
Cl	-3.143156	0.0	0.0
