14

C	0.0	0.0	0.0
C	-0.559117	0.12067	-1.432553
Br	1.947296	0.0	0.0
H	-1.611885	-0.17913	-1.330872
H	-0.322812	-0.943657	0.438231
C	-0.418436	1.133282	0.814463
N	-0.612296	2.096966	1.458259
N	0.119852	-0.95586	-2.248053
O	0.754873	-0.642342	-3.248641
O	-0.011756	-2.10147	-1.817985
N	-0.476979	1.38259	-2.066964
H	-1.267682	1.941599	-1.772887
H	0.392301	1.865099	-1.877625
Cl	-3.364037	0.0	0.0
