14

C	0.0	0.0	0.0
C	-0.416515	-0.539351	-1.403154
Br	1.947174	0.0	0.0
H	0.489668	-0.680752	-1.996554
H	-0.325025	-0.731264	0.737224
C	-0.416623	1.33163	0.423947
N	-0.574488	2.398889	0.890695
N	-1.124471	0.512266	-2.282833
O	-0.748777	1.675272	-2.188117
O	-1.870194	0.066971	-3.147142
N	-1.088242	-1.778388	-1.28918
H	-1.985118	-1.577003	-0.834332
H	-1.274082	-2.139953	-2.21642
Cl	-3.200443	0.0	0.0
