16
Coordinates from ORCA-job run
  C   -0.69553865312194     -0.07882306582999     -0.04522027791078
  C   0.70341302778231     -0.35192901474471     -0.63469970429967
  Cl  -1.84002802580180      0.05943389613549     -1.40349645475196
  H   0.63912843484533     -1.27677480012929     -1.21783697170074
  N   -1.13699208797648     -1.31851512222855      0.73448725599852
  O   -0.69905112247930     -2.39962750119046      0.35250239843407
  O   -1.92351889384518     -1.14279391641956      1.65636582420264
  C   -0.76062969493328      1.14217684228711      0.83243810281442
  H   -0.38660662958254      1.99171276692774      0.26351534642034
  H   -1.78384842319362      1.32262767646712      1.15419615471480
  H   -0.13487549695429      0.99484856127787      1.71550564407429
  C   1.63661846585599     -0.58498365658011      0.47217895990311
  N   2.39049471696824     -0.75155689482777      1.35652602290236
  N   1.13848332555706      0.81404078789740     -1.39829744021574
  H   0.70903968757095      0.79120281134225     -2.31525192622517
  H   2.14291136930855      0.78896062961547     -1.52191293436049
