16
Coordinates from ORCA-job run
  C   -0.60910610805783     -0.13718319038857      0.01007711321025
  C   0.91107066630266      0.01775822292134     -0.14503619303034
  Cl  -1.22045559752466     -1.27452125626237     -1.19054147658131
  H   1.22250849611317      0.70595705252467      0.64603605671870
  N   -0.80095140243890     -0.71139868591584      1.42052055929614
  O   -0.33782023548870      0.00353159676749      2.30385424529753
  O   -1.38927100883638     -1.76720989857694      1.57220183801523
  C   -1.36693541127800      1.17130445597125     -0.06837987151987
  H   -0.98386668241047      1.86516116817572      0.68099378692975
  H   -1.25362465351135      1.60409613974028     -1.06276654641883
  H   -2.42802317125809      0.99411744725389      0.11478032745778
  C   1.20985624049174      0.64868973340900     -1.44357806768256
  N   1.48808058288863      1.12604112707138     -2.48060196374013
  N   1.56259541390098     -1.25306297380090      0.09206985136430
  H   1.44292386070392     -1.87388893261487     -0.69907686680644
  H   2.55301901040330     -1.11839200627555      0.24944720748979
