16
Coordinates from ORCA-job run
  C   -0.53859927116206     -0.13848816006881      0.01240473939272
  C   0.97927002349431      0.03740099155529     -0.24592765623151
  Cl  -1.16605890620997     -1.43639745988661     -1.00458346968087
  H   1.30846653003984      0.84729909808931      0.41073241785244
  N   -0.70080710425696     -0.53373703896147      1.48473341689884
  O   0.07277140243716      0.02765932428871      2.25845883337763
  O   -1.60575249700691     -1.29219285522559      1.79575856905315
  C   -1.34295620745037      1.13052392022912     -0.18190474479371
  H   -2.39032938119024      0.94567051529233      0.06249366770690
  H   -1.27595874199217      1.45410055435976     -1.22089011976303
  H   -0.95163259872824      1.91556303116161      0.47004275022846
  C   1.14912015771267      0.49269618679312     -1.63229554443897
  N   1.26375427574249      0.86767678030493     -2.73869779914772
  N   1.82377878762562     -1.10237660397345      0.01102931948169
  H   1.87451458165238     -1.29069393222948      1.00341695580680
  H   1.50041894929245     -1.92470435172874     -0.48277133574282
