16
Coordinates from ORCA-job run
  C   -0.68725065087255     -0.23171591298797     -0.09741135467712
  C   0.71927203899378     -0.03089461610386     -0.68484173205133
  Cl  -1.58845943572334     -1.34665431296190     -1.14339546589312
  H   0.53648944076450      0.43247094112671     -1.66075358032441
  N   -0.59610527555924     -0.89096706483001      1.27792110259829
  O   -1.64688491549450     -1.02414686718953      1.88856373514699
  O   0.51901444281768     -1.22108833871490      1.67589129733612
  C   -1.44057956102276      1.06962938304357      0.05885894396789
  H   -2.43759565396268      0.87090581213590      0.44808373841755
  H   -1.52600200058072      1.55369780193829     -0.91546431326910
  H   -0.89309215280672      1.72522951697771      0.73551743950992
  C   1.40860575780916     -1.30794976609717     -0.95223134315870
  N   2.03197260486570     -2.27235960155315     -1.19887537761522
  N   1.47982466197186      0.90776316253246      0.12038252105882
  H   2.19829531455861      1.34482750812672     -0.44218590796145
  H   1.92149538424123      0.42125235455713      0.88994029691489
