16
Coordinates from ORCA-job run
  C   -0.72812957584152     -0.14536563022280     -0.09326241767334
  C   0.69103109169703     -0.35321060481186     -0.66208668438597
  Cl  -1.88852252585882     -0.19314694320847     -1.43041281672330
  H   0.66105255342015     -1.25715968958728     -1.27261125346358
  N   -1.04350012677077     -1.36134959586574      0.77932256027953
  O   -1.66215692020174     -1.17019175253067      1.81913723922242
  O   -0.66659166942957     -2.44661003358715      0.34846782083945
  C   -0.88058401127893      1.12782035685668      0.69603988336408
  H   -0.18757605231349      1.13593477785378      1.54054018182497
  H   -0.67640246039342      1.96897263930404      0.03321892861808
  H   -1.89506696863876      1.21658599344259      1.07867363154806
  C   1.61948127842968     -0.58929415857909      0.45975421691713
  N   2.37817364929877     -0.69972274058110      1.35029697464590
  N   1.06272475438299      0.77884038442515     -1.48929890696166
  H   1.70193287917157      0.48793991986593     -2.21635487662174
  H   1.51413410432681      1.49995707722599     -0.94142448143004
