16
Coordinates from ORCA-job run
  C   -0.50371360805628     -0.21579476580146      0.09804207229855
  C   0.93832871844972      0.13467438750654     -0.34768372290972
  Cl  -0.95346150565034     -1.79755379934107     -0.54083671123120
  H   1.15988293265659      1.11599388662507      0.08052775149090
  N   -0.49835365842637     -0.27892510834948      1.63030907488931
  O   -1.23981893849326     -1.07183132511048      2.18905518740162
  O   0.22035394983155      0.55366479539049      2.18040897217489
  C   -1.53289194352868      0.82831492843646     -0.28369783865020
  H   -1.24633082124508      1.79573674744624      0.13644878455091
  H   -1.59322152567112      0.90734044102939     -1.36943898170909
  H   -2.51191793577525      0.54121855497628      0.10357621255133
  C   0.93591243870580      0.28016630795773     -1.80938929758217
  N   0.91744784666814      0.40467978823473     -2.97637604888593
  N   1.98772789733249     -0.76552162401377      0.06038397417070
  H   2.13405215716349     -0.71165023851844      1.05935106687028
  H   1.78700399603860     -1.71951297646822     -0.21068049543018
