16
Coordinates from ORCA-job run
  C   -0.66546021002084     -0.08907002176328     -0.07692428824301
  C   0.72771916585018     -0.38627414140874     -0.69988374233927
  Cl  -1.82686874130253      0.13126364341759     -1.40433724521959
  H   0.60136475773539     -1.27306858050994     -1.32656407508266
  N   -1.09031924085330     -1.35915701715471      0.66154980464953
  O   -0.98915592401984     -2.40613531456408      0.03134773007607
  O   -1.48084652787067     -1.24160392846239      1.81749784141469
  C   -0.69597224129966      1.09847497028228      0.84860964574606
  H   -1.69564339412448      1.23460632938089      1.25715313583187
  H   -0.42537580486326      1.99537751177777      0.29035496461610
  H   0.00098152960437      0.95335764821142      1.67563527851407
  C   1.64312445625139     -0.73217231408765      0.39566741910069
  N   2.37258456526101     -0.96747177262635      1.28513616647083
  N   1.31367579209610      0.66268812028973     -1.49928932597244
  H   1.48292150601604      1.50178534543245     -0.96046078045948
  H   0.72827031154011      0.87839952178503     -2.29549252910346
