16
Coordinates from ORCA-job run
  C   -0.55818213482598     -0.12316410137372      0.03375038745609
  C   0.94414476936987      0.04422979155207     -0.31783560069300
  Cl  -1.29059982114906     -1.31889654493939     -1.03138148715026
  H   1.32890155302140      0.80385787606116      0.36933347307186
  N   -0.57097278003187     -0.64143426577450      1.47632990256032
  O   0.05151456734092      0.07178781762921      2.26124651093755
  O   -1.16765164216900     -1.66969763579187      1.75410065157178
  C   -1.34011889919034      1.17283942739491      0.00378155548972
  H   -2.37007500463473      0.99493923013861      0.31814801762249
  H   -0.87726296645990      1.89755895183222      0.67555107833100
  H   -1.34990392578857      1.56951492261275     -1.01179675570081
  C   1.03874183302691      0.58644995874475     -1.67903477261691
  N   1.09882549180991      1.03084360986243     -2.76383355933237
  N   1.77253208355569     -1.12819717486739     -0.18498301190938
  H   1.38841396174513     -1.91670932353021     -0.69035579611992
  H   1.90169291437962     -1.37292253955103      0.78797940648185
