16
Coordinates from ORCA-job run
  C   -0.67022706322727     -0.09987515079006     -0.08981890216606
  C   0.76039250279927     -0.35145432712921     -0.67774486106481
  Cl  -1.74689932476674      0.29582890625840     -1.43262629110685
  H   0.69313706853139     -1.27818113669692     -1.26038844452756
  N   -1.14562158804616     -1.41285539024615      0.54687125933632
  O   -2.14662047438300     -1.97082325868668      0.12351942893595
  O   -0.43343986838005     -1.79708794631594      1.47061868522936
  C   -0.72578817157434      0.97857455902128      0.96927048038390
  H   -1.75587355243900      1.12515505976577      1.29777899264542
  H   -0.10718790131726      0.69599352687254      1.82146018835752
  H   -0.36391289232007      1.92077913836432      0.55465576917425
  C   1.74303755100825     -0.54221427412397      0.39746356721616
  N   2.54173262259495     -0.60575830971166      1.25542970879771
  N   1.28115573867466      0.67699726386253     -1.55177676120427
  H   1.39234092641851      1.55817309954762     -1.06701334239114
  H   0.68477442642685      0.80574824000814     -2.35769947761588
