16
Coordinates from ORCA-job run
  C   -0.67572566934358     -0.21515900648855     -0.11597883082771
  C   0.73576937876111     -0.15923025799787     -0.78546628849504
  Cl  -1.74085314909055     -1.15365883687155     -1.16106802994421
  H   0.53738233978278      0.11360772035470     -1.82752860963241
  N   -0.52345039144571     -0.92550147501946      1.22904688022885
  O   0.21978350597175     -0.33237103922376      2.01195026032726
  O   -1.09609841816338     -1.98120392469881      1.43991500670525
  C   -1.26059068078883      1.15728576834550      0.13932759530517
  H   -0.63151332355614      1.71186231449436      0.83390111273395
  H   -1.33770656877458      1.69903158391678     -0.80557450065316
  H   -2.26118682489957      1.06116151026300      0.56391523868344
  C   1.30644661370233     -1.51489414343896     -0.78950495885451
  N   1.76306868348554     -2.59598974428539     -0.76124235912125
  N   1.70403219351574      0.77070497465901     -0.26009158053903
  H   1.43045037697476      1.72572549634343     -0.44696215788667
  H   1.83019193386831      0.64062905964758      0.73536122197007
