16
Coordinates from ORCA-job run
  C   0.89819899188340     -0.49077789144948      0.05615202474415
  C   -0.62715947123843     -0.33754301777509      0.04149380542356
  Cl  1.36466841362838     -2.06924184883952      0.68792833458367
  H   -1.02742097322094     -1.16973321519584     -0.53803745999486
  N   1.30545868686879     -0.42907510506234     -1.44160448603347
  O   0.84784275703519     -1.31813218799260     -2.14153107493771
  O   1.99420814926058      0.51862198041154     -1.78995049103078
  C   1.59973684912089      0.56602858139850      0.76628122471138
  N   2.17428494374054      1.41800077408942      1.33781549103497
  C   -1.07823348716028      1.01418845976280     -0.47680630834741
  H   -0.77829404985160      1.14753658912207     -1.51759005834081
  H   -0.65926446945825      1.82077146312777      0.12564226217627
  H   -2.16756334699211      1.07062791953962     -0.43255915191870
  N   -1.14756791246707     -0.53685679955922      1.43494653516826
  O   -1.89613066693822     -1.49384428526082      1.61082112596745
  O   -0.80276441421086      0.28742858368320      2.27699822679405
