16
Coordinates from ORCA-job run
  C   0.70997009613508     -0.42999157455943     -0.41460925086130
  C   -0.41159623629714      0.28931393555529      0.35152625977877
  Cl  0.40076344661463     -0.46792675527797     -2.13902185897645
  H   -0.02811889613503      0.48751170418823      1.35593157947874
  N   2.07689091700268      0.28245611944661     -0.11677904161577
  O   2.32959951168418      0.33494662914903      1.07647968007344
  O   2.74437929183677      0.67363729759516     -1.05039675524940
  C   0.87234491890799     -1.78321919742177      0.10201221505954
  N   0.98604857306163     -2.87573091288145      0.52205645548850
  C   -1.71266971481975     -0.47961742054044      0.38385960051555
  H   -2.08289216237880     -0.67512242004818     -0.62168795403676
  H   -2.46528654357564      0.09984975154768      0.91729029212879
  H   -1.56765468930120     -1.42503831598347      0.90884812547735
  N   -0.58518604530843      1.65375596010676     -0.27534790503172
  O   0.42312994790237      2.35464866135275     -0.29915492896345
  O   -1.69172241532934      1.96152653777120     -0.70100651326583
