16
Coordinates from ORCA-job run
  C   0.77985014447606     -0.37511321028044     -0.33531401995057
  C   -0.46382540950981      0.26532635508876      0.30162823353960
  Cl  0.59617882308918     -0.57487401483335     -2.06654860880943
  H   -0.17405259811584      0.57875664658043      1.30811128600753
  N   2.03665653643028      0.50888385611140     -0.01430814524694
  O   2.71943326191982      0.90514778179399     -0.93470139832100
  O   2.19984080453051      0.67684496098158      1.18389970657477
  C   1.05325487289940     -1.65919975942269      0.29779004945050
  N   1.25671645526714     -2.69717907497097      0.81167492057546
  C   -1.67202191449588     -0.64304555487391      0.31726456446888
  H   -1.46159412771927     -1.52422983272338      0.92513933160077
  H   -1.94771116641884     -0.95326370583840     -0.68973938682290
  H   -2.51882914653350     -0.11573473280888      0.75485371759771
  N   -0.74214373156806      1.55133241013665     -0.44226460115025
  O   0.18341235861031      2.35836101591920     -0.46343119594827
  O   -1.84416516286151      1.69898685914001     -0.95605445356585
