16
Coordinates from ORCA-job run
  C   0.88286380861362     -0.48883470670598      0.17016408187210
  C   -0.61831472629236     -0.20346908811709      0.29140238596143
  Cl  1.41855854292143     -1.58273787008997      1.44496876002243
  H   -1.13043155059320     -1.16564659926370      0.27002414983713
  N   1.02735948081408     -1.22522336949146     -1.19027664735645
  O   1.67287380581367     -0.66032618975367     -2.06100544531383
  O   0.43379175585924     -2.28876617736241     -1.27106230601049
  C   1.71952440175511      0.69943559973127      0.13894706055724
  N   2.40405345365295      1.65516826721999      0.11263554168778
  C   -1.12211566502092      0.75822865367759     -0.76732569902419
  H   -1.00001112819131      0.33261688678909     -1.76478451410756
  H   -0.58930199527507      1.70806871637457     -0.71244073368958
  H   -2.18653964205323      0.94166140815866     -0.60905821616462
  N   -0.89563888478746      0.36435104157866      1.65232439181353
  O   -1.63582241940757     -0.29008532247679      2.38090456175285
  O   -0.38084923780899      1.44755874973126      1.91458262816224
