16
Coordinates from ORCA-job run
  C   0.74325345272573     -0.42235961235619     -0.36073705192213
  C   -0.43846923600230      0.28712190069653      0.31957528608154
  Cl  0.54050834695311     -0.50485218926996     -2.09953373903882
  H   -0.12142935584879      0.51463568441910      1.34080157038961
  N   2.07323386930032      0.32795080946798      0.00248851942335
  O   2.25268564719998      0.41039999187086      1.20724978635603
  O   2.78679514638253      0.71611360676347     -0.89776991879425
  C   0.90272654853527     -1.76012716547192      0.19562331165771
  N   1.01445275963807     -2.83974926108441      0.64814671759333
  C   -1.72213445451155     -0.51076416530253      0.29017943993780
  H   -1.58966994232981     -1.44059049155559      0.84550907394969
  H   -2.02496280714996     -0.73729698135022     -0.73133731151829
  H   -2.51866073472843      0.06313790178607      0.76232936980933
  N   -0.60285831527959      1.63328972949128     -0.34749532756431
  O   -1.68742946573435      1.90602788813721     -0.84719405571777
  O   0.38995854084974      2.35606235375832     -0.32683567064282
