16
Coordinates from ORCA-job run
  C   0.80071789449835     -0.67152183853875     -0.05412260748375
  C   -0.56492424055373     -0.16334617148217      0.43978801879664
  Cl  0.61523786864261     -2.36237401700591     -0.55571943318168
  H   -0.84427041152082     -0.82103644394237      1.26647847721103
  N   1.34229391085115      0.09900362513803     -1.27543834669092
  O   2.46233550738970      0.57165105761609     -1.17590272258065
  O   0.59845023548788      0.13347361718513     -2.24246034111983
  C   1.78441219824751     -0.59655473439915      1.01891152676476
  N   2.51902177563956     -0.58880979755134      1.93681373708495
  C   -1.70216421299188     -0.06373596928290     -0.56430569989334
  H   -1.82218171619700     -1.00153640093849     -1.10461898901509
  H   -2.61828868250124      0.14511318193663     -0.00906461874059
  H   -1.52299207484235      0.73377377963154     -1.28225979720891
  N   -0.38113902377515      1.19154539242866      1.06105014973668
  O   0.43339105614047      1.93857055407261      0.52253152034513
  O   -1.10090008451505      1.45578416513238      2.01631912597557
