16
Coordinates from ORCA-job run
  C   0.85980162404379     -0.54654190363343      0.10554363058041
  C   -0.63811896772126     -0.23876268145071      0.21167683833414
  Cl  1.29608576641849     -1.90853902828605      1.13673062173685
  H   -1.17246997162894     -1.15556483529347     -0.03821857269397
  N   1.06135062912166     -0.97682395326294     -1.37375183358375
  O   0.44459019237358     -1.97390013501656     -1.71324778379104
  O   1.76803408938336     -0.26109101873390     -2.06795651593124
  C   1.72552461734013      0.58979407703463      0.37446044725553
  N   2.43254774948333      1.50511546941161      0.58617018959266
  C   -1.05903171261412      0.94081618557306     -0.64322656278311
  H   -2.12506778572353      1.12656655777595     -0.49881292842699
  H   -0.50440822713472      1.83832033254386     -0.36742741078105
  H   -0.89687676400346      0.72670354921032     -1.70106549618972
  N   -0.97498023690904      0.03906011860128      1.64735783957042
  O   -0.45788894131253      1.03037281231359      2.15467457904296
  O   -1.75909206111673     -0.73552554678725      2.18809295806791
