16
Coordinates from ORCA-job run
  C   0.75868945867085     -0.38200094814075     -0.37311816716469
  C   -0.44677434521919      0.26763072572219      0.32509954835217
  Cl  0.50262167563395     -0.54314784453008     -2.09930193782529
  H   -0.11181433703502      0.55606981870330      1.32500400336064
  N   2.04354779851052      0.47206459101557     -0.08526855422916
  O   2.69880794051818      0.87153199120403     -1.02402775418378
  O   2.25527248587151      0.61533121762044      1.10857683303799
  C   1.03269416537841     -1.68351505201350      0.22309108035800
  N   1.23689032151360     -2.73457720667795      0.70937066152154
  C   -1.66996463244011     -0.61922590392570      0.37186941799394
  H   -1.99080530797042     -0.90570835930621     -0.62885245925412
  H   -2.48903509874144     -0.08578733860180      0.85272140650248
  H   -1.45166550567002     -1.51536153179476      0.95474418613102
  N   -0.72979544359248      1.57267537395216     -0.38298128239133
  O   0.20970445871369      2.36239845931920     -0.42681567094129
  O   -1.84837363414205      1.75062200745386     -0.84911131126812
