16
Coordinates from ORCA-job run
  C   0.76578762966427     -0.71482267889534      0.03417639162989
  C   -0.61794948400265     -0.13655642965973      0.38008613498461
  Cl  0.55363669564046     -2.40287180962757     -0.46339520905136
  H   -1.01838023131795     -0.77487095644305      1.17097342676493
  N   1.46035163146112      0.01559055980878     -1.13445010710052
  O   2.56139267717692      0.49076019472752     -0.91008801451136
  O   0.84102058821133      0.02441969599983     -2.18585785410924
  C   1.63828492723180     -0.66339577945273      1.20030554421922
  N   2.26752338947341     -0.64919837884456      2.19341068181022
  C   -1.62688846771079      0.01814966084319     -0.74541445401056
  H   -1.74387406245578     -0.91842149686441     -1.28867608103172
  H   -1.31982122982232      0.79360047733874     -1.44394318855932
  H   -2.58549281774910      0.28937630727802     -0.29879622051244
  N   -0.42794123312358      1.20824867241331      1.01989449207058
  O   0.39985302921626      1.94991054435915      0.49454376245361
  O   -1.14750304189340      1.47108141701885      1.97623069495344
