16
Coordinates from ORCA-job run
  C   0.79558546065073     -0.41407192837362     -0.34292553571859
  C   -0.41502149514558      0.24884206089914      0.33278427976323
  Cl  0.60444171816399     -0.76275727236886     -2.06345130728800
  H   -0.12650463072937      0.43860895934476      1.36969888288358
  N   2.05754267544061      0.46963785628397     -0.21074078326895
  O   3.12552047500182     -0.12099821853421     -0.17983687632095
  O   1.86840326741601      1.67715078360326     -0.19223080372308
  C   1.07254796889488     -1.65812748654959      0.36893096364396
  N   1.22694513039993     -2.65387269094563      0.97476606236889
  C   -1.66812348936984     -0.60720563852387      0.24897161779058
  H   -2.47907956725906     -0.09716518115033      0.77229866768229
  H   -1.50874814838095     -1.57599259143970      0.72378951678412
  H   -1.95709682261792     -0.75340920362554     -0.79150097756379
  N   -0.75597232505755      1.60979275119902     -0.21351745608619
  O   -0.83254366085402      2.51254511115029      0.61147369028484
  O   -1.00889655655369      1.68702268903090     -1.40950994123192
