16
Coordinates from ORCA-job run
  C   0.78057964152806     -0.69695776060156     -0.03832163252867
  C   -0.56209266125356     -0.12854877101402      0.45284285113003
  Cl  0.53739611683286     -2.40014178820400     -0.47030971209660
  H   -0.84730457933753     -0.74223606809490      1.31080059065702
  N   1.32732214799921      0.00751157638622     -1.29593414001927
  O   0.56756053680851      0.03495813572432     -2.25054922396688
  O   2.46602925090035      0.44027714467235     -1.23358938347425
  C   1.78114236169328     -0.61061825461417      1.01798607152085
  N   2.52115313560510     -0.57467213916240      1.93089506388588
  C   -1.71246812998758     -0.03810885646237     -0.53699948690165
  H   -1.52410139383915      0.72451564671401     -1.28959909946736
  H   -2.61332749201158      0.21745817744289      0.02354506689496
  H   -1.86648428492711     -0.99344197092441     -1.03648236778839
  N   -0.32981830079548      1.24516689739483      1.01383485547825
  O   -1.03503974367170      1.57434652044921      1.95981722596422
  O   0.50745339445633      1.94049151029399      0.44206332071187
