16
Coordinates from ORCA-job run
  C   0.70902829519086     -0.44247754298676     -0.40347121555707
  C   -0.40902064435356      0.30240455000029      0.34332433145625
  Cl  0.37129925792143     -0.57564514342959     -2.11786138072141
  H   -0.01126518455985      0.55721641219798      1.32919935419423
  N   2.07115023122316      0.30191109719309     -0.16780225933470
  O   2.71800018879866      0.65063401546756     -1.13220478840819
  O   2.34233529105724      0.42199472572505      1.01658066088201
  C   0.89791740615718     -1.76438480576690      0.18089678244585
  N   1.03052614122342     -2.83259723111359      0.65445908235903
  C   -1.69920185008205     -0.47958220229340      0.43860118246661
  H   -2.44958614076580      0.11691937827476      0.95610829258467
  H   -1.53295647489913     -1.39544390556217      1.00757609326386
  H   -2.08470184651696     -0.72983118107365     -0.54878740364895
  N   -0.61109280149785      1.62907602758599     -0.35182284171234
  O   0.38821185208351      2.33834654486397     -0.43351085393063
  O   -1.72864372098027      1.90045926091737     -0.77328503633922
