16
Coordinates from ORCA-job run
  C   0.77134518309307     -0.38813257475411     -0.34014744541680
  C   -0.46010767181180      0.26471756195263      0.30811342014762
  Cl  0.63851672318772     -0.43770253431290     -2.08693956227972
  H   -0.19078624497331      0.48091850514876      1.34538818339715
  N   2.05908807214968      0.39805056654511      0.09117725530685
  O   2.18783689020694      0.46049562100117      1.30366761940506
  O   2.79366727361001      0.82944001955012     -0.77174633300361
  C   0.95604136449310     -1.73203058704621      0.19317763217948
  N   1.08711935729889     -2.81736492946777      0.62646570362637
  C   -1.71267127665557     -0.57597374307603      0.21184558398744
  H   -1.56887434083004     -1.51316524865878      0.75163391237198
  H   -2.54613295533893     -0.04068433719267      0.66520590684087
  H   -1.96862282918658     -0.78919237195499     -0.82516623061113
  N   -0.64597811134591      1.61903558528649     -0.33666871383930
  O   0.31933158798647      2.37476452248625     -0.26213050291850
  O   -1.71977302188376      1.86582394449293     -0.87187642919378
