16
Coordinates from ORCA-job run
  C   0.75098434980428     -0.39449404963687     -0.37596161797143
  C   -0.43871454553434      0.28124959340434      0.32475899811538
  Cl  0.44791181097547     -0.63887493747228     -2.08445539801680
  H   -0.07709453342549      0.62145513161596      1.29863858675272
  N   2.03695110973441      0.47987649630755     -0.16528038360539
  O   2.28379346711837      0.67658336192852      1.01404926954972
  O   2.66095075471061      0.84089408902547     -1.14028324628253
  C   1.04951815757707     -1.66509809082004      0.27260263891496
  N   1.26958434740538     -2.69344415228708      0.79890486341931
  C   -1.65326216774210     -0.60961295866732      0.45133450359699
  H   -2.00088684909726     -0.94768412562398     -0.52393824050795
  H   -1.41178310354188     -1.47406748896801      1.07154879083150
  H   -2.46190165137542     -0.05727123824767      0.92857503992042
  N   -0.75181780953177      1.54712501208107     -0.43895449297881
  O   0.17701321238722      2.34476080726615     -0.53780878923445
  O   -1.88024654946453      1.68860255009419     -0.89373052250364
