16
Coordinates from ORCA-job run
  C   0.80001520735202     -0.67603903686037     -0.06043353250532
  C   -0.56455363261819     -0.17776182118782      0.45012111070132
  Cl  0.63052094803402     -2.37220000906725     -0.54173410236984
  H   -0.83628093766641     -0.84193069120014      1.27332495157333
  N   1.30132875504724      0.10294505676657     -1.29658175884837
  O   0.58989635863776      0.02828090642594     -2.28489308943127
  O   2.35617235461812      0.70473914200440     -1.17613765223977
  C   1.80111328343555     -0.57033743706720      0.99300123013158
  N   2.54306022684318     -0.50393917241197      1.90277195328430
  C   -1.69485480875978     -0.07017609464420     -0.55789318646875
  H   -1.82746123893377     -1.01133994465400     -1.08960341797320
  H   -1.50081635876608      0.71890289056719     -1.28119738895433
  H   -2.61210878921595      0.15708524559091     -0.01059796556027
  N   -0.36718559971132      1.16972770280854      1.08205920468382
  O   0.23728496300808      1.99973994046566      0.40631206335420
  O   -0.85513073130447      1.34130332246374      2.19348158062258
