16
Coordinates from ORCA-job run
  C   1.00848464149619     -0.16951181765052      0.06322280536003
  C   -0.45778662414650     -0.20078132953449      0.50956080850988
  Cl  2.08447744344075     -0.51276518080797      1.41746682620470
  H   -0.63296609150047     -1.17550968551930      0.96524828060883
  N   1.12623729885220     -1.33617444131627     -0.95562520363127
  O   0.89766708042168     -2.44652065923461     -0.50307480788564
  O   1.38291453067532     -1.03758466823018     -2.11271507576392
  C   1.40732441235579      1.06101280994100     -0.60007777510659
  N   1.73724970729879      2.05222743861424     -1.13977377405007
  C   -1.42292339813436      0.10768594692868     -0.61837001029953
  H   -2.44351452606197      0.10032876432798     -0.23092364745764
  H   -1.21695035386725      1.08878772963205     -1.04755311723147
  H   -1.35651314942499     -0.64980645296402     -1.40117819008730
  N   -0.64893555165056      0.79521815137910      1.61595964676924
  O   -0.98380084512858      0.34602414097790      2.70823814744082
  O   -0.48096457462604      1.97736925345639      1.33059508661994
