16
Coordinates from ORCA-job run
  C   0.74194028757487     -0.42080615899467     -0.36561983659534
  C   -0.43509929702448      0.29060541473843      0.32103749769281
  Cl  0.47995532736554     -0.59966635828077     -2.08909503482093
  H   -0.08864060973645      0.57981388166555      1.31670574084748
  N   2.06000101548532      0.38615545650025     -0.09127704391494
  O   2.28579636287661      0.52641006278095      1.10026108565278
  O   2.72113110606552      0.75939836883635     -1.03683653336823
  C   0.96155921183947     -1.72227993498617      0.25265379481802
  N   1.12056701210553     -2.77312771394325      0.75594193689070
  C   -1.69543773206608     -0.54181005513793      0.37924729402198
  H   -1.51705073650140     -1.43701524669973      0.97694392961099
  H   -2.49126095260325      0.03463609975676      0.84979082834805
  H   -2.02722717827967     -0.82985226335594     -0.61735685954606
  N   -0.66066491166553      1.59475161246347     -0.40795746082649
  O   0.30233377789288      2.35694052276974     -0.43263665535129
  O   -1.75890268332888      1.79784631188695     -0.91080268345953
