16
Coordinates from ORCA-job run
  C   0.75123768172630     -0.73571136830703     -0.01846953050740
  C   -0.58131332923411     -0.12481287120244      0.45762040858832
  Cl  0.48485096312703     -2.43228988949765     -0.43451233530877
  H   -0.89169636647495     -0.71788798407654      1.32004908219484
  N   1.28337123899415     -0.00764685781902     -1.27502452945001
  O   2.26560854292028      0.70056082770386     -1.11408870132303
  O   0.65302882667561     -0.19521793213597     -2.30197258348664
  C   1.75997248019487     -0.64639343551154      1.02914363631728
  N   2.51887642404506     -0.59779402845008      1.92628688981404
  C   -1.68727523374315     -0.01484259661722     -0.57328701918058
  H   -1.89007090556121     -0.98582968625053     -1.02325690415688
  H   -1.42500995536427      0.69289865209655     -1.35617391206008
  H   -2.59118218561753      0.33087406772108     -0.06711877518122
  N   -0.28660144544737      1.24237813470779      1.01258685454826
  O   -0.43295951416954      1.39999219173680      2.22099201872319
  O   0.06816277792883      2.09172277590194      0.19822540046865
