16
Coordinates from ORCA-job run
  C   0.99724429805589     -0.23019471085527      0.04710557103616
  C   -0.48194352037362     -0.27881874520132      0.44774581701828
  Cl  2.01614569618788     -0.90131761129602      1.32004671811475
  H   -0.71396260526377     -1.31595474680779      0.69073125518509
  N   1.09237198506576     -1.16282832173860     -1.19111313288515
  O   1.39881114480360     -0.64314739046798     -2.25407195234648
  O   0.79763757317337     -2.32951506340536     -0.98671550734055
  C   1.47020753706069      1.09024318219520     -0.33547400437773
  N   1.85861954099326      2.15548381643642     -0.64696287295744
  C   -1.39828056426107      0.30055943536766     -0.61201905749628
  H   -1.13310725675593      1.33526445669889     -0.83104373472239
  H   -2.42857577475419      0.27017942886529     -0.25233386330840
  H   -1.34669337645195     -0.28794917252369     -1.52959495269017
  N   -0.65863237886806      0.47910198065526      1.73152152741064
  O   -1.01645438557041     -0.17092153434032      2.70949754741846
  O   -0.45238791304146      1.68881499641762      1.69168064194119
