16
Coordinates from ORCA-job run
  C   0.79494952257426     -0.68074596652101     -0.05587674290368
  C   -0.56774915079776     -0.16689820003077      0.44192262041217
  Cl  0.60418155907004     -2.37274078290080     -0.54831978321552
  H   -0.85435311140951     -0.82877787734734      1.26231793264776
  N   1.32841189587991      0.08869592940479     -1.28264056176111
  O   2.42366405462204      0.61413552073396     -1.16975853425938
  O   0.60184115349505      0.07517942762239     -2.26299931037253
  C   1.78383779718016     -0.59923830577451      1.01148152146977
  N   2.51593019390820     -0.56615887299301      1.93093137253795
  C   -1.69592855416993     -0.04701235753924     -0.56872250147490
  H   -2.61244646483783      0.17845081446859     -0.01995499436752
  H   -1.49758083139298      0.74663783400805     -1.28589646728004
  H   -1.83014279505899     -0.98330113729555     -1.10851913939890
  N   -0.36843437512974      1.17946762869179      1.07561529338054
  O   0.36087496379173      1.96324052869816      0.47135888500719
  O   -0.98705585772464      1.40006581677451      2.11006040957819
