16
Coordinates from ORCA-job run
  C   0.94872993557675     -0.36594086187683      0.13035700077716
  C   -0.56555908696857     -0.26412631335972      0.34584346445135
  Cl  1.70195441663668     -1.31956327475552      1.40801786851584
  H   -0.94946357021848     -1.28245410756742      0.41017881769055
  N   1.09564640800328     -1.14484086776551     -1.20584645616021
  O   0.64464746102828     -2.27895509127189     -1.19856899889424
  O   1.59443044404622     -0.54337441727530     -2.14567917160170
  C   1.62224554715760      0.91473996877023     -0.00875712315914
  N   2.17384046956958      1.94669628493435     -0.12462692412776
  C   -1.25816626955653      0.56146892108376     -0.72110253373128
  H   -2.32304371862187      0.62696164629696     -0.48978611151914
  H   -0.84443058902902      1.56960590396644     -0.76193083873577
  H   -1.15648986237499      0.08916246905964     -1.69968042542648
  N   -0.82346289300180      0.34479003420929      1.69311115823302
  O   -0.45025111093513      1.50286355656620      1.85684438596883
  O   -1.41062758131201     -0.35803385101468      2.51062588771897
