16
Coordinates from ORCA-job run
  C   0.77763390743583     -0.38479916205763     -0.32972421841757
  C   -0.46324116253791      0.26820926076833      0.29998665455503
  Cl  0.62458216972551     -0.53085565537032     -2.06959937721889
  H   -0.18722887445177      0.54532607107158      1.32095514996648
  N   2.04813031536520      0.45705498373002      0.04146631650524
  O   2.18935387858637      0.58839568332777      1.24715052856214
  O   2.76083083547745      0.86037129033263     -0.85282164948702
  C   1.00513408668160     -1.69329519467946      0.27082779752663
  N   1.17042320701682     -2.75127842032998      0.75681430379478
  C   -1.69355426427123     -0.60927639884313      0.26465298355063
  H   -1.51835114174942     -1.51213041586205      0.85164392888822
  H   -1.95522203794577     -0.88456063038507     -0.75623659593143
  H   -2.53619497120571     -0.07286224197316      0.69925277689173
  N   -0.69417545146735      1.58194137091164     -0.41142077079286
  O   -1.78274877728790      1.77367039518125     -0.93917222081480
  O   0.25262828062827      2.36408906417758     -0.39377560757832
