16
Coordinates from ORCA-job run
  C   0.73390923178490     -0.37672215955887     -0.42520078654208
  C   -0.42624077284619      0.25880346318292      0.35745874723333
  Cl  0.40100363995105     -0.44398135002758     -2.14436984109238
  H   -0.04240128214265      0.48845840607739      1.35501127448150
  N   2.04768332788170      0.43751383111855     -0.15118907435981
  O   2.31492551542764      0.51255342308920      1.03770380432215
  O   2.66849351149819      0.87518812990246     -1.09631742397829
  C   1.00541985209019     -1.71213331795423      0.09208997393229
  N   1.20725991981356     -2.79099870426873      0.51425739718540
  C   -1.66498945786451     -0.60582013166530      0.41258742582082
  H   -2.45131483899571     -0.08261850496281      0.95537411712568
  H   -2.03447244257587     -0.83337500838200     -0.58650800808507
  H   -1.44121423132574     -1.53534559788874      0.93813812011877
  N   -0.71207062520503      1.60397785105154     -0.26941712329351
  O   -1.84580605038586      1.82688156031586     -0.67597447266675
  O   0.24081470289431      2.37761810997033     -0.31364413020204
