16
Coordinates from ORCA-job run
  C   0.74107078601135     -0.42550353246527     -0.36146168425939
  C   -0.43320248850159      0.29849899408876      0.31658078162227
  Cl  0.45514783320375     -0.66908984169431     -2.07336167134905
  H   -0.07542784334424      0.62788830531526      1.29574566205665
  N   2.05583648383913      0.40102665659710     -0.13588176626335
  O   2.70728328471715      0.73351241470224     -1.10312002529315
  O   2.29088293286729      0.59708458254064      1.04603555665567
  C   0.98250304579249     -1.70220422442144      0.29908829306310
  N   1.15947092725827     -2.73341443154216      0.83587599132449
  C   -1.68322835919584     -0.54450285042688      0.42510375268433
  H   -1.48466999382284     -1.41796767841333      1.04785171998167
  H   -2.47654321732626      0.03858098249971      0.89121855711837
  H   -2.02974801897659     -0.86823800762224     -0.55533991365722
  N   -0.68517675323190      1.57306958558420     -0.45615193048503
  O   -1.80393711151588      1.76119332647005     -0.91774732906207
  O   0.27773849222569      2.32906571878768     -0.55343599413731
