16
Coordinates from ORCA-job run
  C   0.93477614551399     -0.41328461476233      0.03230461414362
  C   -0.55819872179891     -0.27664352616842      0.35327746556295
  Cl  1.72333637229990     -1.52203821475178      1.15435789096333
  H   -0.98242859734234     -1.28052610952003      0.34183259918868
  N   0.97537093047830     -1.05518033366845     -1.38124979883793
  O   0.42515774704043     -2.14125005879659     -1.47278613750790
  O   1.51090354278159     -0.41049339729352     -2.27041513706206
  C   1.64898547566349      0.85201228600460     -0.01676237890038
  N   2.22739749026048      1.87481810364690     -0.06295095875653
  C   -1.27378850249882      0.67819724718097     -0.58201741637783
  H   -1.23966955407191      0.30854360348338     -1.60837036982171
  H   -2.32252664796771      0.75184418565689     -0.28791295476208
  H   -0.82676798276084      1.67176735937819     -0.54019725626313
  N   -0.70454844009859      0.20105239154196      1.76853618569728
  O   -0.31177048271176      1.33847042130505      2.01231308121124
  O   -1.22622877478731     -0.57828934323683      2.56104057152247
