16
Coordinates from ORCA-job run
  C   0.80102511767065     -0.67328114576953     -0.05963449948686
  C   -0.56064022608360     -0.16844389459123      0.44998364888587
  Cl  0.62108667515270     -2.37130129257036     -0.53562701038335
  H   -0.83056397139383     -0.82555764240597      1.27981820917643
  N   1.31266247310626      0.09047993524574     -1.29899958583459
  O   0.57399986718930      0.06354656820950     -2.26997370139102
  O   2.40521580384553      0.62509311740146     -1.20420504145812
  C   1.80150514231551     -0.57329544332557      0.99527164154850
  N   2.54253503081200     -0.52368906761820      1.90676567788097
  C   -1.70228059227463     -0.06932270419017     -0.54773215297097
  H   -2.61437959838395      0.15147658049044      0.01019298199422
  H   -1.83307420635281     -1.01172691708488     -1.07760642400153
  H   -1.52118375490395      0.72001421880661     -1.27416384694417
  N   -0.36728185999961      1.18556685327832      1.06894666918141
  O   0.35020664271204      1.96980749367665      0.45131827709370
  O   -0.97883254341161      1.41063334044718      2.10664515670949
