16

C	-0.19809	-0.053749	0.022661
C	-0.501534	0.245418	-1.454411
Br	1.667951	0.476206	0.426194
H	0.317725	-0.167589	-2.061974
H	-0.8408	0.583321	0.634272
C	-0.366434	-1.508202	0.415879
H	-0.014744	-1.676997	1.435344
H	-1.428009	-1.759945	0.37846
H	0.192457	-2.169353	-0.254736
N	-0.546752	1.689031	-1.621099
H	-1.340536	1.98201	-1.042922
H	-0.842027	1.845719	-2.580398
N	-1.761577	-0.345713	-1.90438
H	-2.479314	0.040373	-1.268748
H	-1.741783	-1.355055	-1.797421
H	-3.048429	1.16612	0.145773
