16

C	0.051925	-0.032334	0.025412
C	-0.631803	-0.14911	-1.31636
Br	2.051449	-0.152814	-0.132261
H	-1.706568	0.038383	-1.050746
H	-0.100463	0.979647	0.40927
C	-0.445126	-1.068072	1.002989
H	-0.0203	-0.928141	2.000055
H	-0.201911	-2.064741	0.633873
H	-1.536953	-0.955449	1.041831
N	-0.512418	-1.506385	-1.857211
H	-0.220954	-1.40004	-2.821152
H	-1.454841	-1.888464	-1.878012
N	-0.23303	0.856123	-2.292005
H	0.714493	1.16903	-2.111434
H	-0.859938	1.647793	-2.203925
H	-3.379223	0.214699	-0.51909
