16

C	-0.0048	0.015012	-0.037726
C	-0.398711	0.000291	-1.521985
Br	1.99812	-0.146044	0.080371
H	0.237169	0.751008	-2.023284
H	-0.184394	1.018356	0.355083
C	-0.661896	-1.037261	0.816776
H	-0.430231	-2.03284	0.440287
H	-0.337454	-0.948548	1.857143
H	-1.752501	-0.875976	0.765294
N	-1.774462	0.382738	-1.748681
H	-1.864962	1.384687	-1.62031
H	-2.452275	-0.026872	-1.066254
N	-0.211015	-1.340268	-2.067984
H	-0.697563	-1.352097	-2.955704
H	0.774617	-1.516594	-2.222505
H	-3.666162	-0.23212	0.201046
