16

C	0.118282	0.006175	-0.036695
C	-0.550863	-0.051956	-1.414968
Br	1.992147	-0.635267	-0.159845
H	0.194981	0.265055	-2.153531
H	0.227414	1.056357	0.231872
C	-0.607515	-0.781033	1.032185
H	-0.208985	-0.553801	2.024319
H	-1.679216	-0.552328	0.988127
H	-0.504957	-1.849145	0.840002
N	-1.623914	0.94851	-1.394644
H	-1.918398	1.086912	-2.357709
H	-2.434604	0.488668	-0.942516
N	-0.950578	-1.425407	-1.714286
H	-1.15279	-1.475966	-2.708067
H	-1.859784	-1.554057	-1.250939
H	-3.608746	-0.850644	-0.38613
