16

C	0.09081	0.051617	-0.064143
C	-0.421313	-0.149624	-1.513155
Br	2.040034	-0.413203	0.015846
H	0.344003	0.279323	-2.177473
H	0.105395	1.123439	0.156144
C	-0.653636	-0.728853	0.994134
H	-1.734021	-0.678776	0.791455
H	-0.422835	-0.354677	1.995159
H	-0.386052	-1.785795	0.952356
N	-1.677717	0.54762	-1.713754
H	-2.437183	0.014069	-1.24642
H	-1.633346	1.471534	-1.297282
N	-0.640368	-1.538384	-1.876626
H	0.114645	-2.108414	-1.512213
H	-1.515983	-1.82968	-1.436989
H	-3.431498	-1.196399	-0.369244
