11

C	-0.05224	0.004319	0.017323
C	-0.566702	0.278737	-1.384544
F	1.350254	0.080834	0.08424
H	-0.310358	-0.539478	-2.06262
H	-0.483264	0.729532	0.700408
H	-1.675234	0.300623	-1.133912
C	-0.438069	-1.345843	0.451688
N	-0.557124	-2.463065	0.791467
C	-0.059796	1.533399	-1.910082
N	0.327204	2.551766	-2.351034
F	-2.584717	0.103258	0.158562
