11

C	-0.047721	0.006299	0.009111
C	-0.568266	-0.423939	-1.35078
F	1.353897	0.117915	0.021637
H	-0.3013	-1.46251	-1.562829
H	-0.485914	0.965163	0.267602
H	-1.676328	-0.297476	-1.13092
C	-0.417356	-0.978032	1.036151
N	-0.524128	-1.797362	1.869853
C	-0.08118	0.438135	-2.412401
N	0.288775	1.133633	-3.284567
F	-2.581946	0.142716	0.102599
