11

C	-0.046751	0.007731	0.01554
C	-0.561087	0.223894	-1.396691
F	1.355772	0.086029	0.079255
H	-1.669313	0.258263	-1.146828
H	-0.477457	0.761003	0.667745
H	-0.306458	-0.622489	-2.039912
C	-0.433412	-1.322983	0.505544
N	-0.553595	-2.425093	0.89118
C	-0.051847	1.454396	-1.974564
N	0.337225	2.452846	-2.457253
F	-2.579095	0.114431	0.152892
