11

C	-0.432627	-0.026595	-1.463181
C	0.0	0.0	0.0
Br	-2.389323	-0.140127	-1.670177
H	1.095027	0.0	0.0
H	-0.039106	-0.917616	-1.955602
H	-0.3502	0.913407	0.486733
C	0.011674	1.162914	-2.182684
N	0.336511	2.120942	-2.78098
C	-0.49317	-1.163761	0.723469
N	-0.893325	-2.103207	1.302773
Cl	3.275299	0.0	0.0
