11

C	-0.434706	-0.017436	-1.46092
C	0.0	0.0	0.0
Br	-2.396211	-0.064259	-1.650033
H	1.09504	0.0	0.0
H	-0.073558	-0.923599	-1.949895
H	-0.347982	0.913788	0.487723
C	0.051968	1.152132	-2.182313
N	0.413822	2.092619	-2.785692
C	-0.502882	-1.164106	0.716222
N	-0.904907	-2.105629	1.290935
Cl	3.276838	0.0	0.0
