11

C	-0.557628	0.014785	-1.425698
C	0.0	0.0	0.0
Br	0.096396	1.550096	-2.438283
H	1.092848	0.0	0.0
H	-1.644488	0.126468	-1.419046
H	-0.318904	-0.931995	0.480993
C	-0.234172	-1.214435	-2.14194
N	-0.047263	-2.22369	-2.713695
C	-0.532164	1.120671	0.766203
N	-1.00453	2.004565	1.377975
Cl	3.292545	0.0	0.0
