11

C	-0.574048	-0.003613	-1.424676
C	0.0	0.0	0.0
Br	-0.02812	1.620961	-2.357286
H	1.092582	0.0	0.0
H	-1.665131	0.038956	-1.398232
H	-0.324729	0.916596	0.500985
C	-0.173377	-1.168013	-2.210878
N	0.128847	-2.103089	-2.856537
C	-0.533214	-1.148626	0.725634
N	-1.013446	-2.067029	1.277095
Cl	3.295223	0.0	0.0
