19

C	0.0	0.0	0.0
C	-0.472191	-9e-05	-1.464648
Cl	1.802852	0.0	0.0
H	-1.565389	-4.2e-05	-1.39025
N	-0.434091	1.232697	0.628285
H	-1.456746	1.206472	0.570556
H	-0.189783	1.190717	1.613346
N	-0.434093	-1.232612	0.628445
H	-1.45675	-1.20639	0.570726
H	-0.18977	-1.190517	1.613497
C	-0.049274	-1.256481	-2.219121
H	-0.339799	-2.15636	-1.678391
H	1.034052	-1.279598	-2.368827
H	-0.529022	-1.266963	-3.202824
C	-0.049174	1.256159	-2.219304
H	1.034139	1.279101	-2.369138
H	-0.339507	2.156136	-1.678635
H	-0.529032	1.266607	-3.202954
Cl	-3.660154	0.0	0.0
