19

C	0.0	0.0	0.0
C	-0.352541	0.053043	-1.504414
Cl	1.85112	0.0	0.0
H	0.301155	-0.688852	-1.98025
N	-0.457121	1.166303	0.693616
H	-0.264347	1.07179	1.68485
H	-1.472363	1.183048	0.588797
N	-0.459746	-1.216073	0.581464
H	-0.241073	-1.256214	1.569794
H	-0.060303	-2.024665	0.118342
C	-0.031227	1.420557	-2.104521
H	-0.1024	1.36381	-3.194662
H	-0.75151	2.162038	-1.75696
H	0.967863	1.765704	-1.838364
C	-1.799512	-0.331932	-1.795456
H	-2.532879	0.336888	-1.341469
H	-1.958996	-0.311201	-2.878465
H	-2.047322	-1.324089	-1.421537
Cl	-4.795309	0.0	0.0
