19

C	0.0	0.0	0.0
C	-0.457892	-0.141886	-1.467587
Cl	1.811755	0.0	0.0
H	-1.548039	-0.218195	-1.383476
N	-0.418146	1.21504	0.665143
H	-1.439984	1.190114	0.659106
H	-0.113105	2.030969	0.146211
N	-0.456834	-1.148766	0.734184
H	-0.302986	-0.943364	1.71727
H	-1.470287	-1.181992	0.595776
C	0.072359	-1.408957	-2.132937
H	-0.030418	-2.264972	-1.46653
H	-0.493306	-1.607297	-3.048724
H	1.127517	-1.304167	-2.400051
C	-0.146792	1.086206	-2.316556
H	-0.466104	0.906464	-3.347236
H	-0.686311	1.967744	-1.965375
H	0.925229	1.304436	-2.329137
Cl	-3.648466	0.0	0.0
