19

C	0.0	0.0	0.0
C	-0.283111	0.215842	-1.525803
Cl	1.816953	0.0	0.0
H	0.45606	-0.417249	-2.029966
N	-0.520732	1.076027	0.782309
H	-1.515663	1.15512	0.561862
H	-0.45467	0.805276	1.75856
N	-0.410074	-1.277021	0.539023
H	-1.429523	-1.269187	0.571475
H	-0.114156	-2.030321	-0.072916
C	-0.024692	1.662864	-1.944557
H	0.937382	2.028832	-1.584651
H	-0.039436	1.736787	-3.037068
H	-0.805361	2.317246	-1.552333
C	-1.648399	-0.232063	-2.029291
H	-1.636958	-0.171487	-3.12403
H	-1.87696	-1.263169	-1.755391
H	-2.471584	0.369619	-1.652271
Cl	-4.201086	0.0	0.0
