19

C	0.0	0.0	0.0
C	-0.451276	0.120501	-1.467549
Cl	1.858771	0.0	0.0
H	-1.542544	0.017184	-1.381693
N	-0.477508	1.087067	0.759685
H	-0.096092	1.9757	0.477566
H	-0.3377	0.915205	1.744809
N	-0.437805	-1.187007	0.686237
H	-1.460484	-1.138257	0.680139
H	-0.143891	-2.011424	0.180932
C	0.087391	-0.992906	-2.362216
H	-0.09996	-1.984162	-1.943529
H	-0.420834	-0.954416	-3.329906
H	1.161627	-0.889046	-2.533653
C	-0.148868	1.486999	-2.078077
H	-0.445706	1.495308	-3.131045
H	0.918813	1.721817	-2.026033
H	-0.720391	2.271838	-1.579132
Cl	-3.878551	0.0	0.0
