11
Coordinates from ORCA-job run
  C   0.99006082241813      0.01432313670745      0.03319027911810
  C   -0.36801680535736     -0.29297000178892     -0.60896240304374
  Br  2.34809948743824     -1.23979745452950     -0.59753657777922
  H   -0.23642319030209     -0.29023407258461     -1.69372323611375
  H   1.31859577850630      1.00994117625665     -0.26631248368148
  H   -0.66618000521030     -1.30457562599161     -0.31610081821557
  C   0.90073462023575     -0.05008960732189      1.48557192978822
  N   0.78583333792416     -0.12033696246373      2.65231840994708
  N   -1.30492738226961      0.73159745899670     -0.17783964496202
  H   -2.00613557656541      0.36431947864121      0.44758127125478
  H   -1.76264108681782      1.17782247407825     -0.95818672631241
