11
Coordinates from ORCA-job run
  C   1.00051135278677     -0.25491299618832      0.01647048163430
  C   -0.29896747309086     -0.01755579584928     -0.75786434376913
  Br  1.13862006851564     -2.09595194706750      0.63817121341600
  H   -0.35602397171045     -0.76928395760375     -1.54794437375330
  H   1.86399384965152     -0.09475540446950     -0.63310402095368
  H   -0.19744722635714      0.96745319702806     -1.24064450065785
  C   1.08517041510302      0.65179135632323      1.15493366124282
  N   1.10643854000830      1.42425513598171      2.03964856702383
  N   -1.44690631691415     -0.14664790229685      0.11597194851655
  H   -1.61693675051097      0.71258893035457      0.62204556514149
  H   -2.27845248748168     -0.37698061621236     -0.40868419784103
