13

C	-0.42699	0.011936	-1.494644
C	0.0	0.0	0.0
Cl	0.267842	-1.42157	-2.298796
H	1.097209	0.0	0.0
C	-1.887892	-0.039642	-1.623861
N	-3.060376	-0.081532	-1.701477
C	0.067015	1.226321	-2.150835
N	0.419868	2.194503	-2.716582
C	-0.49945	-1.200106	0.663279
N	-0.888894	-2.169463	1.201261
C	-0.492865	1.204559	0.662244
N	-0.880895	2.183271	1.184723
Br	3.248822	0.0	0.0
