13

C	-0.39642	0.000206	-1.496011
C	0.0	0.0	0.0
Cl	-2.190427	0.000265	-1.677459
H	1.098463	0.0	0.0
C	0.121403	1.201286	-2.156092
N	0.493711	2.159482	-2.726102
C	0.121321	-1.200661	-2.156501
N	0.49836	-2.1564	-2.727468
C	-0.488911	-1.205195	0.659192
N	-0.876376	-2.179409	1.189529
C	-0.488762	1.205053	0.659571
N	-0.875876	2.178885	1.190853
Br	3.229871	0.0	0.0
