13

C	-0.426824	-0.008297	-1.49473
C	0.0	0.0	0.0
Cl	0.267456	1.428088	-2.293564
H	1.097139	0.0	0.0
C	0.068086	-1.220524	-2.154439
N	0.413664	-2.187052	-2.726984
C	-1.8877	0.042079	-1.625365
N	-3.059068	0.082959	-1.717947
C	-0.494059	-1.205347	0.659185
N	-0.894524	-2.182417	1.175262
C	-0.499951	1.198662	0.665279
N	-0.905167	2.161887	1.202476
Br	3.25082	0.0	0.0
