13

C	-0.396902	0.000126	-1.49587
C	0.0	0.0	0.0
Cl	-2.191054	-0.000518	-1.676576
H	1.098462	0.0	0.0
C	0.120278	1.20127	-2.156273
N	0.497262	2.157114	-2.727192
C	0.121105	-1.200458	-2.156602
N	0.500928	-2.154912	-2.727816
C	-0.488718	-1.20523	0.65928
N	-0.876005	-2.179506	1.189627
C	-0.488733	1.205053	0.659603
N	-0.876083	2.179252	1.19005
Br	3.230017	0.0	0.0
