13

C	-0.427015	-0.001271	-1.49465
C	0.0	0.0	0.0
Cl	0.269049	1.437596	-2.287529
H	1.09715	0.0	0.0
C	0.066	-1.211252	-2.159933
N	0.414202	-2.173658	-2.738269
C	-1.887817	0.051899	-1.624462
N	-3.059079	0.094961	-1.716378
C	-0.494231	-1.208755	0.653254
N	-0.895405	-2.188339	1.163995
C	-0.500256	1.195166	0.671556
N	-0.905056	2.155079	1.214931
Br	3.250364	0.0	0.0
