15

C	-0.510692	0.107294	-1.414542
C	0.0	0.0	0.0
F	-0.065098	1.287051	-1.990999
H	1.093728	0.0	0.0
H	-0.347221	0.901923	0.514276
C	0.008048	-0.993718	-2.278575
N	0.262757	-1.897325	-2.98514
N	-1.9566	0.158277	-1.474428
H	-2.341419	-0.611177	-0.941033
H	-2.265598	0.062958	-2.436531
C	-0.463571	-1.263147	0.717873
H	-0.217392	-2.155726	0.135942
H	-1.535446	-1.278729	0.948991
H	0.082544	-1.344245	1.660204
H	2.977918	0.0	0.0
