15

C	-0.510636	-0.000852	-1.421632
C	0.0	0.0	0.0
F	-0.10681	1.146947	-2.090351
H	1.093364	0.0	0.0
H	-0.310424	-0.945244	0.46602
C	0.049039	-1.143055	-2.199881
N	0.340031	-2.084992	-2.838749
N	-1.956829	-0.006963	-1.476873
H	-2.273449	-0.234633	-2.412713
H	-2.311445	-0.704693	-0.835635
C	-0.499803	1.199852	0.794712
H	-1.581249	1.200829	0.95486
H	0.005673	1.209022	1.763724
H	-0.228584	2.121237	0.276823
H	2.976769	0.0	0.0
