15

C	0.0	0.0	0.0
C	-0.632348	0.042486	-1.367905
Cl	1.794033	0.0	0.0
H	-1.753613	-0.034787	-1.071608
H	-0.40876	0.980065	-1.874829
C	-0.464868	1.249252	0.754153
H	-0.067068	1.238661	1.77035
H	-1.559234	1.190959	0.74299
H	-0.096741	2.139259	0.236515
C	-0.398413	-1.183862	0.776621
N	-0.590033	-2.086582	1.502759
N	-0.22844	-1.036314	-2.278077
O	-0.245965	-0.781862	-3.485921
O	0.053597	-2.137443	-1.805235
F	-2.841081	0.0	0.0
