15

C	0.0	0.0	0.0
C	-0.412579	-0.155984	-1.480133
Cl	1.798748	0.0	0.0
H	-0.639352	-1.195929	-1.695888
H	0.414544	0.184684	-2.110236
C	-0.362147	1.326165	0.677961
H	-1.448461	1.366412	0.695331
H	0.066772	1.318717	1.683638
H	0.070324	2.151004	0.112387
C	-0.45202	-1.150785	0.781401
N	-0.586414	-2.121429	1.431493
N	-1.57066	0.624458	-2.006854
O	-1.538897	1.843298	-1.871061
O	-2.337741	0.020017	-2.747726
F	-2.474817	0.0	0.0
