15

C	0.0	0.0	0.0
C	-0.621988	0.062088	-1.372813
Cl	1.793743	0.0	0.0
H	-0.387303	1.005185	-1.863362
H	-1.741732	-0.020733	-1.089843
C	-0.46589	1.239439	0.769888
H	-0.096754	2.13594	0.264262
H	-0.069528	1.214833	1.786284
H	-1.559989	1.180707	0.755593
C	-0.400512	-1.194408	0.759632
N	-0.573688	-2.097991	1.489429
N	-0.204644	-1.005515	-2.291402
O	-0.130764	-0.717408	-3.490276
O	-0.003068	-2.13068	-1.833932
F	-2.834285	0.0	0.0
