15

C	0.0	0.0	0.0
C	-0.59423	0.036799	-1.401971
Cl	1.794185	0.0	0.0
H	-1.703464	0.115289	-1.156237
H	-0.321902	-0.855341	-1.961707
C	-0.474801	1.124444	0.912533
H	-1.567068	1.061835	0.872603
H	-0.092122	0.957554	1.919238
H	-0.113162	2.079845	0.542686
C	-0.407321	-1.291165	0.57241
N	-0.599762	-2.347151	1.049413
N	-0.10532	1.177209	-2.20129
O	0.504216	0.926916	-3.244208
O	-0.348054	2.318886	-1.811726
F	-2.817635	0.0	0.0
