13
Coordinates from ORCA-job run
  C   0.90457399686338     -0.25474594851108      0.03841168898237
  C   -0.51880554542662      0.02777516670596     -0.45874091500092
  F   1.66361410144740     -0.46379024714996     -1.13202434716178
  H   -0.41379036702209      0.73056262221931     -1.29259262892870
  H   0.96084722317196     -1.20132962520728      0.58218629907238
  N   1.38362985449634      0.78537042701471      0.85280460021970
  H   1.24438005187641      1.69807600710368      0.44152077092678
  H   2.35442891319179      0.64700843617253      1.09850649941351
  N   -1.33450705004617      0.65264361246576      0.56949962044098
  H   -2.30344360030600      0.68306226805511      0.27687542853316
  H   -1.27742527506381      0.12831038991761      1.43372807719131
  C   -1.08133641391997     -1.22323121212896     -1.00848186849524
  N   -1.58216588926261     -2.20971189665738     -1.40269322519355
