13
Coordinates from ORCA-job run
  C   0.88339746017735     -0.21848779002458      0.03848838652925
  C   -0.59080934417746     -0.12069030484706     -0.35037468022991
  F   1.59755578684746     -0.59389009115929     -1.10394322163166
  H   -0.67112451419756      0.67170969401987     -1.11427890336088
  H   1.01328269317112     -1.00591250749078      0.78259631626039
  N   1.31543681396103      1.02466324289173      0.56764723473047
  H   2.22202447057954      0.94322448234872      1.00783461115754
  H   1.37075437405143      1.71941951757837     -0.16803282982693
  N   -1.35770771077531      0.11594913441414      0.86341604975700
  H   -2.33910576646071      0.23686616503133      0.64818913947437
  H   -1.00366390782851      0.95770506548613      1.30103447071418
  C   -1.03160007616696     -1.37088422879229     -0.98033794188344
  N   -1.40744027918142     -2.35767237945629     -1.49123863169038
