13
Coordinates from ORCA-job run
  C   0.95711142569695      0.22822464823793     -0.37657186071844
  C   -0.51285053204114     -0.18855042741490     -0.53744258603938
  F   1.02588652558469      1.46738504486360     -1.04189389233832
  H   -0.75238230247665     -0.17527453520174     -1.61006172735881
  H   1.61344966254982     -0.44949711972623     -0.92682936978331
  N   1.36213226527843      0.35896548805147      0.96153373302801
  H   0.58795991551062      0.47431008601929      1.59910595969509
  H   2.02944202852896     -0.32805426495461      1.26685783574476
  N   -1.32359330795492      0.72040799047800      0.26728174998624
  H   -1.22261103991522      1.65444595369414     -0.11286670091054
  H   -2.30091511304040      0.46106595047689      0.22377254967575
  C   -0.67437382005205     -1.56113403573278     -0.04783859738589
  N   -0.79025570766909     -2.66429477879105      0.33495290640484
