15

C	0.0	0.0	0.0
C	-0.509162	-0.029336	-1.45956
Cl	1.741986	0.0	0.0
H	-1.599874	-0.237974	-1.359253
C	-0.588415	1.058696	0.802348
N	-0.688849	2.013813	1.48799
N	-0.340564	-1.42534	0.674041
O	-1.028891	-2.220914	0.01754
O	0.180745	-1.58478	1.771398
C	0.233796	-0.950681	-2.306292
N	0.740325	-1.794599	-2.954235
N	-0.390052	1.363407	-2.064774
O	0.742619	1.79889	-2.263014
O	-1.435388	1.992141	-2.194069
F	-2.516121	0.0	0.0
