15

C	0.0	0.0	0.0
C	-0.452105	-0.072768	-1.494301
Cl	1.796676	0.0	0.0
H	-1.531304	-0.002659	-1.581112
C	-0.548056	1.219252	0.638408
N	-1.356921	2.0731	1.008942
N	-0.310646	-1.268487	0.931113
O	0.103375	-1.10548	2.044293
O	-1.674467	-1.474899	0.60378
C	-0.149588	-1.394156	-2.005817
N	-0.32502	-2.572215	-2.18293
N	-0.034402	1.022375	-2.479956
O	1.059828	1.565517	-2.431609
O	-0.984407	1.475418	-3.109902
F	-2.607175	0.0	0.0
