15

C	0.0	0.0	0.0
C	-0.443149	0.054639	-1.496254
Cl	1.749713	0.0	0.0
H	0.384508	0.519896	-2.036115
C	-0.435883	1.220698	0.672165
N	-0.565226	2.289748	1.14537
N	-0.437611	-1.209282	0.820441
O	-0.538025	-2.274663	0.235487
O	-0.510301	-1.025311	2.025294
C	-1.662211	0.811729	-1.778896
N	-2.318914	1.551238	-2.421572
N	-0.519306	-1.317516	-2.138307
O	-1.616557	-1.800877	-2.365434
O	0.56917	-1.816202	-2.415184
F	-2.296963	0.0	0.0
