15

C	0.0	0.0	0.0
C	-0.449723	0.004781	-1.479011
Cl	1.742474	0.0	0.0
H	-1.565268	0.051788	-1.394635
C	-0.491959	1.072437	0.840588
N	-0.827262	1.867154	1.64079
N	-0.329554	-1.611947	0.68668
O	0.710755	-2.159018	0.999625
O	-1.425432	-2.083445	0.756617
C	0.022612	-1.164688	-2.198948
N	0.303107	-2.178631	-2.724155
N	0.023349	1.26313	-2.166722
O	0.874983	1.179747	-3.049771
O	-0.513463	2.300056	-1.786329
F	-2.363977	0.0	0.0
