15

C	0.0	0.0	0.0
C	-0.404834	0.000331	-1.515081
Cl	1.793691	0.0	0.0
H	-1.499115	0.092766	-1.575826
C	-0.473176	1.276983	0.742305
N	-1.485532	1.885705	1.045424
N	-0.455201	-1.275375	0.967231
O	-1.580138	-1.834125	0.790177
O	0.165499	-1.249341	2.03608
C	-0.260013	-1.337628	-2.061367
N	-0.777692	-2.427326	-2.110328
N	-0.115745	1.186156	-2.37205
O	-0.03095	0.980391	-3.586012
O	-0.26272	2.291271	-1.840779
F	-2.026198	0.0	0.0
