15

C	0.0	0.0	0.0
C	-0.421329	0.058607	-1.514177
Cl	1.774784	0.0	0.0
H	-0.133087	-0.919374	-1.910333
C	-0.389456	1.043255	0.937754
N	-0.375187	1.833967	1.811519
N	-0.350096	-1.531355	0.827614
O	0.490913	-1.647161	1.756685
O	-1.267462	-2.153633	0.649653
C	0.228822	1.05376	-2.388903
N	0.468464	1.690102	-3.359858
N	-1.902631	0.198496	-2.085074
O	-2.471054	1.267994	-2.052464
O	-2.26265	-0.812774	-2.717843
F	-2.094482	0.0	0.0
