15

C	-0.46995	-0.083915	-1.432155
C	0.0	0.0	0.0
F	-1.847907	0.199952	-1.484108
H	1.093017	0.0	0.0
H	-0.366284	0.935879	0.431293
N	0.093877	1.107993	-2.227871
O	0.562114	0.894097	-3.343376
O	-0.026959	2.21041	-1.708015
N	-0.181937	-1.287684	-2.060287
H	0.297275	-1.1519	-2.938379
H	0.313303	-1.899286	-1.427431
N	-0.419127	-1.211706	0.703426
H	0.20543	-1.356098	1.484423
H	-1.362804	-1.115287	1.051922
Br	3.578047	0.0	0.0
