15

C	-0.32668	0.024203	-1.473281
C	0.0	0.0	0.0
F	-0.165438	-1.232026	-2.024581
H	1.094668	0.0	0.0
H	-0.322822	0.951428	0.425959
N	-1.80424	0.320444	-1.75035
O	-2.534596	0.614578	-0.808159
O	-2.153325	0.263474	-2.927101
N	0.410765	1.018078	-2.137245
H	0.332878	0.904981	-3.140077
H	1.385077	0.964005	-1.844428
N	-0.571287	-1.159222	0.667374
H	0.177062	-1.694831	1.085981
H	-1.201028	-0.863121	1.397673
Br	3.582318	0.0	0.0
