15

C	-0.585701	0.010116	-1.40064
C	0.0	0.0	0.0
F	0.24079	0.689632	-2.278499
H	1.094003	0.0	0.0
H	-0.347355	-0.910516	0.496805
N	-0.533409	-1.427767	-1.978227
O	-1.486982	-1.80305	-2.666543
O	0.47647	-2.080014	-1.748117
N	-1.885426	0.513096	-1.451785
H	-2.24787	0.680053	-0.524442
H	-2.486642	0.000398	-2.076792
N	-0.544752	1.151513	0.747496
H	-0.110725	1.986187	0.364352
H	-0.186319	1.076281	1.692682
Br	3.695234	0.0	0.0
