15

C	-0.349408	0.017328	-1.461227
C	0.0	0.0	0.0
F	-0.138894	-1.249991	-2.010717
H	1.10159	0.0	0.0
H	-0.398036	-0.907185	0.451602
N	-1.854097	0.197425	-1.666351
O	-2.573212	-0.545785	-1.010888
O	-2.238426	1.007682	-2.50576
N	0.340812	1.037573	-2.118622
H	1.33839	0.918875	-1.959005
H	0.118681	1.079547	-3.102161
N	-0.588703	1.187332	0.63162
H	-0.052703	1.988184	0.316326
H	-0.432271	1.115913	1.63036
Br	3.662249	0.0	0.0
