15

C	-0.547334	0.001108	-1.406186
C	0.0	0.0	0.0
F	0.039555	1.035389	-2.11984
H	1.094002	0.0	0.0
H	-0.365503	-0.891959	0.506862
N	-0.174583	-1.251925	-2.183494
O	0.237353	-2.221133	-1.559164
O	-0.388659	-1.206739	-3.392531
N	-1.953198	0.068864	-1.431752
H	-2.220346	0.771044	-0.749507
H	-2.273616	0.312866	-2.360694
N	-0.545827	1.20315	0.660785
H	-0.470574	1.064399	1.660783
H	0.082575	1.968774	0.440127
Br	3.642614	0.0	0.0
