15

C	-0.58205	-0.044009	-1.390133
C	0.0	0.0	0.0
F	-0.125506	1.001774	-2.140751
H	1.09288	0.0	0.0
H	-0.337122	0.958559	0.403956
N	-0.075439	-1.283359	-2.17071
O	-0.501794	-1.389577	-3.322159
O	0.658235	-2.087091	-1.602736
N	-1.990369	-0.040495	-1.36811
H	-2.278494	-0.669314	-0.625492
H	-2.36495	-0.321342	-2.265349
N	-0.583752	-1.092136	0.796329
H	-0.586261	-0.812061	1.769395
H	0.049521	-1.879955	0.723647
Br	3.693137	0.0	0.0
