15

C	-0.418246	-0.116701	-1.45586
C	0.0	0.0	0.0
F	-1.669706	-0.667194	-1.546289
H	1.091147	0.0	0.0
H	-0.309266	-0.946625	0.466549
N	-0.513535	1.283659	-2.043469
O	0.560802	1.840938	-2.223033
O	-1.62183	1.748798	-2.268596
N	0.464763	-0.859308	-2.300414
H	1.407528	-0.501011	-2.149329
H	0.462294	-1.819232	-1.971256
N	-0.53323	1.185403	0.651938
H	-1.346929	0.969695	1.209918
H	0.180995	1.57256	1.251416
Br	3.583281	0.0	0.0
