15

C	-0.345208	-0.052696	-1.469177
C	0.0	0.0	0.0
F	-0.146435	-1.317172	-1.931271
H	1.095178	0.0	0.0
H	-0.340007	0.965726	0.381731
N	-1.829436	0.251678	-1.666474
O	-2.1646	1.402328	-1.38622
O	-2.569495	-0.633044	-2.070036
N	0.374866	0.852807	-2.305148
H	0.133247	1.798833	-2.036856
H	1.365983	0.717704	-2.102832
N	-0.660207	-1.077178	0.732476
H	-0.486477	-0.932953	1.72101
H	-0.192972	-1.94323	0.48616
Br	3.601734	0.0	0.0
