15

C	-0.558984	0.048621	-1.399572
C	0.0	0.0	0.0
F	-1.97047	0.229334	-1.299561
H	1.089513	0.0	0.0
H	-0.35199	0.882619	0.538119
N	-0.178086	1.317645	-2.147239
O	0.106015	2.306842	-1.482013
O	-0.271877	1.27907	-3.371104
N	-0.209037	-1.052452	-2.157509
H	-0.290397	-1.878441	-1.578689
H	-0.711442	-1.106916	-3.029937
N	-0.431005	-1.273269	0.594657
H	-1.265712	-1.147312	1.150273
H	0.31215	-1.602583	1.196235
Br	3.610007	0.0	0.0
