15

C	-0.589017	0.006521	-1.397504
C	0.0	0.0	0.0
F	-0.113097	1.083376	-2.074899
H	1.098307	0.0	0.0
H	-0.356762	-0.90416	0.498231
N	-0.139708	-1.239805	-2.146688
O	0.582259	-1.112431	-3.121129
O	-0.572279	-2.299776	-1.690898
N	-2.018536	0.020851	-1.473818
H	-2.308949	0.680989	-0.756806
H	-2.35041	-0.897898	-1.20615
N	-0.553871	1.183891	0.682279
H	-0.460979	1.038886	1.679937
H	0.05677	1.962813	0.458981
Br	3.62085	0.0	0.0
