16

C	-0.454433	-0.018514	-1.435415
C	0.0	0.0	0.0
Cl	-2.232716	0.159498	-1.650304
H	1.099968	0.0	0.0
H	-0.180513	-0.9636	-1.892843
N	0.202022	1.035314	-2.288052
O	0.87592	0.625184	-3.22959
O	0.030752	2.214903	-1.992756
N	-0.370166	-1.305972	0.558906
H	-1.097887	-1.197823	1.255976
H	0.461226	-1.664417	1.02244
C	-0.468195	1.173236	0.84026
H	-1.5505	1.144693	1.01241
H	-0.214664	2.1264	0.37687
H	0.048085	1.115794	1.802595
H	2.803158	0.0	0.0
