16

C	-0.634866	-0.001601	-1.369726
C	0.0	0.0	0.0
Cl	0.020987	1.234966	-2.467879
H	1.096721	0.0	0.0
H	-1.713464	0.14733	-1.313991
N	-0.495592	-1.331938	-2.068689
O	0.527161	-1.97943	-1.89178
O	-1.436612	-1.655729	-2.79578
N	-0.512134	-1.220632	0.655932
H	0.257559	-1.883873	0.651304
H	-0.701472	-1.00835	1.628255
C	-0.448212	1.236636	0.76016
H	0.072248	1.255802	1.721656
H	-0.176723	2.149384	0.22767
H	-1.531919	1.231861	0.936677
H	2.92239	0.0	0.0
