16

C	-0.638591	-0.008496	-1.367765
C	0.0	0.0	0.0
Cl	0.022002	1.215533	-2.476565
H	1.096727	0.0	0.0
H	-1.715745	0.149507	-1.307897
N	-0.513964	-1.344288	-2.058893
O	-1.461339	-1.664441	-2.779263
O	0.504192	-1.999316	-1.884125
N	-0.517435	-1.213401	0.665449
H	-0.677	-0.99763	1.642626
H	0.241923	-1.889595	0.643064
C	-0.446419	1.242477	0.752056
H	-1.530313	1.240962	0.925862
H	-0.171026	2.151207	0.214561
H	0.071475	1.266612	1.714574
H	2.922761	0.0	0.0
