16

C	-0.411077	-0.043991	-1.46114
C	0.0	0.0	0.0
Cl	-0.138705	-1.605354	-2.22912
H	1.096501	0.0	0.0
H	0.132564	0.711626	-2.027447
N	-1.863742	0.327747	-1.607878
O	-2.09246	1.476456	-1.999042
O	-2.719257	-0.472624	-1.239945
N	-0.4448	-1.163186	0.742122
H	-1.249394	-0.958839	1.31791
H	0.323733	-1.466759	1.328673
C	-0.413145	1.33185	0.617973
H	-0.104009	2.178999	-0.000881
H	0.092982	1.423456	1.582593
H	-1.497001	1.398942	0.778049
H	2.81902	0.0	0.0
