16

C	-0.351823	-0.010799	-1.483936
C	0.0	0.0	0.0
Cl	0.002623	-1.554157	-2.273907
H	1.096223	0.0	0.0
H	0.19308	0.769509	-2.013322
N	-1.808721	0.303912	-1.67549
O	-2.079911	1.448086	-2.042516
O	-2.636164	-0.54885	-1.355377
N	-0.461079	-1.13904	0.769584
H	-1.376756	-1.444836	0.460419
H	0.196674	-1.898015	0.636223
C	-0.464448	1.304929	0.628016
H	-0.140137	2.170485	0.04321
H	-1.5537	1.347215	0.745656
H	-0.006483	1.3669	1.616134
H	2.83011	0.0	0.0
