14

C	-0.399679	0.073878	-1.478849
C	0.0	0.0	0.0
Cl	-2.198545	0.238179	-1.648391
H	1.095004	0.0	0.0
H	-0.364291	-0.920728	0.461052
C	0.284751	1.24618	-2.16586
H	0.040883	1.266494	-3.229291
H	1.364345	1.137834	-2.023283
H	-0.044904	2.177677	-1.7029
C	-0.045937	-1.189302	-2.130843
N	0.206107	-2.20844	-2.657708
C	-0.486955	1.153907	0.744207
N	-0.89041	2.082563	1.338636
Br	3.451807	0.0	0.0
