14

C	-0.401941	0.065203	-1.478527
C	0.0	0.0	0.0
Cl	-2.203824	0.223515	-1.644593
H	1.094944	0.0	0.0
H	-0.364467	-0.917912	0.466356
C	0.278475	1.237023	-2.172132
H	0.032503	1.251344	-3.23473
H	1.359254	1.131602	-2.031103
H	-0.053127	2.171143	-1.713191
C	-0.046847	-1.201313	-2.124485
N	0.208217	-2.224538	-2.643373
C	-0.486815	1.158374	0.737448
N	-0.88895	2.090509	1.327338
Br	3.450361	0.0	0.0
