14

C	-0.419802	0.113267	-1.467076
C	0.0	0.0	0.0
Cl	-2.190011	0.500465	-1.569684
H	1.0945	0.0	0.0
H	-0.318079	0.913347	0.512162
C	0.378928	1.22407	-2.135953
H	1.443383	0.99476	-2.029706
H	0.171838	2.16885	-1.628626
H	0.107556	1.314774	-3.188542
C	-0.228171	-1.151768	-2.178954
N	-0.073879	-2.145115	-2.787713
C	-0.565277	-1.153264	0.682494
N	-1.046677	-2.066827	1.240979
Br	3.469004	0.0	0.0
