14

C	-0.420967	0.042688	-1.470777
C	0.0	0.0	0.0
Cl	-2.190499	0.426378	-1.591029
H	1.094726	0.0	0.0
H	-0.318883	0.935756	0.469142
C	0.376656	1.119731	-2.194012
H	0.103929	1.157555	-3.249347
H	0.168716	2.08827	-1.73386
H	1.441428	0.897573	-2.07717
C	-0.232225	-1.256355	-2.120815
N	-0.089704	-2.281214	-2.677859
C	-0.560839	-1.122613	0.73548
N	-1.031649	-2.015658	1.334904
Br	3.466742	0.0	0.0
