14

C	-0.422094	0.056713	-1.469513
C	0.0	0.0	0.0
Cl	-2.192408	0.444335	-1.581381
H	1.094583	0.0	0.0
H	-0.3183	0.931391	0.478204
C	0.375464	1.13865	-2.184441
H	0.101597	1.187397	-3.239586
H	0.169995	2.102339	-1.714142
H	1.4402	0.913221	-2.071175
C	-0.238051	-1.23521	-2.132151
N	-0.097566	-2.252437	-2.702537
C	-0.561035	-1.128561	0.725985
N	-1.033656	-2.025104	1.317985
Br	3.468587	0.0	0.0
