14

C	-0.401628	0.069672	-1.478317
C	0.0	0.0	0.0
Cl	-2.200737	0.234812	-1.644486
H	1.095016	0.0	0.0
H	-0.364585	-0.919149	0.463878
C	0.282501	1.23974	-2.169558
H	0.035651	1.257495	-3.232023
H	1.362448	1.130345	-2.0298
H	-0.044975	2.173246	-1.707857
C	-0.050519	-1.195714	-2.127607
N	0.200578	-2.21695	-2.651283
C	-0.486087	1.155867	0.741893
N	-0.88263	2.082666	1.343737
Br	3.451296	0.0	0.0
