13

C	0.0	0.0	0.0
C	-0.335397	0.060849	-1.503717
Br	1.970835	0.0	0.0
H	-0.054661	1.077378	-1.827097
H	-0.259057	0.935726	0.503522
H	0.359178	-0.625014	-2.004064
N	-0.511054	-1.182801	0.615527
H	-0.487954	-1.070581	1.623502
H	-1.496845	-1.244353	0.346687
N	-1.700461	-0.327931	-1.823322
H	-2.003216	0.182346	-2.643544
H	-2.401918	-0.104563	-1.07634
H	-3.547245	0.0	0.0
