13

C	0.0	0.0	0.0
C	-0.486724	0.054726	-1.42892
Br	1.966549	0.0	0.0
H	-1.580175	0.114863	-1.309565
H	-0.225296	0.961427	0.472667
H	-0.23278	-0.900338	-1.910908
N	-0.561309	-1.146343	0.644494
H	-1.587632	-0.992122	0.508122
H	-0.400397	-1.069357	1.643477
N	-0.005626	1.243449	-2.130298
H	-0.600588	1.405659	-2.934062
H	0.936344	1.08378	-2.468105
H	-3.139597	0.0	0.0
