13

C	0.0	0.0	0.0
C	-0.548979	-0.050955	-1.409999
Br	2.039811	0.0	0.0
H	-1.640925	-0.121231	-1.236117
H	-0.2233	0.956885	0.468792
H	-0.196667	-0.965755	-1.902932
N	-0.471226	-1.046967	0.779853
H	-0.21791	-1.018466	1.753302
H	-0.360764	-1.960999	0.371053
N	-0.260884	1.103916	-2.245966
H	0.709056	1.377703	-2.132657
H	-0.847012	1.868482	-1.9326
H	-3.533434	0.0	0.0
