16
Coordinates from ORCA-job run
  C   -0.49300158583998     -0.17284947502766     -0.38160510907271
  C   0.97127285465944     -0.56230789506731     -0.60193738529975
  Cl  -1.35492756670548     -0.95257571243521     -1.76480695806296
  H   1.09208948344690     -1.64379292046284     -0.55907205351179
  H   1.33735220171456     -0.16409916841320     -1.54715376896120
  C   -0.71173972908679      1.32713042347505     -0.47862700595214
  H   -0.31673426794778      1.72255580244590     -1.41582059407557
  H   -0.21363611573962      1.83827930027893      0.34795230971452
  H   -1.77962299641071      1.54713554446381     -0.43117346800828
  C   -1.05541144894770     -0.74947206137602      0.90619500923302
  H   -2.12597368876868     -0.54573812859057      0.96430671058697
  H   -0.90404118575355     -1.82911304038390      0.95292557604771
  H   -0.56676223425043     -0.29533897696791      1.77085354198845
  N   1.83176766922462      0.01194764617419      0.47188538217003
  O   2.29362435793998      1.13645267918481      0.28102830120086
  O   1.99474425246522     -0.66721401729808      1.48504951200284
