16
Coordinates from ORCA-job run
  C   -0.42856305837643     -0.07712122982484     -0.22096479633930
  C   0.98492436818913     -0.61225420863664     -0.00119589462955
  Cl  -0.77376375136009     -0.11943018434569     -1.98796684855614
  H   1.19440624411841     -0.65010040296404      1.06946147109244
  H   1.09646531195026     -1.59461382696054     -0.45730566780000
  C   -0.62207414325768      1.34812892215923      0.26924799270411
  H   -0.00044621762701      2.05389211005577     -0.27911467109891
  H   -0.36222234680546      1.41683450521807      1.32904755453143
  H   -1.66765151819143      1.63422847580975      0.14197401708803
  C   -1.39611233205249     -1.03270805280899      0.46542832483166
  H   -1.22964630745138     -1.01889709662600      1.54659599971064
  H   -2.42429060795060     -0.72465385301451      0.26944128977803
  H   -1.26935342541796     -2.05336697538761      0.09912797327339
  N   2.03764848691903      0.25566393674536     -0.59842522619513
  O   2.33876336971058      1.27077307031606      0.02970330519896
  O   2.52191592760311     -0.09637518973537     -1.67105482358965
