16
Coordinates from ORCA-job run
  C   -0.40169181855790      0.02183477881771     -0.27709977402512
  C   1.12209157093581      0.12449357073842     -0.26464136324370
  Cl  -0.87740994572836     -1.06798868290952     -1.62958992211115
  H   1.43043624913857      0.82703844145982      0.51187475779834
  H   1.49199009660667      0.43263881870268     -1.24123102167022
  C   -0.95555212102463      1.40826960137558     -0.57954462704825
  H   -0.70305133452269      2.09595073267154      0.23295950208079
  H   -0.55103300907413      1.79944812593839     -1.51513669336574
  H   -2.04195491389684      1.36279557333334     -0.66965016347916
  C   -0.98409285645924     -0.53431542148461      1.01154074783037
  H   -0.66231763098385      0.07532088108154      1.86019945397771
  H   -0.66677771804908     -1.56017462030292      1.19084355811038
  H   -2.07378782547622     -0.51283566706955      0.95334628724797
  N   1.79203762174866     -1.16655320698350      0.05563195239046
  O   2.26115792779092     -1.80961113608054     -0.87998849141776
  O   1.81795570755232     -1.49631178928839      1.24148579692505
