16

C	-0.42599	-0.010116	-1.47671
C	0.0	0.0	0.0
Cl	0.391967	1.266055	-2.367996
H	1.096088	0.0	0.0
C	-0.175511	-1.29184	-2.12711
N	0.023814	-2.323779	-2.653581
N	-1.954618	0.229983	-1.527477
O	-2.640156	-0.771722	-1.352451
O	-2.354264	1.378719	-1.640992
C	-0.478225	-1.204386	0.670398
N	-0.847016	-2.151356	1.260869
C	-0.455655	1.251776	0.752759
H	-0.142001	2.146858	0.215929
H	-1.537167	1.279084	0.905448
H	0.041116	1.250847	1.724159
Cl	3.203221	0.0	0.0
