16

C	-0.506339	0.017674	-1.451436
C	0.0	0.0	0.0
Cl	0.257061	-1.252868	-2.399523
H	1.095271	0.0	0.0
C	-1.959585	-0.122922	-1.529168
N	-3.125857	-0.269838	-1.549223
N	-0.150039	1.393855	-2.056134
O	0.964428	1.533813	-2.52367
O	-1.025923	2.24809	-1.947891
C	-0.464469	-1.240948	0.613764
N	-0.849635	-2.216267	1.144141
C	-0.470552	1.208719	0.813607
H	-0.000185	2.117639	0.438085
H	-0.136482	1.068946	1.842707
H	-1.556914	1.32611	0.80127
Cl	3.229395	0.0	0.0
