16

C	-0.501267	-0.046115	-1.455755
C	0.0	0.0	0.0
Cl	0.259952	-1.360313	-2.34634
H	1.095234	0.0	0.0
C	-1.955357	-0.181349	-1.536519
N	-3.123185	-0.31458	-1.570735
N	-0.139747	1.30548	-2.114985
O	-1.01597	2.163153	-2.045606
O	0.981691	1.427211	-2.571585
C	-0.471516	-1.214717	0.659867
N	-0.865107	-2.168831	1.222271
C	-0.468669	1.241792	0.764126
H	-1.553779	1.365362	0.740391
H	-0.142643	1.138968	1.800147
H	0.011265	2.132467	0.356939
Cl	3.218557	0.0	0.0
