16

C	-0.401913	-0.092614	-1.466136
C	0.0	0.0	0.0
Cl	-2.164395	-0.342426	-1.683445
H	1.094996	0.0	0.0
C	-0.024723	1.108018	-2.204361
N	0.216777	2.107047	-2.774383
N	0.26655	-1.297667	-2.161319
O	0.46726	-2.280923	-1.469349
O	0.480122	-1.174582	-3.359912
C	-0.527901	-1.111761	0.780956
N	-1.013673	-1.931959	1.467543
C	-0.445298	1.325522	0.628058
H	-0.118754	1.333527	1.668823
H	-1.5302	1.452018	0.59472
H	0.042396	2.158977	0.121058
Cl	3.196693	0.0	0.0
