14

C	0.0	0.0	0.0
C	-0.514539	0.175304	-1.436511
Cl	1.802046	0.0	0.0
H	-1.618007	0.066782	-1.276202
H	-0.23825	1.1397	-1.857897
C	-0.380871	1.24137	0.705072
N	-0.584194	2.239725	1.288537
N	-0.509982	-1.113088	0.738441
H	-0.315715	-1.94407	0.190541
H	-1.539122	-0.914837	0.671802
N	-0.002962	-0.842099	-2.374282
O	0.029388	-2.019732	-2.011167
O	0.334559	-0.459392	-3.49714
F	-2.735818	0.0	0.0
