14

C	0.0	0.0	0.0
C	-0.520719	-0.176696	-1.430415
Cl	1.792124	0.0	0.0
H	-1.618976	-0.214935	-1.284967
H	-0.176878	0.641305	-2.059283
C	-0.360622	1.386785	0.395902
N	-0.559564	2.488038	0.75495
N	-0.536864	-1.002306	0.855528
H	-0.300307	-0.768556	1.814706
H	-1.572033	-0.84264	0.70546
N	-0.019515	-1.4202	-2.059176
O	0.867286	-1.303996	-2.912286
O	-0.52633	-2.487231	-1.721784
F	-2.764228	0.0	0.0
