14

C	0.0	0.0	0.0
C	-0.529866	0.011675	-1.424715
Cl	1.785666	0.0	0.0
H	-0.256606	-0.925924	-1.903431
H	-1.631844	0.112664	-1.272784
C	-0.373111	1.212083	0.767031
N	-0.579039	2.096736	1.513599
N	-0.536726	-1.197034	0.590889
H	-1.569163	-0.987101	0.503956
H	-0.296548	-1.193938	1.577388
N	-0.010774	1.100106	-2.274816
O	0.120818	2.219679	-1.783948
O	0.217033	0.823599	-3.455211
F	-2.763049	0.0	0.0
