14

C	0.0	0.0	0.0
C	-0.522203	-0.015587	-1.44187
Cl	1.791796	0.0	0.0
H	-0.038256	0.760805	-2.031965
H	-1.615835	0.076781	-1.310278
C	-0.361046	1.32838	0.557694
N	-0.574946	2.395631	1.001068
N	-0.545213	-1.110714	0.702975
H	-1.582742	-0.920256	0.575527
H	-0.304147	-1.029656	1.684943
N	-0.218308	-1.310274	-2.102868
O	0.871146	-1.417681	-2.673769
O	-1.074871	-2.190205	-2.063547
F	-2.766367	0.0	0.0
