15

C	0.0	0.0	0.0
C	-0.377238	0.106403	-1.500783
F	1.385003	0.0	0.0
H	0.347422	-0.543532	-2.003545
H	-0.386925	-0.946528	0.369527
C	-0.353691	1.168037	0.904243
H	0.192195	2.047573	0.568476
H	0.016166	0.92573	1.907327
H	-1.425877	1.330281	0.91033
N	0.031986	1.46696	-2.035361
O	-0.75269	2.39899	-1.906922
O	1.14903	1.535348	-2.554866
C	-1.701181	-0.233806	-2.064995
N	-2.660542	-0.334505	-2.741669
F	-2.585158	0.0	0.0
