15

C	0.0	0.0	0.0
C	-0.473928	0.301013	-1.42017
F	1.384992	0.0	0.0
H	0.170004	-0.266245	-2.097404
H	-0.353008	-0.999647	0.252122
C	-0.394367	1.010686	1.058864
H	-0.019593	0.660568	2.024939
H	-1.476884	1.090615	1.064523
H	0.084107	1.969654	0.840247
N	-0.146354	1.733491	-1.747261
O	-0.980955	2.596817	-1.495232
O	0.975328	1.948999	-2.211791
C	-1.88691	0.015931	-1.775813
N	-2.58021	-0.193734	-2.713761
F	-2.610014	0.0	0.0
