15

C	0.0	0.0	0.0
C	-0.414517	0.087746	-1.46925
F	1.384957	0.0	0.0
H	0.194039	-0.641652	-2.011659
H	-0.373234	-0.943135	0.39408
C	-0.401985	1.175566	0.868214
H	-1.482216	1.274123	0.813738
H	0.115854	2.074163	0.523307
H	-0.080931	0.9731	1.894147
N	0.072488	1.410879	-2.01779
O	1.234719	1.441284	-2.426706
O	-0.686787	2.374708	-1.982812
C	-1.832402	-0.10722	-1.843353
N	-2.555528	-0.315932	-2.758504
F	-2.593929	0.0	0.0
