15

C	0.0	0.0	0.0
C	-0.517667	-0.262155	-1.424194
F	1.386575	0.0	0.0
H	0.361401	-0.270466	-2.086451
H	-0.330953	-0.835337	0.611366
C	-0.375121	1.29983	0.693032
H	0.118326	2.140961	0.20756
H	-0.0017	1.222444	1.719711
H	-1.457511	1.381918	0.681189
N	-1.401494	0.780652	-2.057225
O	-2.275028	0.391869	-2.818479
O	-1.064783	1.950239	-1.906074
C	-1.171885	-1.564519	-1.516041
N	-1.507993	-2.6813	-1.647218
F	-2.520481	0.0	0.0
