18

C	-0.62953	-0.08263	-1.597449
C	0.086501	-0.025593	-0.253715
F	-0.108898	0.952999	-2.423031
H	1.160842	-0.022765	-0.469753
C	-0.329055	-1.326288	-2.345934
N	-0.092402	-2.298242	-2.960217
N	-2.038917	0.036355	-1.473669
H	-2.252225	0.841233	-0.898566
H	-2.467555	0.142384	-2.385054
C	-0.20215	-1.234034	0.627577
H	0.053646	-2.176005	0.131844
H	0.432126	-1.111912	1.513783
H	-1.257492	-1.266218	0.9147
C	-0.214125	1.262379	0.506685
H	0.528076	1.284101	1.323396
H	-0.098196	2.148829	-0.124105
H	-1.218565	1.251669	0.948357
H	2.111244	0.352133	2.30772
