18

C	-0.193886	-0.088058	-1.430702
C	0.002437	-0.10921	0.086969
F	0.128698	-1.417158	-1.902429
H	1.080621	-0.284839	0.197953
C	-1.635591	0.040082	-1.791779
N	-2.774633	0.167357	-2.052544
N	0.564313	0.913262	-2.016807
H	0.561582	0.84255	-3.027977
H	1.577392	0.946791	-1.621578
C	-0.794038	-1.230629	0.744175
H	-0.549613	-1.286887	1.809293
H	-0.566886	-2.194662	0.287538
H	-1.871455	-1.052433	0.656476
C	-0.319904	1.250981	0.694377
H	0.362478	2.004299	0.303225
H	-0.209811	1.207423	1.783254
H	-1.349534	1.550648	0.46859
H	2.920791	0.989215	-1.000015
