18

C	-0.201467	0.097675	-1.453748
C	0.015095	0.153835	0.058851
F	-1.603922	-0.145228	-1.68424
H	1.075049	0.406727	0.185865
C	-0.018129	1.450068	-2.060407
N	0.164065	2.497251	-2.563268
N	0.579434	-0.896496	-2.037318
H	1.544597	-1.027601	-1.524616
H	0.740316	-0.724833	-3.022844
C	-0.197751	-1.231879	0.662703
H	-1.167466	-1.636719	0.362478
H	0.595741	-1.902694	0.335038
H	-0.166336	-1.164835	1.755982
C	-0.876506	1.200937	0.719046
H	-0.715176	2.199625	0.303573
H	-1.930422	0.943478	0.587952
H	-0.66527	1.245992	1.791844
H	2.781447	-1.141475	-0.821708
