16

C	-0.445263	-0.14581	-1.466999
C	0.0	0.0	0.0
F	-1.804852	-0.468865	-1.490269
H	1.092215	0.0	0.0
C	-0.309045	1.170447	-2.119942
N	-0.227123	2.193821	-2.689906
C	0.339143	-1.177184	-2.255304
H	0.099222	-2.172602	-1.890448
H	1.407332	-0.994738	-2.11436
H	0.072757	-1.093698	-3.310516
N	-0.434448	-1.203805	0.793844
O	-0.038672	-2.29203	0.392639
O	-1.125822	-1.02069	1.791145
C	-0.54524	1.199791	0.616584
N	-0.957445	2.189711	1.096
Cl	3.14785	0.0	0.0
