16

C	-0.433143	0.02471	-1.474969
C	0.0	0.0	0.0
F	-0.053589	-1.186529	-2.030185
H	1.092219	0.0	0.0
C	-1.898569	0.13004	-1.633363
N	-3.051103	0.255237	-1.820264
C	0.28464	1.147437	-2.198057
H	-0.044396	2.118505	-1.823563
H	0.062337	1.078542	-3.264395
H	1.357073	1.030446	-2.022825
N	-0.524334	-1.255295	0.641604
O	-1.69807	-1.23472	1.016002
O	0.24056	-2.210049	0.700928
C	-0.518596	1.161171	0.704
N	-0.912683	2.127038	1.244318
Cl	3.214455	0.0	0.0
