16

C	-0.433508	0.018935	-1.477631
C	0.0	0.0	0.0
F	-0.074254	-1.199271	-2.029719
H	1.092248	0.0	0.0
C	-1.898245	0.14365	-1.625647
N	-3.052941	0.273073	-1.799057
C	0.300539	1.127108	-2.206635
H	-0.013062	2.105881	-1.838514
H	1.370699	0.994487	-2.028937
H	0.079043	1.055869	-3.272863
N	-0.532123	-1.241972	0.652039
O	0.195171	-2.226011	0.639492
O	-1.677413	-1.187356	1.105828
C	-0.507341	1.17597	0.689524
N	-0.888781	2.154539	1.216182
Cl	3.203024	0.0	0.0
