16

C	-0.51831	-0.083128	-1.449368
C	0.0	0.0	0.0
F	-0.163168	1.134672	-2.022506
H	1.091914	0.0	0.0
C	0.144547	-1.139824	-2.232678
N	0.5496	-1.96203	-2.966783
C	-2.027029	-0.216769	-1.56213
H	-2.3568	-1.185439	-1.189801
H	-2.30855	-0.123317	-2.612405
H	-2.501451	0.586155	-0.994643
N	-0.39611	-1.19523	0.809941
O	-0.566338	-2.248716	0.198286
O	-0.455516	-1.057463	2.025896
C	-0.512448	1.202263	0.638268
N	-0.966854	2.167435	1.129971
Cl	3.105356	0.0	0.0
