16

C	-0.522251	-0.112216	-1.445634
C	0.0	0.0	0.0
F	-0.16958	1.093064	-2.045417
H	1.091769	0.0	0.0
C	0.139152	-1.184192	-2.208671
N	0.56233	-2.00845	-2.929994
C	-2.031251	-0.247533	-1.550042
H	-2.361796	-1.205182	-1.150508
H	-2.316552	-0.181852	-2.60139
H	-2.502701	0.57116	-1.002795
N	-0.392228	-1.180449	0.833988
O	-0.565653	-2.245573	0.2437
O	-0.446	-1.018548	2.047234
C	-0.511762	1.213488	0.616771
N	-0.951262	2.200935	1.07691
Cl	3.104885	0.0	0.0
