16

C	0.0	0.0	0.0
C	-0.2577	-0.093715	-1.560968
Cl	1.787545	0.0	0.0
H	0.491275	0.574838	-1.996761
C	-0.350437	1.376157	0.438564
N	-0.499454	2.470475	0.842176
N	-0.644422	-1.048378	0.689781
H	-1.687359	-0.805108	0.506754
H	-0.489533	-0.932798	1.688814
C	-1.593977	0.312826	-2.18628
H	-1.444821	0.335892	-3.273838
H	-1.888637	1.299944	-1.834516
H	-2.398498	-0.355693	-1.902925
C	0.106912	-1.445544	-1.997814
N	0.368647	-2.502755	-2.436152
H	-2.968013	0.0	0.0
