16

C	0.0	0.0	0.0
C	-0.526797	0.043717	-1.454128
Cl	1.792078	0.0	0.0
H	-1.626909	0.165486	-1.244243
C	-0.35548	1.276514	0.658115
N	-0.505476	2.314289	1.18857
N	-0.541365	-1.066683	0.783001
H	-1.576661	-0.888758	0.702866
H	-0.330409	-1.945621	0.321676
C	-0.296955	-1.252143	-2.225609
H	0.762686	-1.522138	-2.256531
H	-0.65557	-1.136337	-3.250957
H	-0.869279	-2.061266	-1.767462
C	-0.018074	1.187433	-2.196228
N	0.38419	2.08375	-2.842922
H	-2.904643	0.0	0.0
