16

C	0.0	0.0	0.0
C	-0.556829	0.196314	-1.41745
Cl	1.787881	0.0	0.0
H	-1.658794	0.276337	-1.183258
C	-0.333534	1.20327	0.809067
N	-0.522097	2.141354	1.492619
N	-0.563178	-1.204668	0.520917
H	-0.338967	-1.268829	1.510594
H	-1.601273	-1.003901	0.445106
C	-0.308962	-1.000615	-2.329692
H	0.759587	-1.176306	-2.478044
H	-0.755503	-1.886659	-1.882203
H	-0.773907	-0.818126	-3.301738
C	-0.090119	1.436825	-2.018154
N	0.252726	2.42907	-2.547972
H	-2.925817	0.0	0.0
