17

C	0.0	0.0	0.0
C	-0.540881	-0.061954	-1.434991
Br	1.928764	0.0	0.0
H	-1.621979	0.121692	-1.284874
N	-0.351369	1.449017	0.549585
O	-0.946286	2.247307	-0.155145
O	-0.034781	1.63208	1.724549
N	-0.586489	-0.974798	0.791611
H	-1.6364	-0.77841	0.627101
H	-0.324529	-0.829408	1.759679
N	-0.431023	-1.517828	-1.899299
O	0.591601	-1.828231	-2.518952
O	-1.360405	-2.279927	-1.669481
N	0.118932	0.816114	-2.337084
H	0.957383	0.374319	-2.689929
H	-0.499424	1.038633	-3.103599
F	-2.809212	0.0	0.0
