12
Coordinates from ORCA-job run
  C   -0.65444107551033     -0.13898040606787      0.15827990965750
  C   0.65864653736462      0.18640245103629     -0.06370232339883
  C   -1.65377250033999      0.77852264459033     -0.29013251185090
  N   -2.44921899465201      1.53981030139549     -0.70993851117519
  N   -1.10302137644861     -1.23411198386686      0.90281132297104
  H   -1.89438000403617     -1.70353020633241      0.48456146954274
  H   -0.36729250069112     -1.88811155174140      1.13701365705203
  C   1.65347888615358     -0.76846596329710      0.31039558757632
  N   2.44048397713412     -1.59689333210350      0.59805416500812
  N   1.12190335894321      1.42836084707888     -0.50783886457720
  H   0.38274021883168      2.04134214524412     -0.82701240424998
  H   1.86287347325102      1.35665505406405     -1.19149149655566
