12
Coordinates from ORCA-job run
  C   0.63157184296386      0.25355112748827      0.09072386035018
  C   -0.62972762580343     -0.25483955290680     -0.08826183532774
  C   1.60808376618926     -0.59430551600027      0.69491535723053
  N   2.37209807212251     -1.32697811660594      1.21264852411240
  N   1.08090696184959      1.49892587044469     -0.36003579769040
  H   0.33684980874667      2.09632081716638     -0.69732308114423
  H   1.65923639804842      1.98132679086578      0.31379664389547
  C   -1.60538287005566      0.59514228411885     -0.69185324288035
  N   -2.36729716014898      1.33010195004605     -1.20913742347028
  N   -1.07791022016579     -1.50080026241365      0.36036207745267
  H   -0.33153299941547     -2.10577029839589      0.67756334527873
  H   -1.67689597433097     -1.97267509380745     -0.30239842780699
