12
Coordinates from ORCA-job run
  C   -0.60505653750593     -0.31468988697983     -0.02219073362154
  C   0.61204290688619      0.31621518029910      0.01917497074245
  C   -1.32687691694717     -0.44389660236076      1.20320198161214
  N   -1.87525254601643     -0.53798638300208      2.24175398422688
  N   -1.25393130281497     -0.75776358686398     -1.17768086701522
  H   -1.72015399954315     -1.64714595838170     -1.06136503131765
  H   -0.66595324980225     -0.75355017414671     -2.00043200610404
  C   1.32982668933784      0.45059809090828     -1.20737729010660
  N   1.87267034104470      0.55039465492615     -2.24850852641011
  N   1.26542018920571      0.75577824123294      1.17591331064974
  H   0.68609924497489      0.71121474041591      2.00425034101534
  H   1.68216518118054      1.67083168395268      1.07225986632858
