12
Coordinates from ORCA-job run
  C   0.54393215868164      0.33794342018535      0.23835963708578
  C   -0.54986989130080     -0.33830732138774     -0.23819574531329
  C   1.26209500699038      1.16605447327172     -0.67656620569162
  N   1.83185967689761      1.82492994789922     -1.47003285322445
  N   0.96678891307251      0.36914490169208      1.57093161908355
  H   1.97103592441883      0.31837640294737      1.67100734505966
  H   0.50564952304395     -0.31545545262618      2.15575574285462
  C   -1.26731233536735     -1.16492309385281      0.67819272159968
  N   -1.83098370611766     -1.82183574020897      1.47750094192581
  N   -0.96937188333401     -0.37431335389735     -1.57265523245544
  H   -1.97193884626565     -0.29806111430579     -1.67482763035453
  H   -0.49188454071946      0.29744693028311     -2.15947034056976
