12
Coordinates from ORCA-job run
  C   0.63270456247413      0.24328841442533      0.11623350216618
  C   -0.62927997566274     -0.24232009820702     -0.11244302797479
  C   1.59403497635490     -0.65025927316359      0.67777835631928
  N   2.34470993605746     -1.42299110278488      1.15471289887861
  N   1.09751919606828      1.51177957946100     -0.24842524822170
  H   1.66797209693028      1.94494610630366      0.46470759943466
  H   0.36001476128100      2.13453972399938     -0.55199999219276
  C   -1.59173456216944      0.65048318803377     -0.67424940870076
  N   -2.34766926580249      1.41826108095029     -1.15115560606571
  N   -1.09214750171409     -1.51188744379842      0.24717319930773
  H   -0.35448241692251     -2.14275414046971      0.53240680716146
  H   -1.68264180689478     -1.93408603474980     -0.45573908011220
