12
Coordinates from ORCA-job run
  C   0.56933426240149      0.31883227394273      0.35150878844645
  C   -0.60208859897617     -0.21481854517682     -0.10923755106294
  C   0.63706491672456      0.91959401845527      1.64959787793367
  N   0.71782888986519      1.43372031338918      2.70537111614510
  N   1.74487293439191      0.21417500559721     -0.35704167394341
  H   2.42654704279260      0.93550992681466     -0.17917720850420
  H   1.57826496483719      0.01443140402688     -1.33610058655659
  C   -1.80079033613611     -0.16514764726105      0.65957795762435
  N   -2.83012958993792     -0.13695471134469      1.23373090146251
  N   -0.57952553266339     -0.82149884714113     -1.39896542238747
  H   -1.45603955077644     -0.67956642293495     -1.88436611511657
  H   -0.40633940252290     -1.81927676836729     -1.33489808404091
