12
Coordinates from ORCA-job run
  C   0.53786669011920      0.47606426742603      0.20930974617242
  C   -0.58174641165757     -0.22048171043532     -0.15036148689463
  C   0.47042140232058      1.88774998116736      0.43472487934275
  N   0.43946057536011      3.05309886651330      0.57243347564295
  N   1.73747734800408     -0.14524300869078      0.44490175953156
  H   1.76689008278334     -1.09221086306785      0.09306339387324
  H   2.56412335141720      0.40984039375646      0.29686664799894
  C   -1.84050244527988      0.41731083310378     -0.27935222539905
  N   -2.91180015639957      0.88491436840433     -0.40549136644068
  N   -0.43456091566960     -1.62579668725020     -0.35882606657471
  H   -0.86125494581753     -1.88928028469895     -1.23765131834942
  H   -0.88737457518034     -2.15496615622817      0.38138256109661
