12
Coordinates from ORCA-job run
  C   0.47341742357850      0.30974353160071      0.28344445662879
  C   -0.66817864345798     -0.34543817381304     -0.09514591882709
  C   0.61255690793995      0.91709879977617      1.56448478957244
  N   0.80285063866447      1.47296167944741      2.59697942157563
  N   1.55795071996010      0.35955281998462     -0.64886324684526
  H   1.97261519693456      1.27687810035828     -0.71761090231594
  H   2.30384803727538     -0.28072709150585     -0.36789900304571
  C   -1.78596184575910     -0.41844635827227      0.79668209719707
  N   -2.75324927188541     -0.39212612181056      1.48544281150668
  N   -0.77838289602668     -1.02005123862773     -1.28267023491640
  H   -1.70540680598549     -1.10764863370582     -1.67260645475810
  H   -0.03205946123830     -0.77179731343193     -1.94223781577210
