12
Coordinates from ORCA-job run
  C   0.58336011773014      0.30343628906846      0.06175723930031
  C   -0.65239510978913     -0.26502489788990     -0.07592998998510
  C   1.60617616449472     -0.46279597937482      0.70277548285826
  N   2.43845584862075     -1.11857358121546      1.22076011201822
  N   0.81596226173143      1.62319977723699     -0.41309114909304
  H   1.63266175217642      1.65922895890528     -1.00993232941738
  H   0.94880033532598      2.27402045854617      0.35162405110597
  C   -1.68321698327326      0.47326895472186     -0.75054772544338
  N   -2.56999152227867      1.00332211400011     -1.31299593945407
  N   -1.04078710511716     -1.46972891797540      0.46450410075276
  H   -0.29290039122359     -2.07329433294531      0.77618250926610
  H   -1.78612536839760     -1.94805884307799     -0.01610636190865
