12
Coordinates from ORCA-job run
  C   0.52526734406319      0.35009095317086      0.22117266844061
  C   -0.64294104712041     -0.29154220623981     -0.09360293798073
  C   1.54041695086763     -0.40303949868454      0.88321139676856
  N   2.35847874346421     -1.04663041596640      1.43757281475222
  N   0.72726177003813      1.71819873211196     -0.06443309524760
  H   0.83172931915493      1.91019821594504     -1.05149959054548
  H   1.50157063670137      2.10770320496699      0.45147069749092
  C   -1.66794440196701      0.45669493518784     -0.75483617912578
  N   -2.51206338219747      1.04826321906817     -1.32344309363628
  N   -0.95352846336156     -1.60557193621922      0.22451967602261
  H   -1.54030290291241     -2.07560099434641     -0.44787590855865
  H   -0.16694456673061     -2.16776420899447      0.51874355161961
