12
Coordinates from ORCA-job run
  C   -0.69686307019707      0.00837667713432      0.07642960167369
  C   0.62278259039753     -0.24324605178817     -0.17752647075855
  C   -1.68838941268395     -0.96814465373291     -0.21425553709376
  N   -2.51310014785228     -1.78057075986288     -0.43081615878796
  N   -1.09615910962043      1.26955345532513      0.54527278087905
  H   -2.02872498025722      1.26857511781559      0.93342565754696
  H   -0.44584936627289      1.62583438235345      1.23671749584255
  C   1.06124569843144     -1.54580035270166     -0.54851044913924
  N   1.48115578686709     -2.59786571029845     -0.87401023853689
  N   1.59687375482141      0.73405274560166      0.05362931521274
  H   1.25242642448964      1.66450822096250     -0.14749702174304
  H   2.45460183187672      0.56572692919142     -0.45285897509554
