12
Coordinates from ORCA-job run
  C   0.53520076726646      0.27267108819376      0.34305210522533
  C   -0.66329029846191     -0.19043684572636     -0.12424523826251
  C   0.68377127668631      0.68061913503090      1.69880740574044
  N   0.86336517225293      1.04667326699641      2.80465989794333
  N   1.68218098941889      0.22841786608202     -0.45678221913032
  H   2.40412172673346      0.86469687773187     -0.14964014993044
  H   1.46792237300605      0.39175840523044     -1.43263301860976
  C   -1.83705549931275     -0.09051280126398      0.67171790737725
  N   -2.80875284849597     -0.03202247897292      1.33461605783257
  N   -0.76401435101729     -0.68947868068830     -1.43215760776006
  H   0.04254885104566     -1.25532016811738     -1.67105415961132
  H   -1.60599815912184     -1.22606566449646     -1.58534098081452
