12
Coordinates from ORCA-job run
  C   -0.58401654338831     -0.24962822740047      0.11933193087568
  C   0.55858531201970      0.31655560541384     -0.37394249564229
  C   -1.74934411379552     -0.40638518016004     -0.68591593185994
  N   -2.75207970135527     -0.54967670444468     -1.28926359054250
  N   -0.56526028927877     -0.67781738960467      1.47994028819354
  H   -1.46045304224233     -0.51433562591404      1.92292204153536
  H   -0.35134123399680     -1.66728879116555      1.55063244688867
  C   0.62676720093427      0.75097173756358     -1.73694277955507
  N   0.70351051996636      1.13346683672845     -2.84753567282048
  N   1.71034236786311      0.40363564813462      0.37332468168302
  H   2.33908710422452      1.15092096333924      0.12267495462360
  H   1.52520241904902      0.31058112750972      1.36477412662042
