12
Coordinates from ORCA-job run
  C   0.55494620447574      0.34611056252586      0.34376453302180
  C   -0.59172690797614     -0.25618403277940     -0.09420726041226
  C   0.61030922410742      0.96357185193614      1.63371201152200
  N   0.69243441533479      1.46329732777070      2.69645228269497
  N   1.66056023682900      0.47495421282028     -0.46904311744756
  H   1.65131386854369     -0.20009949335234     -1.22482336383562
  H   2.54325139531335      0.55790623490309      0.01174955529752
  C   -1.75571075456314     -0.33470411500620      0.72338293386087
  N   -2.74376127075387     -0.45204789133201      1.35577000618904
  N   -0.57632258293398     -0.81511118018615     -1.40339194275014
  H   -0.85093769715490     -0.13291784760448     -2.10261705868286
  H   -1.19335613122198     -1.61377562969550     -1.47074857945774
