12
Coordinates from ORCA-job run
  C   0.56777334735531      0.30216882219886      0.36486367073340
  C   -0.59632437197085     -0.23782093157144     -0.10681022599163
  C   0.65711373709550      0.78788809459215      1.70818343906343
  N   0.76841293499169      1.17846499873052      2.81315962310155
  N   1.65957142444102      0.49769150216809     -0.45306018533898
  H   2.55241531128626      0.51621209175277      0.01577600764496
  H   1.62508165378189     -0.09550826757419     -1.27398002607120
  C   -1.74662972466629     -0.37779448128936      0.72207125730433
  N   -2.72814022126792     -0.54110840645972      1.35453126834159
  N   -0.61556392508570     -0.66448955077120     -1.46502332379707
  H   -0.90500739331723      0.08430173682685     -2.08577678122298
  H   -1.23970277264368     -1.45000560860334     -1.59493472376740
