12
Coordinates from ORCA-job run
  C   0.54105980258294      0.33228442977939      0.29859636074820
  C   -0.64774259208210     -0.19410733974606     -0.12037441914203
  C   0.62872587918915      0.88873400687998      1.61270871853842
  N   0.74628886468548      1.40098755816520      2.66629902294255
  N   1.75286703051793      0.19056974686490     -0.38421321535494
  H   2.40221852045305      0.94079202365242     -0.19271751679475
  H   1.66744861522325      0.05315007846092     -1.37914399818580
  C   -1.80856592076258     -0.08116897198668      0.70233836058766
  N   -2.80522048745966     -0.11028758768586      1.32779838317150
  N   -0.85445138763874     -0.78827662906302     -1.37104145612439
  H   -1.60115023830059     -1.46637222519846     -1.37117840700347
  H   -0.02047808640812     -1.16630509012273     -1.79007183338295
