12
Coordinates from ORCA-job run
  C   -0.63678409460032     -0.25363611489203     -0.04185416953304
  C   0.52209867431275      0.46883241304751     -0.01297292127042
  C   -1.81124594302644      0.30260769758502     -0.63206392032505
  N   -2.81333645292275      0.63167000957233     -1.15438093304613
  N   -0.80123031723092     -1.51137414290591      0.55098502973645
  H   -1.51616871965875     -2.06884135249666      0.10864860362276
  H   0.05403885658114     -2.03274458222669      0.65373574557575
  C   0.56887530688633      1.73264525338280     -0.68014031331491
  N   0.65074356278365      2.79901497768525     -1.17253085987429
  N   1.74654927245928     -0.01936552780844      0.45316095551265
  H   1.67887398830688     -0.75907962518963      1.13455289503627
  H   2.35758586610915      0.71027099424648      0.79285988787996
