12
Coordinates from ORCA-job run
  C   -0.56230077683869     -0.28828206077303     -0.15376666241486
  C   0.50574260326128      0.53607616970650      0.06685744053293
  C   -1.75578510851585      0.18038032022735     -0.77477937880776
  N   -2.76091121222527      0.49332162685079     -1.30545099902912
  N   -0.43230232242933     -1.64682719946058      0.25262655160072
  H   -0.96471831651269     -2.26303011374867     -0.34744912557792
  H   -0.74033660423171     -1.78018958612135      1.21022447988955
  C   0.44312423509797      1.92277789099675     -0.28257784927434
  N   0.42700690978371      3.06304376252089     -0.57490442109155
  N   1.63681976306683      0.09707662530678      0.71997737994734
  H   2.48409087265303      0.59900392023484      0.50235559297556
  H   1.71956995689071     -0.91235135574027      0.68688699124943
