12
Coordinates from ORCA-job run
  C   -0.56867418972092     -0.27331767090608     -0.16229796006264
  C   0.53078261036520      0.51129844553956      0.04981742594523
  C   -1.69698435086126      0.20188651395623     -0.89084144820143
  N   -2.65051774618076      0.52677583211163     -1.50321834204839
  N   -0.53894440276815     -1.59546543096613      0.36569502967479
  H   -1.07219699426010     -2.23341792650518     -0.21063038690106
  H   -0.90895808393798     -1.62693018541610      1.31012533128964
  C   0.56621947401105      1.86306191551502     -0.41956151303779
  N   0.63399535705959      2.97241943161090     -0.80769845319673
  N   1.59745500982891      0.07535461801214      0.80507881113524
  H   2.48251563293430      0.51209746977703      0.59781676796602
  H   1.62630768353011     -0.93576301272899      0.86571473743711
