12
Coordinates from ORCA-job run
  C   0.52468308892465      0.41883582226844      0.30827216507942
  C   -0.57096577799432     -0.30532119909983     -0.07194530700719
  C   0.52017969220668      1.16554762508422      1.52942887194601
  N   0.55509947870811      1.77603860085956      2.53541389681467
  N   1.62870211191068      0.54455481001108     -0.50630951719820
  H   2.49761623598098      0.73699242180564     -0.03199241437480
  H   1.67501976380891     -0.19878083472975     -1.19347205471597
  C   -1.73615802531392     -0.38250821479273      0.74418283035771
  N   -2.71962061332034     -0.50496566503471      1.38261259473949
  N   -0.49919376262766     -0.99287558078237     -1.31691440190902
  H   -1.04618265718019     -1.84372559396056     -1.29884040053440
  H   -0.82917953510359     -0.41279219162899     -2.08143626319772
