12
Coordinates from ORCA-job run
  C   -0.63133682891714     -0.24594019498177     -0.11902839280197
  C   0.59369060373412      0.27151554548031      0.21446825060796
  C   -1.56220295643647      0.61751612615669     -0.77440885838227
  N   -2.28332447443665      1.35117348013254     -1.34889591920584
  N   -1.10113468516254     -1.51273143147474      0.24018314043024
  H   -0.38635787866513     -2.10822355490864      0.63812360778829
  H   -1.59849036591137     -1.98008491231092     -0.50518473361117
  C   1.55545501367245     -0.61274270946036      0.79318993815128
  N   2.33497168738111     -1.38058505714672      1.23046190599381
  N   0.94507082426607      1.62313680741672      0.15690171774443
  H   1.87465083644835      1.77988424494640     -0.20739012419757
  H   0.26000822402721      2.19708165615049     -0.31742053251720
