12
Coordinates from ORCA-job run
  C   0.64598532562589      0.23302837501601      0.02169133141721
  C   -0.62833575587609     -0.25090463078124     -0.12383537813902
  C   1.66980696875082     -0.68899533171558      0.40061282346072
  N   2.47891650750180     -1.46994296190794      0.75268753835151
  N   1.06081876385884      1.52998437204781     -0.29358001779061
  H   1.69560986107820      1.92375811786612      0.38711808897752
  H   0.29486111007061      2.16008647747252     -0.49339789726673
  C   -1.66607004207059      0.68559209808993     -0.41989018071349
  N   -2.49703921682156      1.49577840639944     -0.62343870408586
  N   -0.98569649034481     -1.60244647976110     -0.13462003127785
  H   -1.83436245822508     -1.79507379779175      0.37916176043770
  H   -0.23449457354803     -2.21886464493420      0.14749066662890
