12
Coordinates from ORCA-job run
  C   -0.64263717424948     -0.26613878473479     -0.12858692274567
  C   0.57517148646827      0.30359638693017      0.11839718948807
  C   -1.69241465184840      0.55160767460698     -0.66935726093254
  N   -2.59959236249942      1.14593060642828     -1.12493387675548
  N   -0.99821497209620     -1.55829602005302      0.18433487339890
  H   -1.72476051506203     -1.96451231053391     -0.38344654514733
  H   -0.23547953372669     -2.18679016099124      0.39375259275058
  C   1.61796145292928     -0.53407462277486      0.62355200664401
  N   2.46781949368905     -1.24495696239901      1.02787104580368
  N   0.76892232943065      1.69299813727184     -0.11267447095118
  H   1.58776292260189      1.85832654277045     -0.68429040801685
  H   0.87546152436310      2.20230951347910      0.75638177646382
