12
Coordinates from ORCA-job run
  C   -0.60165462281693     -0.32184604673730     -0.07473233618590
  C   0.59983130041250      0.32274739432344      0.07331742959242
  C   -0.92164227815465     -1.34815365277242      0.86479994409477
  N   -1.12936857759415     -2.19818185003825      1.65377462477088
  N   -1.59263475307620      0.00487043591515     -1.00573390486234
  H   -1.27768106484586      0.65525304505296     -1.71404547786341
  H   -2.03060394927239     -0.80491898556791     -1.42225565296987
  C   0.92236482064843      1.34977313608481     -0.86445109303381
  N   1.13693704456312      2.20173545748738     -1.64975856062396
  N   1.59162939983339     -0.00383077625741      1.00398270646622
  H   2.02239999176788      0.80626045680604      1.42751444136747
  H   1.28142268853486     -0.66270861429650      1.70658787924753
