12
Coordinates from ORCA-job run
  C   -0.60219332642744     -0.26018479367944     -0.19975588310440
  C   0.60204832497340      0.26013438270250      0.20028881723431
  C   -1.52617527956623      0.62250048420783     -0.83650272142908
  N   -2.26010772058059      1.39288184868490     -1.34270063686177
  N   -0.97110541241312     -1.60753147494668     -0.13243365822990
  H   -0.33742269497461     -2.16972824370287      0.42078096631711
  H   -1.92923225271726     -1.74404845270993      0.15841385850306
  C   1.52659099231780     -0.62262986979584      0.83598929643477
  N   2.26127024486776     -1.39295225694672      1.34121984255072
  N   0.97088970711212      1.60752986450081      0.13294462073997
  H   1.92875231012076      1.74414479434992     -0.15873228633537
  H   0.33668510728743      2.16988371733551     -0.41951221581942
