12
Coordinates from ORCA-job run
  C   -0.57053615091708     -0.29489205329220     -0.15592615291855
  C   0.62163228365657      0.26642486020113      0.20812422777557
  C   -1.53432597160340      0.53776317540843     -0.80564624745821
  N   -2.31025860224320      1.23669395689225     -1.35390123792817
  N   -0.82606439555468     -1.66456347357588      0.12715137710768
  H   -1.13803386364365     -2.15732681055535     -0.70010733190580
  H   -1.52919336167696     -1.76963913116420      0.84866584707085
  C   1.61599201430932     -0.56335950421988      0.82914376509784
  N   2.48966353547371     -1.17512445500476      1.32526370436317
  N   0.93533460178954      1.60335385565016      0.11891720260929
  H   1.91502978385724      1.82078494278503      0.02928790422827
  H   0.33176012655260      2.15888463687525     -0.47097305804195
