12
Coordinates from ORCA-job run
  C   0.66621477220481      0.22577631707319      0.07627457328333
  C   -0.60027434314659     -0.26740370614689     -0.07090037073059
  C   1.69144228571959     -0.64138491965018      0.58605769272471
  N   2.58353989142097     -1.27793965635510      1.01345182810607
  N   1.08630310288210      1.47719800738739     -0.31262079585428
  H   1.87413324980752      1.85324706401377      0.19040732675181
  H   0.35499831570919      2.14882958824539     -0.49966700422155
  C   -1.61580635411116      0.62030587121914     -0.54521429480569
  N   -2.44273211045195      1.37170259307074     -0.92303959628569
  N   -0.87100004635083     -1.62998355717938      0.23162930512452
  H   -1.66067883699041     -1.71576625995992      0.85894202799515
  H   -1.06613992669322     -2.16458134171815     -0.60632069208779
