12
Coordinates from ORCA-job run
  C   -0.67018389536713     -0.23356295721438      0.20237924091813
  C   0.50693507686838      0.13229174986413     -0.38920922015544
  C   -1.70041348141782     -0.87594379437647     -0.55466535452814
  N   -2.57180121813044     -1.39056898389549     -1.15613343354941
  N   -0.86994817634821     -0.09496476067997      1.55992223496125
  H   -0.25094470423129      0.60048189385148      1.96047587949353
  H   -1.83348033501928     -0.01420767566121      1.84699908378434
  C   0.73835357317900     -0.06452206948593     -1.78088596470242
  N   0.98581881960824     -0.18013177409598     -2.92777577449998
  N   1.49685018805789      0.72988414290348      0.43930995875141
  H   2.08754816537268      1.36177409324950     -0.08464536455002
  H   2.08126598742797      0.03047013554086      0.88522871407675
