12
Coordinates from ORCA-job run
  C   0.66738361728802      0.22151543376111      0.08470014142990
  C   -0.60096270963158     -0.26180070039448     -0.07696371127143
  C   1.67463631855390     -0.64843076074087      0.62441400892536
  N   2.55202359149856     -1.28836864159082      1.07663972856069
  N   1.10631509607226      1.46311086433611     -0.31393452609598
  H   1.89071688225758      1.83756639675841      0.19563617784563
  H   0.38560045827974      2.13980140787843     -0.52253991697014
  C   -1.60017973346231      0.62558965598365     -0.58487756667683
  N   -2.41637244941713      1.37215437290051     -0.99458870135927
  N   -0.88945649212047     -1.61731671472977      0.24134757719930
  H   -1.68647557267710     -1.68562307700211      0.86161975644191
  H   -1.08322900664147     -2.16019823716017     -0.59145296802914
