12
Coordinates from ORCA-job run
  C   -0.72338553783462      0.00185724932082     -0.15303829330584
  C   0.54731649867165     -0.05688206104308      0.34794719405320
  C   -1.85078319904263     -0.30573433941792      0.67328433421703
  N   -2.79997483545874     -0.53568280269431      1.33063881275793
  N   -0.96527381742918      0.25339798542145     -1.48624409170988
  H   -0.18016356981507      0.71596567197768     -1.92963014740888
  H   -1.86594637617226      0.65735752670138     -1.69324269325106
  C   0.80123634342625     -0.37897137123582      1.71227040840097
  N   1.08170637725253     -0.61662363673428      2.83253823426510
  N   1.61643252430946      0.22859670345758     -0.54792141644763
  H   1.93875545685252     -0.60937777434108     -1.02063991853538
  H   2.40008013524009      0.64709684858758     -0.06396242303557
