12
Coordinates from ORCA-job run
  C   0.58675880122123      0.25448597698133      0.14744942698879
  C   -0.65990048348140     -0.26650416035330     -0.07752306737437
  C   1.65847180509465     -0.62896581989768      0.46731843002178
  N   2.55179333612747     -1.34520759817340      0.74632789754232
  N   0.86574456569502      1.62837971934015      0.06905139193280
  H   1.84218720728037      1.84678468741771      0.14462205920979
  H   0.44514664499219      2.08660229338629     -0.72546049366305
  C   -1.70227908956539      0.66667561796241     -0.36780726056581
  N   -2.52033647297978      1.48757908257480     -0.57263887998109
  N   -0.96303436449387     -1.62558941464207     -0.19129552227356
  H   -1.86438455147398     -1.87298231728846      0.19048614067760
  H   -0.24016739841652     -2.23125806730777      0.17046987748479
