12
Coordinates from ORCA-job run
  C   -0.64914432944120     -0.20780697623357     -0.08851648324628
  C   0.66563949078391      0.17160443282786     -0.00672673295248
  C   -1.58977628230610      0.74931223913426     -0.57908163600186
  N   -2.33969847122316      1.57828680851561     -0.95184174745019
  N   -1.13609693674853     -1.49806343143232      0.14206285342208
  H   -0.44972295117115     -2.11899946972843      0.55092682216611
  H   -2.00107059010532     -1.51004040669623      0.66485220839950
  C   1.59291764514991     -0.75722714819112      0.55783095842035
  N   2.31816554911682     -1.53634063029151      1.06312209206149
  N   1.20607039194056      1.34246946922041     -0.54616777611488
  H   0.50490659394389      1.99643023498451     -0.86974371464969
  H   1.87580989006037      1.79137487789054      0.06328315594585
