12
Coordinates from ORCA-job run
  C   0.63787685460096      0.26440292498091      0.15341596938592
  C   -0.58360009565545     -0.29231805875690     -0.10497817998335
  C   1.65882561024030     -0.55227219673165      0.74812854246645
  N   2.55480075245992     -1.15578265314864      1.21369168337378
  N   0.96424259191635      1.59014149174407     -0.01986810761589
  H   1.93926959761159      1.78454054886129     -0.18407542261283
  H   0.33166623696819      2.12827321863359     -0.59528391098830
  C   -1.57635420059831      0.52701862850159     -0.72761932436420
  N   -2.37723949829837      1.21492575817995     -1.25334659596888
  N   -0.84030365742676     -1.64226491408794      0.25964238567100
  H   -1.49392838852563     -1.70031706029742      1.03127192387537
  H   -1.21725580329281     -2.16634768787885     -0.51997896323909
