12
Coordinates from ORCA-job run
  C   0.57845515674763      0.30819400841830      0.08545881080677
  C   -0.63712476286819     -0.27955275189699     -0.12845141925704
  C   1.64070651882728     -0.50889581283954      0.58400259179877
  N   2.50040975202388     -1.19627387467932      1.00768760223781
  N   0.76063102854894      1.68835681815571     -0.20277208272201
  H   1.35692306436658      1.82342836705590     -1.01029248472805
  H   1.17049140266854      2.17558299007539      0.58408346956444
  C   -1.72541099949472      0.53231295667745     -0.59686687538135
  N   -2.67246729963576      1.12852428556096     -0.95925744259293
  N   -0.90273941567792     -1.62594647033685     -0.02422127022075
  H   -1.85621472405851     -1.87032924505689      0.19122022422514
  H   -0.21265972144775     -2.17440127113412      0.46940887626921
