12
Coordinates from ORCA-job run
  C   0.59426668841348      0.28570453683728      0.03017354181541
  C   -0.65939001910122     -0.25170073722604     -0.05981033070285
  C   1.69938883556280     -0.60763949399341      0.18886385268642
  N   2.59804846426050     -1.35793156065687      0.33274732650344
  N   0.77034031903194      1.69428104028284     -0.04821824847044
  H   1.22497121191281      1.96387808185930     -0.91225753854066
  H   1.32286254923377      2.03812212924569      0.72702450262240
  C   -1.78388357071266      0.63369038401962     -0.18079798142011
  N   -2.75762303980329      1.28877726652555     -0.26006765565363
  N   -0.94914332601578     -1.59476800241453     -0.13903552721691
  H   -1.85764008723677     -1.86968305613910      0.19905025537622
  H   -0.20219802554558     -2.22273058834033      0.12232780300070
