12
Coordinates from ORCA-job run
  C   0.64398185998780      0.23630892393238      0.01095011926697
  C   -0.64365890942012     -0.23494222931063     -0.01019953070138
  C   1.67286420401446     -0.66663826422087      0.41633263690549
  N   2.48320477273917     -1.44434649455010      0.77251134406584
  N   1.05810477310697      1.49829087288249     -0.42799229785632
  H   0.29003285241913      2.13469961064852     -0.59795927028429
  H   1.75373628691352      1.91911709342236      0.17237555833427
  C   -1.67323908838472      0.66632184868366     -0.41738896110754
  N   -2.48571165264249      1.44050208655077     -0.77652977019839
  N   -1.05744060094151     -1.49699780871292      0.42884063035034
  H   -0.28940929193050     -2.13340083798946      0.59899928572214
  H   -1.75346520586170     -1.91791480133619     -0.17093974449714
