12
Coordinates from ORCA-job run
  C   -0.56602536718132     -0.29928186108299     -0.16289705920765
  C   0.61783247645025      0.27071069170325      0.21434898591264
  C   -1.54450410401245      0.53500320989835     -0.78810805629443
  N   -2.33388589928088      1.23482465459632     -1.31566100799836
  N   -0.79949398356513     -1.67993012719228      0.08330804312903
  H   -1.10630919940551     -2.15466339744918     -0.75632487599495
  H   -1.49928551109298     -1.81529753215391      0.80306018573809
  C   1.62740549859466     -0.55999696575569      0.80901389171643
  N   2.51323130515401     -1.17185821749795      1.28305946953911
  N   0.90972346238016      1.61477425377176      0.16271135999059
  H   0.29459622730653      2.17746254513895     -0.40791246869985
  H   1.88571509465265      1.84925274602338      0.07340153216935
