12
Coordinates from ORCA-job run
  C   -0.63611235681151     -0.25514862937612     -0.17648558890411
  C   0.58523499015714      0.28103283904400      0.12260599471256
  C   -1.60183374604528      0.56075652786485     -0.85821725085223
  N   -2.45600168641053      1.16562392931331     -1.39516505410617
  N   -1.00782991787341     -1.56313405968219      0.03502161189511
  H   -0.42098672417202     -2.09209462930303      0.66470546455999
  H   -1.99499595180634     -1.72651548717857      0.15383716619291
  C   1.52158753759243     -0.53345009430574      0.83239194736590
  N   2.27629632074710     -1.21403770786801      1.43103371252624
  N   0.89696255585008      1.60742414969510     -0.28422420227182
  H   1.59486047911637      1.61535120641155     -1.01839267956767
  H   1.24281849965597      2.15619195538487      0.49288887844928
