12
Coordinates from ORCA-job run
  C   0.65157217373620      0.21813628250594     -0.01438689765508
  C   -0.63829647793101     -0.24097793374238     -0.08644774713411
  C   1.66661961091609     -0.70733748015449      0.37863124952234
  N   2.46693147263858     -1.49115351054818      0.74416958254292
  N   1.08418732319957      1.48479347160644     -0.41820334557721
  H   1.75695312085306      1.89705647618641      0.21347504042701
  H   0.32455669382830      2.12324528894724     -0.61706585191050
  C   -1.66426041973621      0.70264751978663     -0.39987246858803
  N   -2.48393113599254      1.51934763643135     -0.62254705214529
  N   -1.02628340187584     -1.58174178245633     -0.00779039807247
  H   -0.27880116753416     -2.19958739328472      0.28120454044478
  H   -1.85824779210205     -1.72542857527790      0.54783334814565
