12
Coordinates from ORCA-job run
  C   -0.72654159690066     -0.16522515629956     -0.06402359559088
  C   0.51957039723696      0.38894283811581      0.02230206732323
  C   -1.77302162087997      0.45677478424298     -0.82441915510412
  N   -2.65924615082094      0.83974024785652     -1.49505404229602
  N   -1.06404278229799     -1.32547569877525      0.57918873406207
  H   -0.26893976341958     -1.82269735568472      0.95581374275026
  H   -1.80230801388760     -1.87863442716932      0.17836917877272
  C   0.82772780066032      1.66522638042601     -0.53361391613104
  N   1.19491704703418      2.71978794390456     -0.91485078250964
  N   1.52933533133280     -0.37045534521642      0.69157917403804
  H   2.00649432300018      0.19865310025063      1.37958736226810
  H   2.21705502894233     -0.70763731165125      0.02612123241728
