12
Coordinates from ORCA-job run
  C   0.49408099272161      0.26663984628999      0.32504540939422
  C   -0.72082345509832     -0.12071695187271     -0.16727823455719
  C   0.65633496189674      0.78620604530497      1.64172215830168
  N   0.91504436756449      1.25967980082895      2.69117473365314
  N   1.62614522649205      0.12199336882968     -0.53757216214286
  H   2.22428972264388     -0.62965804092140     -0.21133542107280
  H   2.16986116184752      0.97553672376465     -0.55769126624365
  C   -1.89160766530579     -0.14767370396981      0.66219559856571
  N   -2.87610966055332     -0.28879134077936      1.28881097380574
  N   -0.90065549539009     -0.48568946342746     -1.47377217431432
  H   -0.03426043619273     -0.63141302510480     -1.97266709282594
  H   -1.66229972062603     -1.10611325894271     -1.68863252256374
