16

C	0.0	0.0	0.0
C	-0.509244	-0.138101	-1.433247
F	1.393094	0.0	0.0
H	-1.605082	-0.202102	-1.34786
H	-0.329515	0.974638	0.373236
C	-0.478628	-1.103488	0.910835
H	-0.105272	-0.931056	1.923418
H	-0.102711	-2.067605	0.559997
H	-1.569792	-1.103588	0.919763
C	-0.00397	-1.373774	-2.035108
N	0.426763	-2.343957	-2.538207
C	-0.12778	1.068062	-2.294096
H	-0.483308	0.942977	-3.318947
H	-0.598412	1.96157	-1.877158
H	0.955785	1.205094	-2.309434
Cl	-3.722601	0.0	0.0
