16

C	0.0	0.0	0.0
C	-0.368153	-0.339992	-1.45277
F	1.395941	0.0	0.0
H	0.207446	-1.245226	-1.688543
H	-0.322933	1.016255	0.243807
C	-0.537952	-0.987272	1.002269
H	-0.260205	-2.007763	0.724774
H	-0.124268	-0.768792	1.98928
H	-1.62731	-0.907452	1.050665
C	0.150632	0.722291	-2.322986
N	0.550214	1.602764	-2.989514
C	-1.852452	-0.590676	-1.713681
H	-2.189374	-1.485366	-1.19203
H	-2.023138	-0.731827	-2.783125
H	-2.492957	0.215074	-1.357877
Cl	-4.692872	0.0	0.0
