16

C	0.0	0.0	0.0
C	-0.398357	0.012954	-1.508178
F	1.395859	0.0	0.0
H	0.564695	-0.010308	-2.033898
H	-0.311858	0.9342	0.471576
C	-0.496016	-1.174182	0.805348
H	-0.088623	-1.105581	1.816287
H	-1.587951	-1.144428	0.850248
H	-0.167358	-2.117527	0.365334
C	-1.017624	1.284523	-1.895789
N	-1.479977	2.283524	-2.305196
C	-1.252893	-1.159077	-2.005138
H	-1.435571	-1.043033	-3.075944
H	-2.211612	-1.170091	-1.486696
H	-0.729741	-2.104661	-1.853569
Cl	-3.938434	0.0	0.0
