13
Coordinates from ORCA-job run
  C   0.86332592247040     -0.42700319270342      0.69211553161118
  C   -0.56996921385608     -0.09591470667300      0.30717232880754
  Cl  1.25192287954395      0.39034537458254      2.22227505845039
  H   -1.26826595948372     -0.45028920457971      1.06464589894756
  H   0.89304505340413     -1.50092176454364      0.88716093965720
  C   1.83744431866662     -0.12180763827950     -0.34987591688310
  N   2.65574709398810      0.04536448697728     -1.17550545064184
  N   -0.91088220101864     -0.80964273243877     -0.98260985353881
  O   -1.29513072189305     -0.14256327755270     -1.93087978897535
  O   -0.76242906652177     -2.02434782209165     -0.92668242154946
  N   -0.82622788584975      1.36330557596247      0.11690958118936
  O   0.08255738918107      2.03564002381445     -0.35360378426177
  O   -1.95213760863128      1.73783487752565      0.42887787718708
