13
Coordinates from ORCA-job run
  C   0.84992045041357     -0.56156930001882      0.51947077693830
  C   -0.23522719715544     -0.08185486153556     -0.43948176382112
  Cl  0.34306942903658     -0.58717419028509      2.21857308064660
  H   0.08710195244428     -0.24497848497208     -1.46944349358132
  H   1.06695015598143     -1.59635186898758      0.24629545746472
  C   2.04552535062733      0.25439959384821      0.33609916489655
  N   3.00786351737031      0.90604752139998      0.16483547597281
  N   -0.53318877792732      1.37751352040542     -0.31433771595763
  O   -0.34461300843989      2.04094720097274     -1.33100620929128
  O   -0.91747775569891      1.77664923975808      0.77708619489411
  N   -1.49649853129799     -0.89060061297213     -0.25841484556692
  O   -2.56325572343032     -0.29655724518240     -0.25964315619291
  O   -1.30916986192363     -2.09847051243076     -0.19103296640190
