13
Coordinates from ORCA-job run
  C   0.86821314566432     -0.58079126299035      0.46869451102684
  C   -0.25125330838053     -0.06633032503142     -0.43072090184923
  Cl  0.42930731501128     -0.65671063349100      2.18487643289638
  H   0.03089144951618     -0.19384523165022     -1.47745076381937
  H   1.06929934843637     -1.60724663796579      0.15496877643301
  C   2.05899252391938      0.23703624880578      0.26254738502428
  N   3.01278665019695      0.89558331202247      0.07131539183236
  N   -0.54058134338410      1.38785394861577     -0.24327376984114
  O   -0.89839923665530      1.74589342036543      0.87150007699644
  O   -0.37580924676114      2.08906781519617     -1.23860452926174
  N   -1.50810687217983     -0.87840223886146     -0.23226992097046
  O   -2.57349523828099     -0.28321677881631     -0.19389773783645
  O   -1.32184518710259     -2.08789163619908     -0.19868495063095
