13
Coordinates from ORCA-job run
  C   0.80278160209207     -0.37147416421805      0.69893735073584
  C   -0.19513356921449     -0.12338584248336     -0.42855880794850
  Cl  0.28218385614296      0.36028485559363      2.23011273943832
  H   0.25148850701020     -0.31671285638441     -1.40481110514723
  H   0.84713290869657     -1.45045946239959      0.86435134786484
  C   2.12533019016496      0.11538828649148      0.31980489217101
  N   3.20238318330912      0.46778926720676      0.01137505766219
  N   -0.64967363374120      1.31290208029946     -0.44021442522474
  O   0.18769903592227      2.09270980108899     -0.87663934116623
  O   -1.75552330722959      1.56796383794440      0.01122695781765
  N   -1.40706014186223     -1.00585346252936     -0.33588210919338
  O   -1.52594423115990     -1.73112059921324      0.64462757495240
  O   -2.16566440013077     -0.91803174139670     -1.29333013196217
