14

C	-0.315934	-0.094667	-1.486468
C	0.0	0.0	0.0
Cl	-2.081136	-0.602458	-1.732312
H	1.093661	0.0	0.0
H	-0.331876	0.928016	-1.866687
N	0.577832	-0.943241	-2.183871
H	1.390305	-1.136122	-1.600098
H	0.887137	-0.498823	-3.035679
N	-0.355753	-1.201059	0.761367
O	-0.002247	-2.271178	0.264827
O	-0.886717	-1.071453	1.869406
C	-0.546442	1.192422	0.603761
N	-0.892066	2.218574	1.062727
H	2.496428	0.0	0.0
