14

C	-0.426867	-0.111644	-1.44908
C	0.0	0.0	0.0
Cl	0.261934	1.351284	-2.329912
H	1.095194	0.0	0.0
H	0.088663	-0.960284	-1.892183
N	-1.834912	-0.232694	-1.595263
H	-2.093008	-0.311556	-2.570748
H	-2.297252	0.578123	-1.201425
N	-0.316464	-1.217663	0.72939
O	-0.160033	-2.282295	0.115923
O	-0.545234	-1.133886	1.945654
C	-0.551171	1.160892	0.656997
N	-0.984003	2.148342	1.129914
H	2.401747	0.0	0.0
