14

C	-0.353074	0.09288	-1.497711
C	0.0	0.0	0.0
Cl	-0.072296	-1.517892	-2.242569
H	1.09191	0.0	0.0
H	-1.411946	0.310204	-1.65072
N	0.478254	1.070437	-2.137411
H	1.431616	0.948932	-1.780526
H	0.15534	1.997833	-1.885928
N	-0.624887	-1.185519	0.655602
O	0.104786	-2.000336	1.208475
O	-1.854108	-1.263162	0.57676
C	-0.492378	1.195129	0.659673
N	-0.861669	2.196227	1.154619
H	2.667479	0.0	0.0
