14

C	-0.29656	-0.09022	-1.489824
C	0.0	0.0	0.0
Cl	-2.083977	-0.499627	-1.764542
H	1.09364	0.0	0.0
H	-0.243955	0.931464	-1.876027
N	0.55956	-1.000685	-2.156871
H	0.86545	-0.610348	-3.034657
H	1.375265	-1.184598	-1.574858
N	-0.387812	-1.197025	0.753632
O	-1.033488	-1.066355	1.799756
O	0.039465	-2.265203	0.31167
C	-0.544106	1.199022	0.594731
N	-0.904064	2.218032	1.058002
H	2.507718	0.0	0.0
