14

C	-0.403584	-0.02622	-1.460299
C	0.0	0.0	0.0
Cl	0.277043	1.503623	-2.22925
H	1.091682	0.0	0.0
H	0.137417	-0.83403	-1.947633
N	-1.804635	-0.160246	-1.642645
H	-2.292009	0.616639	-1.212129
H	-2.038334	-0.18684	-2.628205
N	-0.318817	-1.264517	0.644648
O	-0.584622	-1.260502	1.855026
O	-0.131388	-2.285746	-0.03007
C	-0.567915	1.114061	0.719875
N	-1.034433	2.054713	1.25161
H	2.405619	0.0	0.0
