15

C	0.011361	-0.019037	0.013662
C	-0.556015	-0.354492	-1.376798
Cl	1.832886	0.088816	-0.121306
H	-1.645558	-0.262128	-1.292882
H	-0.205143	0.430835	-2.054089
C	-0.523874	1.299426	0.538378
H	-0.261329	2.093602	-0.164224
H	-0.10066	1.532845	1.517089
H	-1.615731	1.22663	0.592697
C	-0.245724	-1.119903	0.942989
N	-0.436152	-2.028324	1.663332
N	-0.212913	-1.653573	-1.919787
H	-0.708141	-2.374413	-1.409811
H	0.781027	-1.826071	-1.829067
Br	-4.03338	0.483388	-0.330097
