15

C	-0.000683	-0.018694	0.018938
C	-0.575151	-0.48577	-1.330345
Cl	1.821509	0.049781	-0.12655
H	-0.218308	0.224684	-2.082982
H	-1.663454	-0.374447	-1.254161
C	-0.517268	1.353412	0.407348
H	-1.610335	1.303222	0.462793
H	-0.238223	2.070121	-0.368396
H	-0.093672	1.675785	1.360361
C	-0.271633	-1.016381	1.054829
N	-0.470639	-1.844514	1.86414
N	-0.246578	-1.835932	-1.741265
H	0.746185	-2.007902	-1.63775
H	-0.745702	-2.497454	-1.159737
Br	-4.039526	0.509445	-0.367676
