15

C	0.007405	-0.028506	0.001464
C	-0.560287	0.292848	-1.392266
Cl	1.82979	0.114471	-0.076197
H	-0.200546	1.293806	-1.65164
H	-1.649161	0.347987	-1.274503
C	-0.518347	0.923452	1.058676
H	-1.6108	0.84262	1.076955
H	-0.246698	1.944927	0.78272
H	-0.094979	0.69311	2.038094
C	-0.259006	-1.425362	0.347136
N	-0.456024	-2.55453	0.605013
N	-0.227859	-0.63409	-2.455455
H	0.76413	-0.83854	-2.452827
H	-0.731486	-1.501378	-2.31734
Br	-4.031883	0.580042	-0.068693
