14

C	0.0	0.0	0.0
C	-0.209779	-0.190181	-1.509919
Br	1.944546	0.0	0.0
H	0.053412	-1.216709	-1.748848
H	0.432514	0.517196	-2.032797
C	-0.501483	1.237345	0.547291
N	-0.59347	2.333534	0.981042
N	-0.404943	-1.171899	0.83406
O	-0.402546	-2.276238	0.284975
O	-0.487918	-0.979327	2.047377
N	-1.567675	0.055178	-2.085731
O	-2.214244	-0.920382	-2.465657
O	-1.868169	1.231129	-2.28953
H	-1.868862	0.0	0.0
