14

C	0.0	0.0	0.0
C	-0.195893	-0.379258	-1.481634
Br	1.944702	0.0	0.0
H	0.350881	0.347895	-2.080749
H	0.19629	-1.383343	-1.617595
C	-0.566378	1.268643	0.386479
N	-0.632464	2.408937	0.702587
N	-0.390665	-1.083885	0.958856
O	-0.494347	-0.763976	2.14247
O	-0.365069	-2.239069	0.529306
N	-1.575942	-0.387342	-2.056013
O	-1.9712	0.674053	-2.540583
O	-2.160856	-1.467833	-2.138267
H	-1.887792	0.0	0.0
