14

C	0.0	0.0	0.0
C	-0.295839	0.100379	-1.51048
Br	1.927151	0.0	0.0
H	-1.37606	0.041201	-1.648438
H	0.230986	-0.692873	-2.028778
C	-0.555896	1.01342	0.871917
N	-0.565503	1.883278	1.675281
N	-0.440227	-1.360346	0.481898
O	-0.462685	-1.524223	1.700238
O	-0.48762	-2.260272	-0.362668
N	0.151302	1.384666	-2.104156
O	0.824177	1.327203	-3.134586
O	-0.253728	2.421602	-1.584397
H	-2.09649	0.0	0.0
