14

C	0.0	0.0	0.0
C	-0.203748	0.135808	-1.518746
Br	1.940218	0.0	0.0
H	0.136639	-0.789309	-1.978419
H	0.381942	0.990492	-1.858621
C	-0.520152	1.088626	0.790742
N	-0.612471	2.07808	1.433127
N	-0.401867	-1.325567	0.558244
O	-0.484343	-1.403904	1.78455
O	-0.397673	-2.281105	-0.221277
N	-1.579584	0.393569	-2.053685
O	-1.94113	1.569152	-2.089979
O	-2.181833	-0.551661	-2.55947
H	-1.874422	0.0	0.0
