14

C	0.0	0.0	0.0
C	-0.286452	-0.027506	-1.512318
Br	1.953416	0.0	0.0
H	-1.361631	0.049383	-1.671069
H	0.113604	-0.94481	-1.931031
C	-0.552245	1.099254	0.76703
N	-0.62826	2.057913	1.456873
N	-0.414084	-1.306083	0.627134
O	-0.433697	-2.296167	-0.109955
O	-0.462713	-1.332343	1.855949
N	0.335869	1.098785	-2.256405
O	0.230656	2.228663	-1.787096
O	0.827334	0.829872	-3.354243
H	-2.061817	0.0	0.0
