18

C	-0.432662	-0.007132	-1.464807
C	0.0	0.0	0.0
F	-1.818021	0.029396	-1.576827
H	1.090159	0.0	0.0
C	0.136602	1.177377	-2.225486
H	-0.105384	1.044141	-3.284546
H	1.222025	1.192695	-2.100864
H	-0.29162	2.116047	-1.88132
N	-0.009161	-1.290135	-1.970104
H	0.968121	-1.449394	-1.730591
H	-0.093945	-1.283002	-2.981826
N	-0.517972	-1.213887	0.697884
O	-1.680582	-1.162595	1.097029
O	0.237575	-2.173434	0.787629
N	-0.458532	1.15531	0.822674
O	-1.087325	2.070978	0.29599
O	-0.139534	1.098204	2.006846
Br	3.376018	0.0	0.0
