18

C	-0.405971	-0.007477	-1.488969
C	0.0	0.0	0.0
F	-1.732335	-0.412385	-1.586784
H	1.089204	0.0	0.0
C	-0.279153	1.392468	-2.052406
H	0.726274	1.783507	-1.87889
H	-1.013817	2.057382	-1.597235
H	-0.467501	1.328824	-3.124635
N	0.386468	-0.915416	-2.269267
H	0.354897	-1.826835	-1.828182
H	1.355869	-0.610015	-2.221761
N	-0.435409	-1.214754	0.753153
O	-0.385136	-2.285592	0.155182
O	-0.741268	-1.07644	1.931254
N	-0.553641	1.185032	0.706802
O	0.242213	2.043814	1.078461
O	-1.779057	1.246665	0.80578
Br	3.361908	0.0	0.0
