13

C	-0.433036	-0.024157	-1.458644
C	0.0	0.0	0.0
Cl	-2.219173	-0.054443	-1.627799
H	1.093307	0.0	0.0
H	-0.07028	-0.97349	-1.861456
C	0.120016	1.046794	-2.283422
N	0.522201	1.831547	-3.059046
C	-0.481337	-1.177028	0.705729
N	-0.851403	-2.145451	1.257613
N	-0.434747	1.238286	0.723854
O	-0.52065	1.162788	1.944162
O	-0.607205	2.245196	0.046228
Br	3.252128	0.0	0.0
