13

C	-0.428857	-0.086305	-1.467188
C	0.0	0.0	0.0
Cl	0.027069	-1.681515	-2.11315
H	1.093509	0.0	0.0
H	0.140012	0.659419	-2.022405
C	-1.861808	0.133384	-1.64921
N	-3.016603	0.291723	-1.792449
C	-0.560987	-1.049131	0.830131
N	-1.016817	-1.899767	1.499959
N	-0.374936	1.347109	0.553214
O	-0.464078	2.266592	-0.259396
O	-0.492546	1.443587	1.767014
Br	3.267633	0.0	0.0
