13

C	-0.433681	-0.012553	-1.457475
C	0.0	0.0	0.0
Cl	-2.220376	0.004801	-1.620353
H	1.094644	0.0	0.0
H	-0.097256	-0.970004	-1.862403
C	0.145399	1.042043	-2.285548
N	0.567961	1.814034	-3.062797
C	-0.483638	-1.182668	0.695029
N	-0.850831	-2.172348	1.210327
N	-0.439112	1.235212	0.723986
O	-0.507325	2.267693	0.064954
O	-0.638655	1.133752	1.92925
Br	3.257044	0.0	0.0
