13

C	-0.422992	-0.01593	-1.463722
C	0.0	0.0	0.0
Cl	-2.211727	0.027023	-1.630097
H	1.094469	0.0	0.0
H	-0.098856	-0.980047	-1.863908
C	0.16558	1.031118	-2.294216
N	0.622632	1.791299	-3.063372
C	-0.492919	-1.182819	0.686937
N	-0.860614	-2.173963	1.198685
N	-0.456596	1.240717	0.702573
O	-0.866596	1.127659	1.852825
O	-0.341	2.287509	0.076434
Br	3.254903	0.0	0.0
