13

C	-0.43126	-0.015607	-1.459743
C	0.0	0.0	0.0
Cl	-2.219034	-0.014336	-1.624922
H	1.094645	0.0	0.0
H	-0.085749	-0.971473	-1.862356
C	0.136194	1.047129	-2.286134
N	0.522727	1.841531	-3.060575
C	-0.485461	-1.182682	0.693788
N	-0.864353	-2.172404	1.20048
N	-0.438843	1.234242	0.727026
O	-0.529253	2.262065	0.063584
O	-0.612769	1.135389	1.936398
Br	3.252166	0.0	0.0
