13

C	-0.434284	0.02395	-1.46719
C	0.0	0.0	0.0
Cl	0.068138	-1.495289	-2.247352
H	1.094533	0.0	0.0
H	0.102731	0.835296	-1.958544
C	-1.8771	0.207126	-1.620433
N	-3.038936	0.34598	-1.728624
C	-0.556861	-1.11441	0.746
N	-1.007213	-2.03901	1.314001
N	-0.387996	1.30102	0.649574
O	-0.533585	1.30325	1.86441
O	-0.460299	2.278379	-0.090777
Br	3.2808	0.0	0.0
