13

C	-0.544714	-0.033563	-1.429833
C	0.0	0.0	0.0
Cl	0.340681	1.105361	-2.471243
H	1.09151	0.0	0.0
H	-1.58772	0.289563	-1.425333
C	-0.461937	-1.37986	-1.990521
N	-0.450648	-2.453317	-2.468096
C	-0.514118	-1.109129	0.790802
N	-0.954231	-2.00684	1.408793
N	-0.432402	1.270033	0.698191
O	-1.185635	2.037286	0.101993
O	0.009065	1.424615	1.828626
Br	3.293362	0.0	0.0
