13

C	-0.533412	-0.053015	-1.432515
C	0.0	0.0	0.0
Cl	0.181451	1.263957	-2.393106
H	1.091603	0.0	0.0
H	-1.612179	0.111178	-1.42312
C	-0.247352	-1.343827	-2.050717
N	-0.087288	-2.385011	-2.570366
C	-0.529344	-1.108058	0.783617
N	-0.981508	-1.998351	1.403697
N	-0.490491	1.269562	0.663233
O	0.207783	1.719042	1.561782
O	-1.56905	1.724632	0.280396
Br	3.321689	0.0	0.0
