19

C	-0.431303	0.000609	-1.465601
C	0.0	0.0	0.0
Br	0.383939	-1.451657	-2.46513
H	1.095508	0.0	0.0
N	-1.988976	-0.280464	-1.490365
O	-2.413963	-1.426471	-1.418094
O	-2.693045	0.732106	-1.492987
N	-0.133057	1.206211	-2.131546
H	-0.631301	1.977691	-1.710382
H	-0.346293	1.152082	-3.11879
C	-0.469445	-1.225741	0.777208
H	-0.241326	-2.152204	0.249436
H	0.067217	-1.245799	1.728353
H	-1.543928	-1.202528	0.98671
C	-0.433569	1.28522	0.710068
H	0.07516	2.156988	0.294646
H	-1.517278	1.440486	0.682417
H	-0.125137	1.214767	1.755531
Cl	3.449337	0.0	0.0
