19

C	-0.455669	0.089592	-1.454824
C	0.0	0.0	0.0
Br	0.413704	-1.239228	-2.573494
H	1.094547	0.0	0.0
N	-1.998251	-0.266672	-1.474659
O	-2.368159	-1.432276	-1.522487
O	-2.749109	0.705126	-1.350043
N	-0.233964	1.357422	-2.031779
H	-0.484923	1.365577	-3.011795
H	-0.759568	2.064822	-1.536207
C	-0.449254	-1.280995	0.698791
H	-1.518693	-1.276591	0.934382
H	0.110137	-1.366244	1.633071
H	-0.231038	-2.166591	0.101315
C	-0.432394	1.227975	0.805323
H	-1.518444	1.368291	0.813668
H	0.055618	2.132831	0.438501
H	-0.096998	1.089742	1.835573
Cl	3.462896	0.0	0.0
