19

C	-0.543485	-0.006817	-1.420135
C	0.0	0.0	0.0
Br	0.434045	1.37185	-2.524112
H	1.091896	0.0	0.0
N	-0.20827	-1.29778	-2.175241
O	-0.981166	-1.620577	-3.07881
O	0.807001	-1.893639	-1.852919
N	-1.945096	0.142664	-1.488714
H	-2.26292	0.045576	-2.44475
H	-2.211484	1.046782	-1.122931
C	-0.489618	-1.231151	0.76819
H	-0.062138	-2.14856	0.364155
H	-1.581065	-1.301255	0.757398
H	-0.150936	-1.148422	1.804116
C	-0.444844	1.272154	0.724035
H	-1.518881	1.265731	0.947268
H	-0.194297	2.171059	0.156595
H	0.092039	1.329409	1.673735
Cl	3.50757	0.0	0.0
