19

C	-0.555664	0.077571	-1.418304
C	0.0	0.0	0.0
Br	0.366399	1.404141	-2.509558
H	1.092985	0.0	0.0
N	-0.249255	-1.289747	-2.108903
O	-1.230826	-1.998497	-2.349239
O	0.91553	-1.594559	-2.297315
N	-1.941299	0.369571	-1.451006
H	-2.435482	-0.308165	-0.883549
H	-2.294417	0.306198	-2.397673
C	-0.437669	-1.291856	0.697523
H	-0.035507	-2.177584	0.20239
H	-0.027676	-1.281008	1.709826
H	-1.526826	-1.393951	0.779175
C	-0.434444	1.223502	0.805903
H	-1.507844	1.222978	1.014371
H	0.114254	1.224213	1.750859
H	-0.187309	2.146315	0.279037
Cl	3.483167	0.0	0.0
