19

C	-0.318363	-0.052305	-1.494924
C	0.0	0.0	0.0
Br	-2.21626	-0.445615	-1.844972
H	1.098631	0.0	0.0
N	-0.035632	1.34398	-2.08193
O	-0.912929	2.200093	-2.03771
O	1.109958	1.509422	-2.481375
N	0.467877	-0.973292	-2.26099
H	0.169782	-1.915202	-2.042339
H	1.440708	-0.860796	-1.967147
C	-0.434487	-1.276333	0.713704
H	0.054814	-1.307203	1.690108
H	-0.12549	-2.173901	0.173488
H	-1.517635	-1.310184	0.860266
C	-0.508178	1.234196	0.73074
H	-0.046169	2.147578	0.354325
H	-1.595161	1.334352	0.65197
H	-0.239368	1.148124	1.786936
Cl	3.400164	0.0	0.0
