19

C	-0.365709	-0.009009	-1.466325
C	0.0	0.0	0.0
Br	-2.414756	0.577994	-1.675994
H	1.095983	0.0	0.0
N	0.295399	1.094116	-2.301328
O	0.728013	2.075699	-1.720199
O	0.323745	0.907236	-3.514784
N	-0.126288	-1.189936	-2.122729
H	-0.563191	-1.992696	-1.701462
H	-0.255997	-1.127177	-3.122107
C	-0.439513	-1.306477	0.661254
H	-1.514303	-1.483648	0.534422
H	0.130674	-2.159485	0.286866
H	-0.232623	-1.239063	1.731257
C	-0.498794	1.185118	0.820741
H	-1.55752	1.075107	1.070236
H	0.081797	1.210545	1.746703
H	-0.352228	2.133583	0.311461
Cl	3.401711	0.0	0.0
