13

C	-0.409781	0.011177	-1.490382
C	0.0	0.0	0.0
F	0.081236	-1.127828	-2.076151
H	1.097453	0.0	0.0
C	-1.87878	0.01291	-1.646834
N	-3.047584	0.004744	-1.767969
C	0.13966	1.196402	-2.172093
N	0.501096	2.155672	-2.745781
C	-0.502484	-1.211677	0.639379
N	-0.904559	-2.191402	1.147849
C	-0.496737	1.200079	0.663926
N	-0.903289	2.173758	1.180968
Br	3.249574	0.0	0.0
