13

C	-0.409633	0.008551	-1.490322
C	0.0	0.0	0.0
F	0.081514	-1.131408	-2.074158
H	1.097464	0.0	0.0
C	-1.87865	0.009905	-1.646767
N	-3.047452	0.001494	-1.767989
C	0.139866	1.192091	-2.174993
N	0.504681	2.142309	-2.761415
C	-0.502539	-1.210335	0.641829
N	-0.90554	-2.186977	1.155459
C	-0.49598	1.201566	0.661695
N	-0.894767	2.178846	1.177959
Br	3.249592	0.0	0.0
