16
Coordinates from ORCA-job run
  C   -0.52059082512173      0.16727967927201     -0.40186178524517
  C   0.42089229070347     -0.68429287786360      0.45930796177394
  H   -0.47601847924616     -0.21702891513971     -1.42967093052131
  H   0.05418288455260     -1.71782521686385      0.46314063663736
  H   0.35786460473248     -0.32781662334078      1.49618155720239
  N   -0.16821740135391      1.58660173502859     -0.48012175696871
  H   0.74420468756090      1.70224371478273     -0.90392043772322
  H   -0.11645200286669      1.97241285761109      0.45749436747490
  C   -1.95740610100309      0.05642487688901      0.08971040540379
  H   -2.29502112234623     -0.98293544884241      0.10351187516028
  H   -2.04092525645965      0.44961212482703      1.10874425105040
  H   -2.62038462610752      0.63827603234540     -0.55229847868127
  C   1.87197221886543     -0.66355034926295     -0.01022250945567
  H   2.30416271612449      0.33687337991189      0.06491242339744
  H   1.94921725637393     -0.98758685142247     -1.05238003658872
  H   2.49351915559170     -1.33068811793197      0.59147245708355
