16
Coordinates from ORCA-job run
  C   -0.32678443223393      0.30149397658825     -0.56976371589626
  C   1.05174293834724      0.03766305748995      0.02991939490940
  H   -0.44510181413959     -0.35834755948203     -1.43932057115358
  H   1.20345633353615      0.72864780843812      0.87058941026949
  H   1.79189655831781      0.30552262001084     -0.72960608836269
  N   -0.33962679736454      1.67324069890898     -1.08808757159332
  H   -0.26082627394167      2.31919239235838     -0.30861123968118
  H   -1.23172871938153      1.86112226487900     -1.53288690036816
  C   -1.45758806995318      0.00921941850584      0.41721199322212
  H   -2.42483751109240      0.26770113195509     -0.02342082741855
  H   -1.49743906688073     -1.04384528571075      0.70696256245473
  H   -1.33019211489530      0.60893228676209      1.32524377512127
  C   1.26993314071899     -1.39805613818481      0.49772438099937
  H   0.63834172006015     -1.65106603048621      1.35163011808309
  H   1.04988925538190     -2.10718994629667     -0.30558926481065
  H   2.30786485352061     -1.55423069573608      0.80100454422492
