16
Coordinates from ORCA-job run
  C   -0.48048315996873      0.22776850437331     -0.66481885662347
  C   0.64912364233786     -0.79806626766129     -0.54429453381809
  H   -0.92849421731467      0.09052965256051     -1.65658236507591
  H   0.21942778602056     -1.80417022866710     -0.61522157843885
  H   1.30496899430372     -0.66495406515957     -1.40988537432498
  N   0.08846934465672      1.58053812045721     -0.66024781847724
  H   0.33757131654942      1.83720928596174      0.28897441454915
  H   -0.61807016924204      2.24308219869755     -0.95976181343532
  C   -1.57905564184436      0.02008442335523      0.37977291037000
  H   -2.40484863769246      0.71665970814103      0.20894899228885
  H   -1.98275553554210     -0.99671510957044      0.34606291548494
  H   -1.19956512765846      0.20040951243630      1.38953452470066
  C   1.47916769460750     -0.68134498083206      0.73142339131185
  H   1.97165095064424      0.29185389305623      0.79154120324173
  H   2.26570959699274     -1.43961750218543      0.74625453508373
  H   0.87718316315006     -0.82226714496323      1.63229945316294
