15

C	-0.396927	-0.004081	-1.505147
C	0.0	0.0	0.0
Br	-2.316045	0.094874	-1.750564
H	1.095903	0.0	0.0
C	0.246103	1.076523	-2.238522
N	0.774406	1.968269	-2.796709
N	0.150852	-1.337379	-2.058928
O	1.37284	-1.38989	-2.057642
O	-0.626527	-2.230457	-2.35657
N	-0.459196	-1.1168	0.769176
H	0.018398	-1.974608	0.51471
H	-1.461942	-1.242889	0.721249
C	-0.480111	1.320285	0.427859
N	-0.818558	2.220839	1.168891
Br	2.657969	0.0	0.0
