15

C	-0.44484	-0.04977	-1.46078
C	0.0	0.0	0.0
Br	-0.075205	1.614274	-2.386296
H	1.095423	0.0	0.0
C	0.194029	-1.15186	-2.166588
N	0.675402	-2.050643	-2.751464
N	-1.966364	-0.275889	-1.56443
O	-2.637082	0.059488	-0.59737
O	-2.387435	-0.739535	-2.615276
N	-0.415813	-1.248916	0.616401
H	-1.239841	-1.131613	1.189702
H	0.351141	-1.607048	1.171906
C	-0.451442	1.20552	0.697749
N	-0.793855	2.131746	1.334494
Br	3.338854	0.0	0.0
