15

C	-0.438562	0.007906	-1.468431
C	0.0	0.0	0.0
Br	0.381676	-1.45737	-2.445716
H	1.092402	0.0	0.0
C	-1.883613	-0.092976	-1.58971
N	-3.05482	-0.215212	-1.585942
N	0.026373	1.31137	-2.140416
O	1.158004	1.669614	-1.863281
O	-0.752521	1.855613	-2.91285
N	-0.489004	-1.197987	0.636858
H	0.065259	-1.40157	1.460627
H	-1.461374	-1.105812	0.911115
C	-0.4674	1.246607	0.611383
N	-0.878293	2.221855	1.134807
Br	2.751587	0.0	0.0
