19
Coordinates from ORCA-job run
  C   0.71989709670457     -0.52702187071464     -0.14421482252021
  C   -0.51278196719511      0.40111025405520     -0.06136072398588
  Cl  0.28438420100027     -2.13901157337969      0.55399064322701
  H   -0.16798261095586      1.33184031343449     -0.53796179430177
  N   1.18285424506081     -0.79414527792363     -1.49449637301905
  H   1.45634342157121      0.08156696299526     -1.92901777401239
  H   0.44745644746834     -1.21198343744399     -2.05058094582821
  C   1.90158805095290      0.00910123860477      0.64764480102426
  H   2.75972536583385     -0.64016869173302      0.47507811325695
  H   2.14683403076960      1.02035086872953      0.30458276664389
  H   1.69280971507584      0.04362176895836      1.71537748747151
  C   -0.93740061511190      0.73818518517006      1.36709089598327
  H   -1.80809882007578      1.39877133347223      1.34833279868152
  H   -0.15189647981102      1.25034758279501      1.92448084261047
  H   -1.21419413776873     -0.16651420318491      1.91280504154660
  C   -1.71235864136805     -0.10823700659758     -0.85801449984105
  H   -2.51064213449224      0.63765118772601     -0.83751623746642
  H   -2.10365971825031     -1.03190590762383     -0.42711915307306
  H   -1.47187744940840     -0.29155872733963     -1.90710106639745
