19
Coordinates from ORCA-job run
  C   0.71484381711975     -0.40631281594103     -0.18453273480115
  C   -0.55208227069965      0.45051429108193     -0.03711861720019
  Cl  0.38344700432593     -2.06978140801742      0.59921252318387
  H   -0.24866720802542      1.42427384099250     -0.44459129768045
  N   1.05189083616209     -0.55234382851604     -1.55901939054520
  H   1.91807667366321     -1.06710474335931     -1.66171430624052
  H   0.33074381605641     -1.04534422321576     -2.06875128741247
  C   1.91070258925938      0.16118643364489      0.55989728786511
  H   1.74458613599535      0.18089897625484      1.63468025100040
  H   2.10756765894477      1.17381837193204      0.19878801204088
  H   2.79319247147078     -0.45511778841290      0.37291547944353
  C   -0.99431833293398      0.65714049844448      1.40971793828633
  H   -0.20303072467289      1.07736744729679      2.03230815482675
  H   -1.32408331861795     -0.28113981762467      1.85896472373645
  H   -1.83311747685974      1.35740806773236      1.43431146818447
  C   -1.71935249718391     -0.06175397605391     -0.88012802028318
  H   -2.59954442160650      0.56199063607693     -0.70779886497183
  H   -1.97760222753065     -1.08813468380399     -0.60912987964515
  H   -1.50525252486696     -0.01856527851173     -1.95001143978765
