15

C	0.0	0.0	0.0
C	-0.556384	-0.347513	-1.435185
Br	1.921985	0.0	0.0
H	0.323136	-0.407249	-2.083345
H	-0.353092	-0.691316	0.758661
N	-0.389906	1.37172	0.478776
O	-0.097583	2.327745	-0.234959
O	-0.955365	1.432479	1.564792
N	-1.478014	0.572358	-2.052694
H	-2.352814	0.594995	-1.526126
H	-1.088455	1.502999	-2.098332
N	-1.114071	-1.682494	-1.287156
H	-2.003548	-1.56842	-0.795618
H	-1.359144	-2.000868	-2.219068
Br	-4.109128	0.0	0.0
