15

C	0.0	0.0	0.0
C	-0.575927	-0.071537	-1.430479
Br	1.926645	0.0	0.0
H	-0.276487	-1.073134	-1.76817
H	-0.332157	-0.850274	0.592505
N	-0.448835	1.208098	0.77749
O	-0.616896	1.050814	1.981502
O	-0.588688	2.265337	0.165441
N	0.068646	0.891602	-2.311734
H	-0.438193	0.82585	-3.186744
H	-0.107405	1.818281	-1.94271
N	-2.008748	-0.006584	-1.498417
H	-2.521702	-0.742822	-1.024972
H	-2.404047	0.86046	-1.154997
Br	-4.966594	0.0	0.0
