15

C	0.0	0.0	0.0
C	-0.543143	-0.605086	-1.354692
Br	1.928285	0.0	0.0
H	0.344451	-0.829321	-1.951083
H	-0.347805	-0.55925	0.862979
N	-0.388621	1.430114	0.253256
O	-0.145509	2.252941	-0.625868
O	-0.886119	1.676452	1.346585
N	-1.41566	0.205809	-2.16794
H	-2.303382	0.33528	-1.680038
H	-1.003229	1.109553	-2.359437
N	-1.153798	-1.863785	-0.961562
H	-2.038502	-1.629382	-0.505132
H	-1.409232	-2.34097	-1.819818
Br	-4.021575	0.0	0.0
