12

C	-0.459471	0.008952	-1.454374
C	0.0	0.0	0.0
Br	0.362167	-1.557337	-2.372294
H	1.093066	0.0	0.0
H	-0.340275	-0.926091	0.47299
C	-1.904145	-0.151841	-1.599325
N	-3.069611	-0.286933	-1.684913
C	-0.032807	1.218158	-2.161053
N	0.28833	2.175749	-2.763353
C	-0.514656	1.153878	0.709723
N	-0.89226	2.097883	1.302095
H	2.591175	0.0	0.0
