12

C	-0.424762	0.235275	-1.446343
C	0.0	0.0	0.0
Br	0.268525	1.985174	-2.073123
H	1.104312	0.0	0.0
H	-0.298267	-1.013392	0.290105
C	0.129785	-0.805621	-2.318735
N	0.498325	-1.653031	-3.045977
C	-1.875299	0.274253	-1.627981
N	-3.045618	0.279167	-1.753533
C	-0.572543	0.972496	0.905274
N	-0.994112	1.763443	1.667374
H	2.573592	0.0	0.0
