12

C	-0.476104	0.047527	-1.44777
C	0.0	0.0	0.0
Br	0.316056	-1.504014	-2.414623
H	1.105188	0.0	0.0
H	-0.338275	-0.938242	0.450298
C	-1.925514	-0.09595	-1.5671
N	-3.093983	-0.220638	-1.607237
C	-0.045355	1.264952	-2.135932
N	0.252732	2.239966	-2.721008
C	-0.492141	1.132301	0.757287
N	-0.822049	2.051618	1.414898
H	2.568953	0.0	0.0
