12

C	-0.444471	0.009841	-1.440946
C	0.0	0.0	0.0
Br	-2.456172	0.172779	-1.648125
H	1.095153	0.0	0.0
H	-0.300142	0.934531	0.481455
C	0.103371	1.1712	-2.141919
N	0.537015	2.102496	-2.713403
C	-0.079257	-1.219864	-2.14064
N	0.205168	-2.207436	-2.711279
C	-0.51849	-1.137854	0.727304
N	-0.897555	-2.06979	1.336351
H	2.557569	0.0	0.0
