12

C	-0.448094	0.025763	-1.439208
C	0.0	0.0	0.0
Br	-2.461187	0.201858	-1.63838
H	1.095784	0.0	0.0
H	-0.298971	0.929483	0.492149
C	0.10349	1.190236	-2.131736
N	0.542551	2.123095	-2.69635
C	-0.093187	-1.19953	-2.152173
N	0.178045	-2.185267	-2.732535
C	-0.517823	-1.144816	0.717066
N	-0.897055	-2.081928	1.317989
H	2.554505	0.0	0.0
