12

C	-0.445564	-0.013011	-1.441095
C	0.0	0.0	0.0
Br	-2.454695	-0.186138	-1.645645
H	1.095333	0.0	0.0
H	-0.300159	-0.933872	0.482846
C	-0.087054	1.21887	-2.140591
N	0.185249	2.210617	-2.709561
C	0.10885	-1.171073	-2.142275
N	0.524034	-2.110878	-2.713356
C	-0.51991	1.138791	0.725067
N	-0.902211	2.070385	1.332734
H	2.560652	0.0	0.0
