12

C	-0.420075	0.224636	-1.449632
C	0.0	0.0	0.0
Br	0.239289	1.98672	-2.0754
H	1.10405	0.0	0.0
H	-0.297045	-1.01236	0.29444
C	0.163001	-0.805728	-2.316171
N	0.557275	-1.644014	-3.039828
C	-1.869243	0.230911	-1.642905
N	-3.03613	0.195412	-1.788314
C	-0.574617	0.977146	0.898849
N	-0.993122	1.773754	1.656665
H	2.574605	0.0	0.0
