12

C	-0.444342	-0.185445	-1.447526
C	0.0	0.0	0.0
Br	0.318968	-1.898069	-2.111952
H	1.103383	0.0	0.0
H	-0.352299	-0.847513	0.59438
C	-1.893955	-0.297992	-1.599188
N	-3.063864	-0.366194	-1.703683
C	0.043342	0.8909	-2.313533
N	0.374331	1.755876	-3.037594
C	-0.499177	1.249852	0.535962
N	-0.848327	2.281246	0.982593
H	2.578619	0.0	0.0
