12

C	-0.475738	0.149392	-1.437806
C	0.0	0.0	0.0
Br	0.44147	1.73548	-2.24378
H	1.106824	0.0	0.0
H	-0.323495	0.876961	0.569636
C	-0.14776	-1.016822	-2.258167
N	0.064496	-1.951082	-2.940109
C	-1.906015	0.428068	-1.54225
N	-3.059613	0.655584	-1.593689
C	-0.514807	-1.212364	0.599762
N	-0.884247	-2.207634	1.10825
H	2.558323	0.0	0.0
