12

C	-0.251836	0.1296	-0.008118
C	-0.671204	-0.141838	-1.434961
Cl	1.323528	-0.577577	0.366802
H	-1.677682	0.252996	-1.571911
H	-1.017884	-0.319053	0.640067
H	-0.757926	-1.225215	-1.533825
N	-0.223498	1.610035	0.295827
O	0.305397	1.965456	1.341734
O	-0.806211	2.34781	-0.496589
C	0.251184	0.399303	-2.430206
N	0.991537	0.808176	-3.243732
Cl	-2.985929	-1.444459	0.460937
