12

C	-0.118651	0.024429	0.005753
C	-0.538923	0.12849	-1.44428
Cl	1.633505	-0.276007	0.171376
H	-0.062264	0.991691	-1.910931
H	-0.675482	-0.740212	0.540479
H	-1.627983	0.251129	-1.427915
N	-0.398196	1.318875	0.730199
O	-0.420492	1.254359	1.951293
O	-0.529639	2.336691	0.056557
C	-0.198699	-1.08127	-2.183832
N	0.077768	-2.034785	-2.809341
Cl	-3.24439	-0.495771	0.258968
