12

C	-0.254801	0.12528	0.037036
C	-0.680351	0.349071	-1.396063
Cl	1.3247	-0.659727	0.145565
H	-0.764275	-0.637661	-1.854671
H	-1.015968	-0.519388	0.498801
H	-1.688432	0.762981	-1.388181
N	-0.229274	1.416757	0.822112
O	0.303884	1.401216	1.924605
O	-0.817777	2.376025	0.326882
C	0.235521	1.197635	-2.154576
N	0.971288	1.858444	-2.78633
Cl	-2.980811	-1.528269	-0.041331
