18

C	0.0	0.0	0.0
C	-0.253429	0.051617	-1.552356
Br	1.949318	0.0	0.0
H	0.242878	0.978946	-1.867551
C	-0.260922	1.29073	0.798003
H	0.310319	1.243677	1.724258
H	-1.317465	1.406594	1.04046
H	0.084372	2.15074	0.214633
N	-0.688362	-1.14297	0.613046
O	-0.69964	-1.165613	1.870797
O	-0.752886	-2.184506	-0.094027
C	-1.677496	0.063543	-2.144348
H	-1.572219	0.074522	-3.24163
H	-2.212961	-0.837045	-1.847591
H	-2.24045	0.941182	-1.833096
C	0.460051	-1.023261	-2.26677
N	0.961662	-1.787039	-3.007474
H	-1.948244	0.0	0.0
