18

C	0.0	0.0	0.0
C	-0.270426	-0.016752	-1.524075
Br	1.949764	0.0	0.0
H	0.403929	-0.767876	-1.94928
C	-0.248363	1.256283	0.838871
H	0.249946	1.129864	1.79779
H	-1.313591	1.41394	1.00536
H	0.183929	2.121524	0.332775
N	-0.559461	-1.199782	0.621692
O	-0.53425	-1.231543	1.868169
O	-0.584836	-2.226283	-0.093243
C	-0.01716	1.346064	-2.18631
H	1.003346	1.682336	-2.025576
H	-0.18679	1.237806	-3.264084
H	-0.717938	2.101042	-1.808303
C	-1.622403	-0.452972	-1.926324
N	-2.584957	-0.899581	-2.440968
H	-1.996001	0.0	0.0
