18

C	0.0	0.0	0.0
C	-0.636845	-0.091358	-1.380185
Br	1.938964	0.0	0.0
H	-1.759965	-0.087475	-1.053808
C	-0.485773	1.239368	0.71645
H	-0.089919	1.285267	1.728665
H	-0.174212	2.12359	0.159934
H	-1.58525	1.153153	0.726763
N	-0.370007	-1.22497	0.852356
O	-0.435124	-2.311955	0.290494
O	-0.500431	-1.049718	2.056933
C	-0.299519	-1.275717	-2.292423
H	-0.582069	-1.024775	-3.317836
H	0.772382	-1.494697	-2.278922
H	-0.844239	-2.164056	-1.985039
C	-0.336794	1.139212	-2.094485
N	-0.091909	2.102787	-2.72538
H	-3.029351	0.0	0.0
