14

C	-0.275704	-0.023558	-1.494662
C	0.0	0.0	0.0
Br	-2.205666	-0.28009	-1.927973
H	1.095128	0.0	0.0
C	0.096257	1.278552	-2.053126
N	0.366865	2.322241	-2.521746
C	0.47537	-1.058516	-2.210199
N	1.042335	-1.828713	-2.893578
N	-0.411496	-1.241717	0.677295
O	-0.610344	-1.182217	1.888441
O	-0.449766	-2.266839	-0.002412
C	-0.553171	1.159198	0.652613
N	-0.972385	2.125821	1.175817
F	2.389257	0.0	0.0
