14

C	-0.468347	-0.001947	-1.465368
C	0.0	0.0	0.0
Br	-2.425444	-0.203635	-1.702858
H	1.095096	0.0	0.0
C	-0.114193	1.284902	-2.062379
N	0.184839	2.320979	-2.531256
C	0.152464	-1.072813	-2.244297
N	0.65931	-1.895392	-2.913947
N	-0.440279	-1.289643	0.649585
O	0.135186	-2.293454	0.242582
O	-1.214605	-1.217359	1.614703
C	-0.531752	1.136276	0.722523
N	-0.918183	2.08368	1.302221
F	2.463707	0.0	0.0
