14

C	-0.430861	0.024243	-1.472376
C	0.0	0.0	0.0
Br	0.23793	-1.60382	-2.349254
H	1.092263	0.0	0.0
C	-1.875341	0.097664	-1.716375
N	-3.019878	0.206687	-1.960821
C	0.201078	1.172798	-2.123596
N	0.668106	2.086493	-2.696353
N	-0.519616	-1.24632	0.659658
O	-1.717635	-1.500601	0.522702
O	0.282493	-1.922823	1.291871
C	-0.547284	1.144286	0.695905
N	-0.960043	2.090014	1.261604
F	2.44005	0.0	0.0
