15

C	-0.401003	-0.03703	-1.473721
C	0.0	0.0	0.0
Br	-2.349524	-0.249443	-1.659622
H	1.094541	0.0	0.0
H	-0.206226	0.969714	-1.848352
C	0.343451	-1.048468	-2.324082
H	0.033543	-2.066105	-2.100388
H	1.411846	-0.949282	-2.108386
H	0.15837	-0.837762	-3.379775
N	-0.430216	-1.219692	0.759418
O	-1.031254	-1.062123	1.817947
O	-0.118515	-2.300549	0.269956
C	-0.503382	1.195285	0.661985
N	-0.878061	2.204107	1.131714
Br	3.349304	0.0	0.0
