15

C	-0.50276	-0.001987	-1.44718
C	0.0	0.0	0.0
Br	0.12732	1.612756	-2.332609
H	1.092214	0.0	0.0
H	-0.000763	-0.823598	-1.959458
C	-2.013963	-0.088694	-1.550368
H	-2.479514	0.770876	-1.062845
H	-2.325943	-0.104254	-2.595883
H	-2.373637	-1.003473	-1.069199
N	-0.434642	-1.314387	0.591628
O	0.029768	-2.314465	0.05308
O	-1.285688	-1.322074	1.458218
C	-0.54356	1.107686	0.777393
N	-0.962373	2.034562	1.370497
Br	3.316154	0.0	0.0
