15

C	-0.559621	0.001654	-1.412882
C	0.0	0.0	0.0
Br	0.167036	-1.548417	-2.365486
H	1.092126	0.0	0.0
H	-1.637002	-0.172622	-1.386298
C	-0.211191	1.274733	-2.16593
H	-0.667627	2.134818	-1.667967
H	-0.591007	1.226056	-3.188373
H	0.869984	1.420207	-2.201648
N	-0.427775	-1.256584	0.725125
O	0.46018	-1.932158	1.230644
O	-1.630025	-1.51703	0.736646
C	-0.514154	1.126849	0.749542
N	-0.934296	2.06408	1.331326
Br	2.752156	0.0	0.0
