15

C	-0.505566	0.009843	-1.442518
C	0.0	0.0	0.0
Br	0.071034	1.681029	-2.27008
H	1.092191	0.0	0.0
H	0.028461	-0.773736	-1.977654
C	-2.010844	-0.129556	-1.571225
H	-2.305674	-0.101352	-2.621631
H	-2.330889	-1.086543	-1.150873
H	-2.520601	0.682933	-1.048774
N	-0.358579	-1.319616	0.640918
O	-0.296606	-2.309382	-0.084641
O	-0.624498	-1.330051	1.838055
C	-0.545385	1.083839	0.80281
N	-0.981046	1.974977	1.432169
Br	3.326249	0.0	0.0
