16
Coordinates from ORCA-job run
  C   0.46310745118439     -0.51045129395448      0.02041413804550
  C   -0.97302423266670     -0.07423188552216     -0.33745584370269
  Cl  0.89103966486761     -1.84469454653782     -1.16487680360589
  H   -1.60263153936450     -0.97782127757043     -0.28193976233408
  C   1.47328824109782      0.60423050513397     -0.14566674904990
  H   1.48450442044444      0.96111300024267     -1.17518560025606
  H   2.47268185644016      0.23746852045440      0.09943008784358
  H   1.20669039006765      1.42722439853518      0.51717467768331
  N   0.43976844043636     -0.98351304799818      1.36789881717644
  H   -0.06271766757786     -1.86157508771494      1.43549147357606
  H   1.37937826236408     -1.12725660968127      1.71690517931382
  C   -1.05185803462991      0.41727329543450     -1.71744266193447
  N   -1.15391191377960      0.81113670562878     -2.81820183670972
  N   -1.36357904116069      0.99575824937182      0.57101515871446
  H   -2.32003066208597      1.27643849061316      0.39265744798936
  H   -1.28470563563727      0.64690058356480      1.51878227725031
