16
Coordinates from ORCA-job run
  C   0.49562449743391     -0.52479398981916      0.03907301497422
  C   -0.97868957999440     -0.18998036320379     -0.28127161291320
  Cl  0.93618705595010     -1.83165787567632     -1.20694579708711
  H   -1.50846221834774     -1.14173251645056     -0.39114616260407
  C   1.46098208898878      0.62112561014183     -0.20312519218659
  H   1.20157162249180      1.46115127054039      0.44621122158280
  H   1.45066063693329      0.94184572205737     -1.24382580368557
  H   2.47444371213041      0.30174678393929      0.04801531589267
  N   0.59518497720873     -0.97520155387544      1.37350070955565
  H   1.50466863306651     -1.37543860454626      1.56353405327792
  H   -0.13499564521803     -1.62808815519047      1.62555110941203
  C   -1.06374722081394      0.50506832156637     -1.58155558102013
  N   -1.18946094263722      1.12040240367251     -2.57443803660118
  N   -1.60578832639375      0.53427548828272      0.81543443739731
  H   -2.54741473864263      0.79898731323821      0.54945079366383
  H   -1.09176455215579      1.38229014532332      1.02153753034140
