16
Coordinates from ORCA-job run
  C   0.49213534464985     -0.36250699858899      0.30338636956057
  C   -0.75008112286906      0.41803256884750     -0.19489081648152
  Cl  0.00376442470414     -2.09786629891981      0.40308796701408
  H   -0.41697244729363      1.45891920321807     -0.29175691750325
  C   1.63447211751764     -0.22939947686812     -0.68330420420092
  H   1.94648835491585      0.81907925176054     -0.73954983023059
  H   1.32476147252720     -0.55193726122738     -1.67467256577932
  H   2.47561104901125     -0.82819535507741     -0.33492780413281
  N   0.93428974326107      0.02371537919007      1.61569009132447
  H   0.18591777302990     -0.02473028381932      2.29738571274252
  H   1.32198309128885      0.95953681840262      1.59849830991678
  C   -1.79921277405393      0.39964414626968      0.84637283366176
  N   -2.65479828354923      0.38078698752927      1.65174190447083
  N   -1.19431533100382     -0.02542460818389     -1.50286571411132
  H   -1.89644718709715      0.60747527607022     -1.86633775571380
  H   -1.60859622503894     -0.94712934860303     -1.42885758053747
