16
Coordinates from ORCA-job run
  C   0.46901034107521     -0.24020517481005      0.31749269936109
  C   -0.77070533569689      0.46936092247637     -0.25506250662013
  Cl  -0.01451670351811     -2.01666469809988      0.55077563614891
  H   -0.44237248370463      1.49625816416680     -0.44885881072740
  C   1.61792438426755     -0.22091583433376     -0.66886659451376
  H   1.92862333303096      0.81491683349367     -0.82690349295845
  H   2.46219830266483     -0.78593975330551     -0.26819202535666
  H   1.31133525874684     -0.65761278761796     -1.61607954584509
  N   0.83620744741031      0.38147771304446      1.53639338206293
  H   0.12185159453667      0.28255885113086      2.24850162595106
  H   1.70587847206081      0.00436580430694      1.89120425525899
  C   -1.82852434067526      0.53933924288534      0.77506380795488
  N   -2.68866554348995      0.58710068020861      1.57388905301963
  N   -1.19809420942476     -0.11486427093777     -1.51156373793660
  H   -1.62182844001981     -1.02010068042230     -1.34589315392035
  H   -1.88732207726377      0.48192498781417     -1.95190059187906
