16
Coordinates from ORCA-job run
  C   0.43163636511876     -0.27610816697318      0.36654446954886
  C   -0.81347875111274      0.42522211714079     -0.20185663505349
  Cl  -0.02916610429780     -1.96091334659945      0.79599967668934
  H   -0.50143094799208      1.45493736561476     -0.42058329172408
  C   1.54594814989758     -0.33969003937360     -0.66557352933466
  H   1.83226966223508      0.68020337630716     -0.94346224870640
  H   2.41532406157942     -0.84040479884708     -0.23476327730523
  H   1.22761447524584     -0.86484650761999     -1.56402093069376
  N   0.77338296787484      0.39318899753573      1.60579411651181
  H   1.44959282090139     -0.15666810251987      2.12311407474151
  H   1.19819902637476      1.29051478696637      1.39234062014742
  C   -1.87824176515645      0.50075543065778      0.81846074740746
  N   -2.81033383989967      0.56337509527341      1.53032373011706
  N   -1.23902500204717     -0.17742415834078     -1.45387125572135
  H   -1.95609860416524      0.39513263483171     -1.88261905630642
  H   -1.64519251455653     -1.08727468405373     -1.26582721031811
