16
Coordinates from ORCA-job run
  C   0.39815528571693     -0.54020962261673     -0.06495996604278
  C   -1.04488130229021     -0.05207613470951     -0.35558597538117
  Cl  0.84281660024776     -1.65191532448474     -1.45727379626579
  H   -1.66727875198456     -0.95105514786416     -0.45088943915822
  C   1.41337196117191      0.58279380605547     -0.03324116793983
  H   1.41853942219141      1.12878903558786     -0.97661756459073
  H   1.17955315853126      1.26476875717909      0.78662778777308
  H   2.41404065999845      0.17671787770463      0.12885694464553
  N   0.37068398650862     -1.23019393380088      1.18357220522120
  H   -0.16771002259926     -2.08670422826938      1.11372581591189
  H   1.30652008469782     -1.46801925332540      1.48903441716422
  C   -1.10438439836633      0.65867671002862     -1.63632343494089
  N   -1.15259071138836      1.27172110283656     -2.63580505939189
  N   -1.61162062922139      0.79174364122917      0.68387268122054
  H   -1.21496040771011      1.72240740751597      0.64240735072150
  H   -1.38025493550395      0.38355530693344      1.58259920105337
