16
Coordinates from ORCA-job run
  C   0.30759865983736     -0.32094103137295      0.38600632106457
  C   -0.84601304394765      0.52995793742526     -0.20144580230220
  Cl  -0.29447741668158     -1.99732915751408      0.61603429104103
  H   -0.45272614578467      1.55408837608723     -0.27232677770883
  C   1.49137882459647     -0.38070547355275     -0.56981691215993
  H   1.85373941185562      0.63459036944468     -0.76430419253200
  H   1.23324822123596     -0.85503453030788     -1.51737570455451
  H   2.30100466474591     -0.95475447107267     -0.11561752905563
  N   0.60965447434173      0.20688526766322      1.69843068634590
  H   1.04595393117920      1.11881471568270      1.60562398731168
  H   1.25303354734903     -0.40483934022978      2.18744958385888
  C   -1.96958344405585      0.57231582063642      0.74613477241636
  N   -2.90367506961057      0.62286698985739      1.45409983696632
  N   -1.34552415025941      0.16819821120465     -1.51175461509363
  H   -1.64559715064035     -0.79902346936788     -1.52018040675309
  H   -0.63701531416118      0.30390978541644     -2.21995753884494
