16
Coordinates from ORCA-job run
  C   0.56127174659830     -0.59289469073383     -0.04382369037170
  C   -0.92322073570271     -0.18332108930151     -0.23931168578741
  Cl  0.91310295532875     -1.82027205177408     -1.30222317866411
  H   -1.51463159739971     -1.09836210755113     -0.13481813273493
  C   1.49811314828472      0.58588341447562     -0.21874542578853
  H   1.31987438363942      1.31609214456556      0.57575252354693
  H   2.52441347522064      0.23230521910457     -0.12684014264402
  H   1.36587700362076      1.06405525781184     -1.19064473290674
  N   0.78884793254811     -1.20521432665241      1.24418457005376
  H   0.38662651692829     -0.58756588161767      1.94377141928471
  H   0.30073417542626     -2.09336954850334      1.29495703638993
  C   -1.17286584040944      0.36971648843854     -1.58102840665507
  N   -1.38421807767009      0.88439931879293     -2.61600256912068
  N   -1.30252375921941      0.73339438967489      0.83356806926141
  H   -2.30500314035467      0.70840015190081      0.97367256467062
  H   -1.05639818683922      1.68475331136918      0.58653178146582
