16
Coordinates from ORCA-job run
  C   0.45375375498925     -0.24416509285028      0.33552238319016
  C   -0.74113288873415      0.49464797138091     -0.29258761635203
  Cl  -0.14275721732514     -1.95933700071013      0.71651078292887
  H   -0.34876556791584      1.47856728980204     -0.57178262093961
  C   1.59511185169853     -0.38137825063568     -0.65031686411961
  H   1.97357075414278      0.61530842402565     -0.89057989710870
  H   2.40184670328555     -0.96858241729139     -0.20663675228490
  H   1.25388302270768     -0.87039681089024     -1.55935571635208
  N   0.86872975840981      0.45145247285918      1.49799833202872
  H   0.15491839072429      0.45698012225971      2.21755772308849
  H   1.71531970680334      0.04996168962253      1.88085626315089
  C   -1.78455186850383      0.72025227604717      0.72981888469757
  N   -2.62722438807950      0.90430828153422      1.52766463979893
  N   -1.21356875302408     -0.16250995470408     -1.49580148439660
  H   -1.69201780867603     -1.02261420010326     -1.25552937328229
  H   -1.86711545050269      0.43850519965363     -1.98233868404775
