16
Coordinates from ORCA-job run
  C   0.38097270538267     -0.23341255010494      0.34321600727159
  C   -0.83911188128032      0.51302475924279     -0.25667542891412
  Cl  -0.14667257619846     -1.99578794602395      0.57064391457772
  H   -0.48675502694113      1.53836692181288     -0.42076174954905
  C   1.55031618186188     -0.25011911451189     -0.62098741567381
  H   1.28666532590233     -0.74854095904372     -1.55272390401409
  H   1.86439286491035      0.77715394084769     -0.82267055048134
  H   2.38920104529284     -0.79356455537469     -0.18172829270432
  N   0.75194644866468      0.38849988354103      1.55929141467462
  H   1.59217753825684     -0.02200078272120      1.94651213706047
  H   0.01446045006118      0.34530389572772      2.25314389048811
  C   -1.89993401597124      0.59051645197889      0.75954679235852
  N   -2.70606254980831      0.66258027597104      1.60969867726627
  N   -1.39458219899398      0.02327506551206     -1.49821879841490
  H   -0.74682475182546      0.16811216399117     -2.26059150235171
  H   -1.61018955931390     -0.96340745084490     -1.42669519159398
