16
Coordinates from ORCA-job run
  C   0.51536376530086     -0.49886361116621      0.09514556900212
  C   -0.93120761626432     -0.23921296542928     -0.38275819963948
  Cl  1.15149135970413     -1.78374775534234     -1.08751265847393
  H   -1.39730758891304     -1.21654772992849     -0.54474728173650
  C   1.44189278462054      0.69437022558285     -0.05176130061098
  H   2.43736139170627      0.42825555236228      0.30944441376189
  H   1.07208303321536      1.52225946918957      0.55853296584747
  H   1.52753497561972      1.01110559774558     -1.09024554683175
  N   0.49471366394113     -0.94080299945361      1.43581643995031
  H   1.39764323300177     -1.29396565017516      1.72471658296643
  H   -0.22457558602272     -1.62913446564546      1.61409231371040
  C   -0.91264842884599      0.45031270817060     -1.68852296859762
  N   -0.97967618130967      1.04934540699880     -2.69697422042239
  N   -1.70751867300962      0.45133428197227      0.63738951934638
  H   -2.62581529222012      0.67279721735411      0.26970984734508
  H   -1.25933484052429      1.32149471776450      0.89767452438256
