16
Coordinates from ORCA-job run
  C   0.49268415308717     -0.40075449676594      0.11447460526835
  C   -0.79833620198769      0.16386755128416     -0.50766779060537
  Cl  0.49452877207387     -2.20013945941643     -0.44490961007552
  H   -0.74908548581355     -0.01938583464703     -1.58990050746196
  C   1.74740575852594      0.20899531614325     -0.47216609802654
  H   1.75992425963464      0.10769403343785     -1.55822944668547
  H   2.62873027517753     -0.29863199669500     -0.07533103602635
  H   1.79509536933220      1.26467295699030     -0.19789601402910
  N   0.43008159443990     -0.25704381263633      1.50480037086735
  H   -0.45502831314763     -0.58545608534323      1.87085374827462
  H   1.21507378070244     -0.67489765790208      1.98439126241035
  C   -0.83404592770138      1.61717818779844     -0.30426890699101
  N   -0.88032520470244      2.78365380865979     -0.18245228443821
  N   -1.96091019262496     -0.43925251673837      0.14043496645822
  H   -2.09206007268463     -1.37366521461748     -0.22848789657618
  H   -2.79373256431142      0.10216522044813     -0.05464536236317
