16
Coordinates from ORCA-job run
  C   0.49983204401550     -0.44931469934278      0.03985880077458
  C   -0.81874187091474      0.09491927463711     -0.59807181517073
  Cl  0.59274282890063     -2.17583170177125     -0.48680312941247
  H   -0.72615044895809     -0.01004174239689     -1.68470737945780
  C   1.71683792483727      0.27639801684283     -0.50008433901203
  H   1.73664227516211      0.24396088049974     -1.59068914979144
  H   1.70618918928895      1.32191349048364     -0.18073384532151
  H   2.61678405313377     -0.20085789411496     -0.11264384056743
  N   0.52748374109930     -0.43869127351447      1.47559983345706
  H   -0.27864257119754     -0.90423158611725      1.87292983992924
  H   0.58565069245401      0.51120095360263      1.82440198883439
  C   -0.89885827966706      1.52756556963106     -0.28149568096951
  N   -0.92094209624854      2.65866458735412      0.03267721047153
  N   -2.06312245558865     -0.53261533048709     -0.19935429490032
  H   -2.03173164838917     -1.52421919433850     -0.39995329480304
  H   -2.24397337792774     -0.39581935096792      0.78706909593947
