16
Coordinates from ORCA-job run
  C   0.50827599155790     -0.46655639190898      0.02958358003846
  C   -0.90427998380046     -0.11946039064717     -0.48483915131349
  Cl  1.23491664282734     -1.59155932928913     -1.22564272376349
  H   -1.43429823139234     -1.07594241110512     -0.62674745134645
  C   1.40567285775952      0.74664789334464      0.14512847964864
  H   0.96514928698647      1.44850812312579      0.85298056846827
  H   1.51679545361434      1.23471199908488     -0.82275502075096
  H   2.39656183168069      0.44241854912302      0.48997971403400
  N   0.35284966589560     -1.11068153171949      1.29473813707015
  H   -0.05749695280151     -2.03136534150582      1.18516118283978
  H   1.24615875699991     -1.21400699203150      1.76019086850000
  C   -0.84642369342965      0.53839139979274     -1.79497752590675
  N   -0.83541798352787      1.08842463926807     -2.83158178518441
  N   -1.52810413918865      0.78541336772951      0.47162906606958
  H   -1.54417053881843      0.32531423830525      1.37400642528210
  H   -2.47518896436288      1.00074217843333      0.18514563631460
