16
Coordinates from ORCA-job run
  C   0.51460823542526     -0.32120586511203      0.37980341264838
  C   -0.79128626163526      0.32283073477280     -0.16253616752022
  Cl  0.10839333515532     -1.99353175866904      0.88892782068894
  H   -0.51778702664351      1.36004399563685     -0.40878479825334
  C   1.54909698640261     -0.38165798315684     -0.72581763785807
  H   2.47008185638369     -0.80911210299776     -0.32949791576041
  H   1.18419583147220     -0.99622126402140     -1.54712401887873
  H   1.75980267776678      0.62798438147317     -1.09732831512646
  N   1.06086823669051      0.35921398883485      1.52423934102922
  H   1.44105550284362      1.25972592322926      1.25856808375235
  H   0.37243293532276      0.47819617759012      2.25836541741246
  C   -1.78360367812672      0.40869777118159      0.91481803161120
  N   -2.57796645862878      0.48078484556676      1.77664033559898
  N   -1.31588442799444     -0.37788259743438     -1.32717602178408
  H   -1.17417290841808      0.16933129400035     -2.16423685755261
  H   -2.29983483601596     -0.58619754089428     -1.23786071000760
