16
Coordinates from ORCA-job run
  C   0.45703949773245     -0.49501835896297      0.05322532225872
  C   -0.80483546403778      0.02053131943904     -0.67328541804465
  Cl  0.67372858561456     -2.21420529655029     -0.39183963718281
  H   -0.64222262691599     -0.07874344567855     -1.75147545693510
  C   1.70443074048991      0.25813452401611     -0.38633151750827
  H   2.58033296745713     -0.17060943855341      0.10374496803417
  H   1.62766841970750      1.31195658748477     -0.10585672641070
  H   1.84677909856820      0.19013776199464     -1.46715854126903
  N   0.18758085720215     -0.44137903324726      1.48302939575345
  H   0.81573201755519     -1.06184051391504      1.97911077853046
  H   0.34716750327448      0.50395553523394      1.81830964462863
  C   -0.93268827652917      1.46195211509487     -0.35633919939719
  N   -1.07038920504995      2.59012364736183     -0.05606797121652
  N   -1.96358583454924     -0.75694219997779     -0.29231920286321
  H   -2.02000310671690     -0.76769678131286      0.71986641815964
  H   -2.80773517380258     -0.35035642242704     -0.67461285653759
