16
Coordinates from ORCA-job run
  C   0.42403372247385     -0.52384176821713     -0.01521197302966
  C   -0.99522258648361     -0.09641641218946     -0.47094365948219
  Cl  1.06836085314060     -1.62096391757270     -1.33889802260698
  H   -1.56580370174379     -1.02064982883775     -0.62868979840970
  C   1.38263836671030      0.64030140788105      0.12225398188324
  H   2.37420008603979      0.27690159135973      0.40019756517538
  H   1.02948236625566      1.31501434480953      0.90455754700005
  H   1.47251457899301      1.18258750313302     -0.81898635691043
  N   0.28278200962603     -1.20996222112842      1.22782253927322
  H   -0.20689951109530     -2.08927702131110      1.10396160411769
  H   1.18667042282071     -1.40562883059453      1.64053578930618
  C   -0.93854094090525      0.60759342038237     -1.75565513416880
  N   -0.88905113072155      1.21242314663018     -2.76011421350761
  N   -1.71005450709505      0.72672027227710      0.49115795689718
  H   -1.35031576213052      1.67314163264861      0.48636756610437
  H   -1.56479426588488      0.33205668072950      1.41364460835810
