16
Coordinates from ORCA-job run
  C   0.54304936696785     -0.58062418129068     -0.04782618072500
  C   -0.90107933833106     -0.22831902269495     -0.45814747380077
  Cl  1.23976111116277     -1.55796702934565     -1.39130104544117
  H   -1.40515932871610     -1.18570684945285     -0.61546870975710
  C   1.41436123303264      0.65540400385339      0.12362113642542
  H   1.01906095511043      1.26653887773590      0.93997868374555
  H   1.46483435836590      1.25139468140563     -0.78978805011916
  H   2.42907432411017      0.35168485513767      0.38893877567605
  N   0.43287620563670     -1.42689277979282      1.11117162212296
  H   -0.13788754020298     -0.94015701195756      1.79453906425388
  H   1.34890879616061     -1.61422370913672      1.50110987156221
  C   -0.93520721551290      0.53532417896008     -1.71587140619150
  N   -1.00267720632073      1.21601661768288     -2.67088146333062
  N   -1.55934733939078      0.46857055450761      0.64651678806366
  H   -2.56025614152848      0.32515575787324      0.59836101175013
  H   -1.39131224054403      1.46580105651485      0.58604737576546
