16
Coordinates from ORCA-job run
  C   0.39435878154491     -0.44524642580903      0.05338672493638
  C   -0.85695925907619      0.15784139075497     -0.64308096788330
  Cl  0.46988987829281     -2.17409877659350     -0.43187236423989
  H   -0.70904344412233      0.08382425664574     -1.72564633864650
  C   1.68360188513007      0.21943967102622     -0.40362374136564
  H   1.79827700194058      0.15991362994610     -1.48843682244239
  H   2.54023881211793     -0.27322077687750      0.06056527122098
  H   1.68331837159626      1.27142413687324     -0.10671281621097
  N   0.15265229545337     -0.41383032314891      1.48413165574591
  H   0.81694135017694     -1.00937068868901      1.96462291829461
  H   0.27949006746662      0.53582942780173      1.82241104505690
  C   -0.90092060299172      1.58703070528399     -0.28869356003124
  N   -0.90370317471089      2.70936521647012      0.05640918561542
  N   -2.12548817789976     -0.45006777867215     -0.30229298791864
  H   -2.18597439500802     -1.35526174062368     -0.75150700853479
  H   -2.13467938991056     -0.60357192438829      0.70133980640318
