16
Coordinates from ORCA-job run
  C   0.49137036178205     -0.45677064477318      0.05070088835989
  C   -0.80604551992880      0.10689825885325     -0.61346910977213
  Cl  0.56939227799970     -2.18457451172800     -0.47551585411956
  H   -0.69300612583424      0.00090878365269     -1.69808037213252
  C   1.72984730253049      0.25061937799032     -0.46400542692995
  H   2.61434668998184     -0.24077133028235     -0.05905826396880
  H   1.77117931527498      0.21835783913609     -1.55401325454094
  H   1.72876391049139      1.29604375641280     -0.14426040471237
  N   0.49014216500494     -0.44720796299109      1.48658265718911
  H   0.55774478706338      0.50138106228817      1.83721852324162
  H   -0.33165119654795     -0.89887136720753      1.86748484703072
  C   -0.87051964339679      1.54078661121487     -0.29920375319846
  N   -0.87360919270555      2.67543851023540      0.00265539773447
  N   -2.06708518964500     -0.50269195183997     -0.24033565504766
  H   -2.04586043648329     -1.49452666909872     -0.44103561655755
  H   -2.26600950558712     -0.36401976186279      0.74233539742416
