16
Coordinates from ORCA-job run
  C   0.59613984643229     -0.55846491340343     -0.04345306184460
  C   -0.86246082380079     -0.17446970576933     -0.41038234552903
  Cl  1.21018613397540     -1.55317688926349     -1.40278664288078
  H   -1.40711130636805     -1.11430869129109     -0.54479081618851
  C   1.47631335308722      0.66507407598854      0.11814714354134
  H   2.49523701534433      0.33727821529821      0.32092481005339
  H   1.46798969014655      1.28737496650510     -0.77815064994673
  H   1.13349831166653      1.25258939488907      0.97459811253758
  N   0.65965929046026     -1.36262144473035      1.15416093326989
  H   0.22100264527874     -2.26263417828336      0.98912497669940
  H   0.12123605821291     -0.87927001451943      1.86769369743265
  C   -0.93600625490232      0.57923399971072     -1.67331653722527
  N   -1.01848654010052      1.25185987695903     -2.63326885408348
  N   -1.45625440581617      0.54352568171521      0.71552555561078
  H   -2.46493191091882      0.45928225823940      0.68754306679698
  H   -1.23501110269751      1.53072736795519      0.65843061175634
