16
Coordinates from ORCA-job run
  C   0.53143167129070     -0.58797015775285     -0.07803608416228
  C   -0.89723843542767     -0.17718137042922     -0.48869648093407
  Cl  1.23321250259244     -1.48776534330849     -1.47166637210519
  H   -1.41734257983207     -1.11094931046346     -0.71887999107104
  C   1.42463546402366      0.61404266117437      0.19278471979443
  H   1.02493098189167      1.17883900223208      1.03981596970210
  H   2.42669820738477      0.27063582030065      0.45779709457061
  H   1.50724288753340      1.26795725923602     -0.67762154282056
  N   0.38137546724803     -1.50834539539547      1.01893111908467
  H   -0.18777116796946     -1.05365036989267      1.72544824956542
  H   1.28643416577672     -1.74359327372691      1.40875216530618
  C   -0.89077742447299      0.67017631801205     -1.69230389515942
  N   -0.92363477953573      1.41909665071960     -2.59674624543019
  N   -1.56161843061765      0.45812494465691      0.64833834763576
  H   -1.37464354810733      1.45373305875311      0.65707306105491
  H   -2.56393498177850      0.33684950588428      0.57600988496866
