16
Coordinates from ORCA-job run
  C   0.47667075618437     -0.57513478557493     -0.10862185833115
  C   -0.94824507068677     -0.06369827752959     -0.48418556948842
  Cl  0.99747682955740     -1.60082055203549     -1.49685932643278
  H   -1.54438821693453     -0.95387641167848     -0.71845914098648
  C   1.47517023482424      0.55124990585257      0.06795222993672
  H   1.16765388714717      1.20499984738248      0.89015250821148
  H   2.44937638102569      0.12744670054765      0.31122101326805
  H   1.56042825695088      1.14552744653818     -0.84159940953166
  N   0.48460569245515     -1.40966352986186      1.06209584532358
  H   -0.22375055697927     -2.13271262821174      1.02701186551761
  H   0.39773416641813     -0.86430285303585      1.90926613993162
  C   -0.90292907609518      0.76763468016938     -1.69281760310510
  N   -0.84396134442345      1.45583536596351     -2.64187366676975
  N   -1.64418750758436      0.67562248492502      0.55492378901978
  H   -1.71893084358760      0.12213948373394      1.39795660800044
  H   -1.18272358827191      1.55175312281524      0.76283657543603
