16
Coordinates from ORCA-job run
  C   0.44329573203532     -0.50702914699235     -0.01905859579434
  C   -0.96132060445270     -0.10141610691927     -0.53689525429761
  Cl  1.20695533906476     -1.50085123930786     -1.36070677392839
  H   -1.48652618045899     -1.03335949374539     -0.78259644094994
  C   1.34743127011381      0.67870612881385      0.24473249636135
  H   2.33514078838391      0.33313535813143      0.55691563817957
  H   1.46905577792839      1.28205608698477     -0.65489862861938
  H   0.92528485181025      1.28989267971810      1.04484146359136
  N   0.25329221486598     -1.27055205474442      1.17125540475776
  H   1.13743241428763     -1.46035650628592      1.62727471180247
  H   -0.19504360359346     -2.15686702248367      0.96681683679424
  C   -0.85332531379870      0.67815797245910     -1.77359215630915
  N   -0.76316098865456      1.34226113917986     -2.73689537497603
  N   -1.76243572003338      0.63827924612863      0.42470034270790
  H   -1.43680314306022      1.59417287394505      0.49855636188583
  H   -1.65927283443802      0.19277008511814      1.32954996879437
