15

C	-0.564827	0.037412	-1.408786
C	0.0	0.0	0.0
F	-0.237121	-1.103348	-2.136091
H	1.095056	0.0	0.0
H	-1.659711	0.08385	-1.350615
C	-0.119959	1.219941	-2.169094
N	0.170331	2.166455	-2.798732
C	-0.493242	-1.233445	0.728024
H	-1.582268	-1.209981	0.874004
H	-0.003052	-1.289004	1.704328
H	-0.229688	-2.136172	0.174623
N	-0.48136	1.243636	0.633825
H	0.329441	1.852677	0.716309
H	-0.777528	1.037855	1.581112
H	2.920332	0.0	0.0
