15

C	-0.46401	0.003844	-1.43509
C	0.0	0.0	0.0
F	-1.864094	0.121796	-1.516646
H	1.102061	0.0	0.0
H	-0.039194	0.876328	-1.935893
C	-0.105347	-1.217242	-2.177436
N	0.128918	-2.186784	-2.795523
C	-0.495893	-1.208775	0.778927
H	-0.09071	-1.161413	1.793167
H	-0.147093	-2.142717	0.329507
H	-1.590619	-1.233767	0.834633
N	-0.389205	1.289502	0.578814
H	0.368906	1.580306	1.187408
H	-1.230171	1.19198	1.134963
H	2.881464	0.0	0.0
