15

C	-0.44153	-0.015639	-1.44464
C	0.0	0.0	0.0
F	-0.122354	1.188807	-2.067921
H	1.102933	0.0	0.0
H	0.094322	-0.807762	-1.977874
C	-1.897436	-0.212928	-1.601475
N	-3.052058	-0.371267	-1.742118
C	-0.46983	-1.254623	0.712871
H	-1.557972	-1.27263	0.828772
H	-0.005424	-1.291781	1.70259
H	-0.143232	-2.151943	0.178568
N	-0.57131	1.192511	0.643432
H	-0.108086	1.991932	0.220224
H	-0.240195	1.180313	1.604293
H	2.957402	0.0	0.0
