15

C	-0.449658	0.031949	-1.440345
C	0.0	0.0	0.0
F	-1.848366	0.163944	-1.533378
H	1.096459	0.0	0.0
H	-0.011498	0.908659	-1.921499
C	-0.096042	-1.180005	-2.19907
N	0.134507	-2.142678	-2.829484
C	-0.501391	-1.226469	0.747208
H	-1.597255	-1.265953	0.771111
H	-0.126951	-2.148488	0.293499
H	-0.126587	-1.189916	1.773769
N	-0.398049	1.276915	0.597838
H	0.335913	1.542311	1.246577
H	-1.264531	1.174233	1.114556
H	2.886413	0.0	0.0
