15

C	-0.567011	0.055652	-1.407162
C	0.0	0.0	0.0
F	-0.243221	-1.076332	-2.149954
H	1.095069	0.0	0.0
H	-1.662117	0.105021	-1.347124
C	-0.116763	1.24823	-2.151321
N	0.1906	2.205192	-2.7568
C	-0.493946	-1.242077	0.712729
H	-1.582729	-1.223742	0.856491
H	-0.006953	-1.305861	1.6889
H	-0.22713	-2.137677	0.151564
N	-0.478737	1.236059	0.648412
H	-0.799215	1.015388	1.58325
H	0.334323	1.837001	0.75782
H	2.918156	0.0	0.0
