15

C	-0.562738	0.005066	-1.411132
C	0.0	0.0	0.0
F	-0.204627	-1.136969	-2.121317
H	1.10078	0.0	0.0
H	-1.658646	0.027328	-1.358318
C	-0.139826	1.184352	-2.188012
N	0.141054	2.103977	-2.859693
C	-0.498894	-1.215383	0.752537
H	-0.000846	-1.263866	1.72535
H	-0.250449	-2.129299	0.211145
H	-1.58525	-1.17522	0.908006
N	-0.493829	1.252965	0.606394
H	0.289748	1.902252	0.590695
H	-0.686993	1.081432	1.589261
H	2.932284	0.0	0.0
