15

C	-0.456366	0.070137	-1.436084
C	0.0	0.0	0.0
F	-1.853218	0.22471	-1.520023
H	1.096451	0.0	0.0
H	-0.006644	0.949328	-1.900934
C	-0.128648	-1.131228	-2.223607
N	0.052785	-2.08881	-2.875605
C	-0.502562	-1.240908	0.721905
H	-0.115427	-1.233164	1.744338
H	-0.142123	-2.154604	0.241216
H	-1.598127	-1.272172	0.758568
N	-0.390853	1.264314	0.628806
H	0.341517	1.508566	1.286197
H	-1.260944	1.155997	1.137587
H	2.886707	0.0	0.0
