15

C	-0.444403	0.021801	-1.443469
C	0.0	0.0	0.0
F	-0.113664	1.237902	-2.038477
H	1.103819	0.0	0.0
H	0.081029	-0.762825	-1.997814
C	-1.902249	-0.15993	-1.600351
N	-3.052807	-0.348305	-1.738636
C	-0.471368	-1.270039	0.683953
H	-1.559054	-1.287285	0.803128
H	-0.00373	-1.332526	1.670775
H	-0.150228	-2.155324	0.127007
N	-0.567915	1.178587	0.672147
H	-0.240539	1.140834	1.633577
H	-0.099668	1.986222	0.270677
H	2.958442	0.0	0.0
