15

C	-0.440336	-0.006996	-1.445219
C	0.0	0.0	0.0
F	-0.117845	1.200713	-2.06042
H	1.102769	0.0	0.0
H	0.094107	-0.796709	-1.983168
C	-1.895704	-0.204549	-1.603557
N	-3.04579	-0.404832	-1.727795
C	-0.469508	-1.257821	0.707415
H	-0.003658	-1.300001	1.696169
H	-0.144548	-2.152594	0.168236
H	-1.557415	-1.276117	0.824546
N	-0.570873	1.189822	0.648651
H	-0.103072	1.990575	0.23306
H	-0.24513	1.170537	1.61104
H	2.956803	0.0	0.0
