15

C	-0.572269	-0.000402	-1.404407
C	0.0	0.0	0.0
F	-0.227001	-1.145544	-2.110902
H	1.101453	0.0	0.0
H	-1.667148	0.029096	-1.34138
C	-0.153767	1.176093	-2.191542
N	0.104517	2.119358	-2.839261
C	-0.496234	-1.2139	0.759292
H	-1.578799	-1.166257	0.932092
H	-0.259117	-2.127705	0.213688
H	0.018864	-1.263307	1.722263
N	-0.503101	1.248091	0.613886
H	0.227099	1.944416	0.475045
H	-0.540881	1.101676	1.616391
H	2.925989	0.0	0.0
