15

C	-0.489329	0.076547	-1.43894
C	0.0	0.0	0.0
F	-0.142602	-1.050078	-2.175387
H	1.095542	0.0	0.0
H	-1.589682	0.127357	-1.456233
C	0.005823	1.274337	-2.145233
N	0.307054	2.245289	-2.731999
C	-0.526503	-1.254483	0.66852
H	-1.622094	-1.243417	0.748287
H	-0.1082	-1.302588	1.674967
H	-0.216704	-2.146655	0.120128
N	-0.403468	1.200165	0.732977
H	-1.277405	1.589214	0.394892
H	0.325579	1.896902	0.624068
H	2.903981	0.0	0.0
