18

C	0.0	0.0	0.0
C	-0.606394	0.106535	-1.394989
Br	1.998847	0.0	0.0
H	-1.646454	0.393169	-1.164282
N	-0.300566	1.260708	0.831339
O	-0.31068	1.13061	2.048229
O	-0.458993	2.314482	0.228753
N	-0.518716	-1.06639	0.721258
H	-0.307073	-1.014387	1.706687
H	-0.299343	-1.963278	0.319784
C	-0.645863	-1.259917	-2.063329
H	-1.365201	-1.905354	-1.558608
H	0.34897	-1.715709	-2.09757
H	-0.995213	-1.139408	-3.092188
N	0.111993	1.042246	-2.258233
H	0.010694	1.971096	-1.867474
H	-0.37286	1.047267	-3.149026
Cl	-3.889472	0.0	0.0
