18

C	0.0	0.0	0.0
C	-0.535059	-0.082969	-1.465382
Br	1.934125	0.0	0.0
H	-1.602234	0.143452	-1.33832
N	-0.38619	1.376346	0.603488
O	-0.132407	2.366884	-0.079875
O	-0.90354	1.390921	1.707379
N	-0.487813	-0.977267	0.904611
H	-0.240919	-1.893536	0.556145
H	-1.512893	-0.889383	0.909483
C	-0.416896	-1.510965	-1.988001
H	0.626866	-1.847513	-2.004098
H	-0.789862	-1.512675	-3.012399
H	-1.018929	-2.211439	-1.410111
N	0.025625	0.81763	-2.458664
H	-0.114374	1.769898	-2.147998
H	1.029005	0.67187	-2.512528
Cl	-3.634619	0.0	0.0
