18

C	0.0	0.0	0.0
C	-0.639131	0.255204	-1.409837
Br	1.950035	0.0	0.0
H	-1.039555	-0.726446	-1.687147
N	-0.309943	1.112992	0.966983
O	0.054021	0.970892	2.162233
O	-0.104365	2.394927	0.394969
N	-0.489312	-1.23232	0.499865
H	-0.229633	-1.295474	1.480313
H	-1.512788	-1.160507	0.45105
C	0.315927	0.741549	-2.500979
H	0.800862	1.666751	-2.188597
H	1.081375	-0.000526	-2.7273
H	-0.263748	0.933657	-3.408705
N	-1.700964	1.273557	-1.359114
H	-0.855062	2.400525	-0.26333
H	-2.444337	0.992592	-2.000281
Cl	-3.612498	0.0	0.0
