18

C	0.0	0.0	0.0
C	-0.503956	0.035931	-1.474622
Br	2.01286	0.0	0.0
H	-0.29022	-0.991593	-1.809663
N	-0.306213	1.269907	0.79158
O	-0.370211	1.151649	2.009662
O	-0.427945	2.315336	0.167395
N	-0.572408	-1.049613	0.689953
H	-0.490934	-1.94282	0.231641
H	-0.386995	-1.070165	1.680767
C	0.222152	0.976074	-2.43431
H	-0.233889	0.82638	-3.414528
H	1.289885	0.777225	-2.503081
H	0.074755	2.014621	-2.140927
N	-1.916884	0.260203	-1.598335
H	-2.157543	1.228661	-1.431588
H	-2.524354	-0.282101	-0.98615
Cl	-4.728103	0.0	0.0
