18

C	0.0	0.0	0.0
C	-0.587532	-0.128945	-1.445919
Br	1.950296	0.0	0.0
H	-0.866239	-1.188162	-1.513263
N	-0.337923	1.317895	0.626753
O	-0.204941	2.404679	-0.268073
O	0.013772	1.514249	1.819718
N	-0.506054	-1.061438	0.792298
H	-0.309544	-0.835284	1.763483
H	-1.525349	-1.031798	0.674267
C	0.348541	0.225535	-2.603487
H	0.716616	1.246076	-2.48379
H	-0.224142	0.164419	-3.535022
H	1.199356	-0.452987	-2.670297
N	-1.73954	0.769252	-1.635159
H	-2.468314	0.278093	-2.154454
H	-0.961454	2.187363	-0.887522
Cl	-3.700994	0.0	0.0
