16

C	-0.505421	-0.019313	-1.436891
C	0.0	0.0	0.0
Br	0.088787	-1.666069	-2.308667
H	1.091011	0.0	0.0
H	0.003354	0.766295	-1.999664
N	-1.957838	0.021987	-1.507637
H	-2.230261	0.966858	-1.255264
H	-2.245871	-0.134575	-2.466408
C	-0.526079	-1.105087	0.893136
H	-0.195571	-2.063725	0.495291
H	-1.616542	-1.093236	0.934528
H	-0.109581	-0.989159	1.891842
N	-0.363846	1.33465	0.600339
O	-0.719178	2.246924	-0.155921
O	-0.247359	1.462668	1.8142
Br	3.474166	0.0	0.0
