16

C	-0.430213	-0.02632	-1.452478
C	0.0	0.0	0.0
Br	-2.575417	0.257273	-1.459367
H	1.094798	0.0	0.0
H	-0.438264	-1.046808	-1.827933
N	0.226055	0.830805	-2.288056
H	-0.033627	0.79507	-3.259835
H	0.389397	1.752197	-1.91441
C	-0.49123	-1.17994	0.805525
H	-0.124179	-2.08999	0.325129
H	-1.578739	-1.20843	0.870319
H	-0.070115	-1.139533	1.808904
N	-0.386596	1.295711	0.641293
O	-0.924515	1.271319	1.744166
O	-0.103557	2.330608	0.035572
Br	3.438803	0.0	0.0
