16

C	-0.398269	-0.113458	-1.465238
C	0.0	0.0	0.0
Br	-0.172117	1.70211	-2.377861
H	1.091839	0.0	0.0
H	-1.464614	-0.28838	-1.607606
N	0.396536	-1.123183	-2.038225
H	0.242165	-1.220342	-3.031894
H	1.384908	-0.960058	-1.846152
C	-0.497653	-1.201109	0.792456
H	-1.586485	-1.280135	0.744014
H	-0.188028	-1.099081	1.835539
H	-0.041618	-2.101501	0.383466
N	-0.571881	1.221059	0.620267
O	-1.798056	1.342692	0.539308
O	0.176505	1.997031	1.204156
Br	3.519348	0.0	0.0
