15
Coordinates from ORCA-job run
  C   -0.59841173614012     -0.00267589085255      0.40021119843280
  C   0.60666104517775      0.04822928311699     -0.59911158177814
  F   -0.12557692089968      0.70054865362699      1.50562127960405
  H   0.41041661777587     -0.63919724694881     -1.42440291418806
  N   -1.00176340554852     -1.28096006658222      0.85786686042217
  H   -0.24197545653471     -1.81248440920945      1.25850379203584
  H   -1.43649987392043     -1.80244197754547      0.10962919390070
  N   -1.70987714056659      0.59575509425587     -0.23651145941496
  H   -2.50825171427841      0.53343385242340      0.37884972120897
  H   -1.53508521198841      1.56253652786347     -0.47886896949972
  N   1.84277920429690     -0.46200947646199      0.09846938916191
  O   2.69479180368051      0.34083128969867      0.44338522684144
  O   1.85804958856691     -1.67709062999445      0.28508386848283
  C   0.83337643585593      1.39904430743307     -1.09151418774362
  N   0.91136676452298      2.49448068917647     -1.50821141746620
