15
Coordinates from ORCA-job run
  C   -0.66878432258417     -0.25285484569806      0.01468691487591
  C   0.65629877382315      0.25548409868920     -0.59221033498028
  F   -0.73321877971034     -1.59850951388735     -0.43923545835077
  H   0.54379752185168      0.26687432051018     -1.67636839183738
  N   -1.73030985292777      0.48779249716989     -0.57314098324060
  H   -2.42847703704595      0.75279961693149      0.10527071615183
  H   -2.13988791786171     -0.00574390388554     -1.35370935990624
  N   -0.68626249081359     -0.14853744068819      1.41496403151371
  H   0.17289837678802     -0.48496859771631      1.82984998261750
  H   -1.47805396758791     -0.64990316506553      1.79740421637019
  N   1.78301620235181     -0.70809590155235     -0.31110044755136
  O   2.28714830746431     -1.26275364821116     -1.27880135293774
  O   2.09192516393153     -0.86884593139370      0.86690517951921
  C   1.00998930439803      1.57604865985014     -0.09265910763052
  N   1.31992071792292      2.64221375494730      0.28814439538655
