15
Coordinates from ORCA-job run
  C   -0.70785342431663      0.07917041403492      0.16445263293302
  C   0.56309545166913      0.42050986676369     -0.64768063249479
  F   -1.53898223897500      1.20773271143407     -0.11830790433706
  H   0.28636020597650      0.61571403535595     -1.68505331071490
  N   -0.42402081867959      0.00738536048539      1.54220093435340
  H   -0.37271167540349      0.92118318740821      1.97062832290568
  H   -1.05764744661210     -0.59821716032813      2.04193478257943
  N   -1.27911464354148     -1.12337270362156     -0.29531140524939
  H   -1.32778232555664     -1.16700208330365     -1.30391784390774
  H   -2.20618533965450     -1.24582944887815      0.09293012231716
  N   1.47970738991340     -0.77522405830713     -0.67920805704585
  O   2.29161832022853     -0.89962436980687      0.22603974872366
  O   1.29893418067310     -1.53766949189823     -1.62465491857014
  C   1.24128004628624      1.57251137861848     -0.07405013117371
  N   1.75230231799254      2.52173236204302      0.38999765968123
