15
Coordinates from ORCA-job run
  C   -0.73479793388913      0.19430423490361      0.07918935193630
  C   0.64527206349482      0.46680830054503     -0.55985594697860
  F   -1.48628947116122      1.32989160700705     -0.24397620939760
  H   0.50540047099862      0.68954204985956     -1.61917286278353
  N   -0.65222916402712      0.17001209928443      1.49792868519076
  H   -1.57648931793236      0.20631371307151      1.90828149154005
  H   -0.14433562650841     -0.64229748476475      1.82068457725985
  N   -1.27016602131742     -0.97899390473181     -0.51451214581052
  H   -1.43465494299888     -0.86639149178797     -1.50816809069740
  H   -2.12950349323596     -1.25496299436281     -0.05727726409924
  N   1.46785383671348     -0.79377119984259     -0.50727611701117
  O   1.68474291073120     -1.34709654407884     -1.57822330842747
  O   1.82549319115007     -1.17326873784409      0.60202498503248
  C   1.35350257762147      1.55406189005566      0.09918757566069
  N   1.94620092036084      2.44484846268601      0.58116527858540
