15
Coordinates from ORCA-job run
  C   -0.66918692153747     -0.22116931833526      0.11730104467010
  C   0.60759624620874      0.11826589371234     -0.68266125040028
  F   -0.79873858800380     -1.62332472965136     -0.06328739614668
  H   0.39770703408052     -0.06669104656931     -1.73623616603239
  N   -1.76204602446235      0.43907819644327     -0.50719252071499
  H   -2.23628485867777     -0.16262363180077     -1.16627384948653
  H   -2.40359483862481      0.82591849176091      0.16896052174720
  N   -0.56459310620528      0.14436020269419      1.47102982837479
  H   -1.32347541947437     -0.26617927203404      2.00095551360743
  H   0.32221396367357     -0.13679302098200      1.86953167874133
  N   1.73189428946462     -0.81776008297310     -0.31869867126547
  O   2.13441913552026     -1.56443109250373     -1.20164359246553
  O   2.14138424596785     -0.76534543049688      0.83824170113178
  C   1.02895386951719      1.49494339282400     -0.46955699072556
  N   1.39275097255309      2.60075144791173     -0.31946985103520
