15
Coordinates from ORCA-job run
  C   -0.67174500600308     -0.24509104859036      0.00771499453557
  C   0.66360128975532      0.25424667925048     -0.58460419241068
  F   -0.74889714075583     -1.58430513092252     -0.46274379492044
  H   0.55752854348163      0.27894315265967     -1.66918036229877
  N   -1.72037415024042      0.51523894484066     -0.57719650574938
  H   -2.42119312240452      0.77804763363861      0.09921402775233
  H   -2.12835651391042      0.03988000208173     -1.36980132415616
  N   -0.69702786690917     -0.15724904401589      1.40927717427993
  H   0.15529214457604     -0.51040998176542      1.82440820413159
  H   -1.49706763731226     -0.65494881921733      1.77963164812777
  N   1.77651510788473     -0.72541404354346     -0.30702443588272
  O   2.27877128500458     -1.27750483679959     -1.27715759598344
  O   2.07715258187377     -0.90102495140565      0.87106313289559
  C   1.02897534385465      1.56512312601500     -0.06832516197396
  N   1.34682514110495      2.62446831777408      0.32472419165279
