11
Coordinates from ORCA-job run
  C   0.54108876692877      0.55603729787119      0.52353209610657
  C   -0.28347652588169      0.20781622224667     -0.50676901088051
  H   0.88515055218011      1.56727632648067      0.67915846172095
  N   0.99641172588918     -0.38005304773255      1.50382157052020
  O   1.71871757951756      0.05980792057026      2.39786584893700
  O   0.64272105349969     -1.56490668383197      1.40501900475197
  N   -0.72959523565871     -1.02626740647735     -0.85274638595677
  H   -0.59055011115400     -1.75922565221663     -0.17347184843266
  H   -1.51687766808801     -1.08766488555821     -1.47571061173903
  C   -0.66641749668827      1.27957348411728     -1.38934515582594
  N   -0.99917264054463      2.14760642453064     -2.11035396920178
