11
Coordinates from ORCA-job run
  C   0.47159574151630      0.62807347787965      0.50890265951365
  C   -0.37953329622114      0.17078428823480     -0.45495044881536
  H   0.71751234723601      1.67310643905401      0.62102915088691
  N   1.13259549781961     -0.23724706582142      1.43557873203940
  O   1.90123058463910      0.29177968683016      2.23786828237366
  O   0.90417469612046     -1.45530686077960      1.37985981718269
  N   -0.82672048007422     -1.09449950299049     -0.65785010406938
  H   -0.34567130215980     -1.82563816491193     -0.15588440739647
  H   -1.24032907379446     -1.31219001379160     -1.54848034332996
  C   -0.93861270679414      1.17589120448727     -1.32170129897083
  N   -1.39624200828775      1.98424651180912     -2.04337203941431
