11
Coordinates from ORCA-job run
  C   -0.11143346419661      0.18803046196224      0.90992493472943
  C   -0.43189703560131      0.14401983736146     -0.41594060021042
  H   -0.79506909642241      0.54937002229252      1.66315606555187
  N   1.14485255849817     -0.26503175610178      1.42070971866796
  O   1.30342330602679     -0.20332535158808      2.63944839895866
  O   1.99252666021536     -0.69352733831589      0.62271601360807
  N   0.35179751510748     -0.21470557382643     -1.46446714252766
  H   -0.09815225584029     -0.43628173689498     -2.33637115008956
  H   1.22062086071100     -0.67467520739725     -1.23757153225763
  C   -1.74955330372776      0.61580262288676     -0.75547225631556
  N   -2.82611574477042      0.98932401962144     -1.04713245011515
