11
Coordinates from ORCA-job run
  C   0.49184614237182     -0.42577314187528      0.62119214729128
  C   -0.21644705050546     -0.09685203086865     -0.48616387747041
  H   0.85708520564684     -1.42651701460852      0.81044804998005
  N   0.85003796433804      0.51107319955015      1.65629599605264
  O   1.47688702619067      0.03100491831122      2.60318639064068
  O   0.52130440781768      1.69018885148639      1.54311575590241
  N   -0.45641163723455     -0.98477922092982     -1.51185398837919
  H   -1.26412084560628     -0.79340566754584     -2.08280449110693
  H   -0.31438493248575     -1.96143835499409     -1.30623188154008
  C   -0.72329908203099      1.22474065608126     -0.74689324087190
  N   -1.22249719850203      2.22975780539318     -1.09929086049855
