11
Coordinates from ORCA-job run
  C   0.47993131242924     -0.40198599883597      0.64507671717503
  C   -0.26829405134440     -0.13064550929450     -0.45169545160145
  H   0.89649194838657     -1.38042705308668      0.84524263818711
  N   0.79157242451669      0.56465000287003      1.66751782830069
  O   0.34578801547261      1.70655182559424      1.57440424175377
  O   1.50795325397348      0.14867768774219      2.58077789743200
  N   -0.64205517228610     -1.09710020754339     -1.35966058862236
  H   -0.85318981397078     -0.77152198081245     -2.28945800759061
  H   -0.12962953150371     -1.96499465959778     -1.33053088365873
  C   -0.81636316097838      1.16764700689347     -0.74308865117152
  N   -1.31220522469522      2.15814888607086     -1.13858574020392
