11
Coordinates from ORCA-job run
  C   -0.11496457512970      0.29242796323306      0.88212019400551
  C   -0.42294421036802      0.11063995273733     -0.43497969948592
  H   -0.72935123395839      0.87785659992610      1.54917187424333
  N   1.06241487698416     -0.24937747794692      1.48609061281959
  O   1.82651257090723     -0.93603712718428      0.79062986368336
  O   1.24519098520114      0.00829435442671      2.67544491400760
  N   0.21860806355495     -0.65178085915858     -1.35646261826630
  H   0.02091392475178     -0.48436028739514     -2.32837849585844
  H   1.13368544356976     -0.99007283108561     -1.09903799464865
  C   -1.63186310277978      0.74901083211764     -0.88775471841676
  N   -2.61020274273313      1.27339888032969     -1.27684393208332
