11
Coordinates from ORCA-job run
  C   -0.12567120017205      0.35820500803509      0.85353896898914
  C   -0.45249316508833     -0.00646397057772     -0.42010682811524
  H   -0.80423617684446      0.89764052461849      1.49736587289088
  N   1.14842146797167      0.08158010953030      1.43964311552707
  O   1.98908558512914     -0.53875109471897      0.77006261342635
  O   1.33120755313833      0.48335451067941      2.58843182341630
  N   0.26940973163631     -0.74664176754332     -1.29926888682841
  H   0.00937870125071     -0.70953575269053     -2.27030149110894
  H   1.23846603889311     -0.89850567043335     -1.06294404293279
  C   -1.76899146567911      0.37790493403030     -0.85943057513282
  N   -2.83557707023531      0.70121316907031     -1.23499057013154
