11
Coordinates from ORCA-job run
  C   0.53258640570470     -0.39500109860273      0.60710783848237
  C   -0.15806095249430     -0.07110550071713     -0.51276201222128
  H   1.09455177559230     -1.31433620423738      0.70680443513104
  N   0.61003259292815      0.44323175029918      1.77688697600469
  O   0.04447192603253      1.53472850002691      1.77587331298652
  O   1.25797847469797     -0.02580168429471      2.71517662983315
  N   -0.13093674623422     -0.83877689024932     -1.65677165096692
  H   -0.92491366894133     -0.74484553018843     -2.26993826538836
  H   0.20592245454471     -1.78385181956827     -1.55685896935798
  C   -0.92449629860925      1.13849898459118     -0.65646171933402
  N   -1.60813596322128      2.05625949294069     -0.92805657516921
