11
Coordinates from ORCA-job run
  C   0.55910778189807     -0.38001790340880      0.59240392880997
  C   -0.28949072956594     -0.13846636493124     -0.43607803746738
  H   1.07294771001274     -1.32354750704684      0.72144243403672
  N   0.86330198370890      0.57470783196594      1.62803551381548
  O   1.68235034038353      0.19403885724464      2.46740703617384
  O   0.31315187989044      1.67408530000252      1.61584627392787
  N   -0.64393929693047     -1.10179899385395     -1.35510515143659
  H   -0.05758638789495     -1.92077485630718     -1.39953879068425
  H   -0.95352023174346     -0.76389337632821     -2.25234509839154
  C   -0.96946386992379      1.11450744382322     -0.63293855892250
  N   -1.57785917983506      2.07015956883990     -0.94912954986161
