11
Coordinates from ORCA-job run
  C   0.51525454950790     -0.39949926965993      0.62011984039066
  C   -0.21286450958948     -0.10897405661161     -0.48524946514313
  H   0.92337996731972     -1.38299725263614      0.81340926292686
  N   0.83436433223571      0.55791451737837      1.64908362382212
  O   1.48088151352218      0.11047273579616      2.59869339548525
  O   0.45580297040336      1.72132355367123      1.52878348287433
  N   -0.41912156994343     -1.01399060174539     -1.50371979226330
  H   -1.23646560975130     -0.85864398289102     -2.07182609391425
  H   -0.24429049920057     -1.98291081884649     -1.28557140823738
  C   -0.77691870046275      1.18774183375799     -0.75200150408059
  N   -1.31902244404136      2.16756334178682     -1.11172134186056
