11
Coordinates from ORCA-job run
  C   0.08292996608274      0.53394835023826      0.76573999325433
  C   -0.28577533320524      0.20487096724495     -0.50739969848311
  H   -0.21761861879671      1.45778408382366      1.23673988713153
  N   0.84945548465913     -0.33724977457737      1.60075407291164
  O   1.07468692324160      0.04841978765176      2.74720349818577
  O   1.23517263622445     -1.42110768825995      1.13581720645040
  N   0.07160415557664     -0.88306707086396     -1.23490588561541
  H   0.51859995806036     -1.63285813183618     -0.72900329541985
  H   -0.46194576178492     -1.10211386330990     -2.05927613768173
  C   -1.09738627039863      1.17569979048712     -1.19440773474512
  N   -1.77072313965944      1.95667354940161     -1.76026190598845
