11
Coordinates from ORCA-job run
  C   0.04416557600819      0.56016409020672      0.75169536182960
  C   -0.38782942481047      0.11319961571756     -0.46395169885449
  H   -0.31399529686192      1.47677092832766      1.19490997950563
  N   1.01699407626559     -0.13826673314410      1.53177937824151
  O   1.33766383264266      0.37083549165564      2.60527068396767
  O   1.47794172445987     -1.20417839294742      1.09402637423604
  N   -0.07334196875864     -1.04217169050512     -1.10084155806475
  H   -0.28889833986263     -1.12275061275414     -2.07967113076117
  H   0.69500429363160     -1.57475746126974     -0.72223731558572
  C   -1.35943791055605      0.94542304459012     -1.12577324828850
  N   -2.14826656215817      1.61573172012280     -1.68420682622584
