11
Coordinates from ORCA-job run
  C   -0.06211277627909      0.42073652531850      0.83320838331691
  C   -0.40767226858929      0.11272764445737     -0.45093391956075
  H   -0.64552948550167      1.08050017560428      1.45724531031397
  N   1.09836177933848     -0.11447588354257      1.47410735507239
  O   1.29442007747312      0.22616493227136      2.64040186010555
  O   1.83147761571750     -0.88424787683981      0.83477395533114
  N   0.27682716687195     -0.63591930004065     -1.35112849665725
  H   -0.20484317542249     -0.95893892306104     -2.17268492162564
  H   1.05730271789972     -1.16699856426816     -0.99706908164312
  C   -1.62349585149741      0.71554656628082     -0.93310014974034
  N   -2.61573580001082      1.20390470381992     -1.33382029491287
