11
Coordinates from ORCA-job run
  C   0.14775966443053      0.63234380788366      0.67405469088423
  C   -0.40913183715843      0.09890829122901     -0.45250185578735
  H   -0.09301922954987      1.61993039698808      1.03690255431975
  N   1.10541435665034     -0.06795974769086      1.47127561521556
  O   1.54323411162002      0.52186306931074      2.45876057945824
  O   1.44170434088430     -1.21268976554360      1.13099804451872
  N   -0.24731065534775     -1.14635876571671     -0.96409823447817
  H   -0.54028450517373     -1.32286194558989     -1.90991297150118
  H   0.48646989875177     -1.70881722569203     -0.56145622316658
  C   -1.33756345331285      0.94861207973268     -1.15293217389987
  N   -2.09527269179433      1.63802980508893     -1.73109002556336
