11
Coordinates from ORCA-job run
  C   0.80121927645378      0.15323984950699      0.37802067316254
  C   -0.20506310845243     -0.13822062642460     -0.48147273750434
  H   1.84599766831655      0.03805465606752      0.12096325851855
  N   0.60024001258171      0.65039504984467      1.71569606074716
  O   1.63101364384239      0.82849126829789      2.36837955853157
  O   -0.54303775415923      0.85696524892781      2.11760002515528
  N   0.01403699388707     -0.51564411200016     -1.78841131349296
  H   0.94609587600075     -0.82457837541648     -2.01758143711620
  H   -0.71955397678575     -1.05334524256226     -2.22196660468586
  C   -1.59977012640390     -0.00940199979082     -0.15123701548821
  N   -2.77017850528092      0.01604428354944     -0.03799046782753
