11
Coordinates from ORCA-job run
  C   0.01495175439574      0.44664225455924      0.82294613085674
  C   -0.45174639063993      0.09183772422301     -0.40950523989383
  H   -0.45314282574732      1.20969426301123      1.42608392556083
  N   1.18034174814889     -0.13774485606381      1.40981043293597
  O   1.51746155436220      0.28570737823708      2.51499201502399
  O   1.78174003849760     -1.02408979174404      0.78390268006306
  N   -0.00387020696589     -0.88918122296819     -1.23341981114207
  H   0.88913565584916     -1.29652507894619     -1.00019071201651
  H   -0.28526467622455     -0.86145654990829     -2.19864338174454
  C   -1.62177521785100      0.79902020330450     -0.86203010869972
  N   -2.56983143382488      1.37509567629547     -1.25294593094391
