11
Coordinates from ORCA-job run
  C   -0.07884606614694      0.22146884096975      0.90639973688373
  C   -0.46666889116460      0.08165731562393     -0.39462317685702
  H   -0.75243446700269      0.54946476564192      1.68346818489945
  N   1.24258161635497     -0.08240244437115      1.35978684521014
  O   2.08244154454252     -0.46751289357772      0.53191228923034
  O   1.46320264749131      0.05803741232245      2.56227707986800
  N   0.28922556263549     -0.25111669327786     -1.47153499281289
  H   -0.18357848414728     -0.55489710448500     -2.30568578916885
  H   1.21035286687813     -0.61366083424929     -1.27689469408580
  C   -1.84154122316288      0.40559357019624     -0.67503092099725
  N   -2.96473510627803      0.65436806520673     -0.92007456216986
