11
Coordinates from ORCA-job run
  C   0.22875744359915     -0.38422062659936      0.78016248832197
  C   -0.14103774120811     -0.14655072004319     -0.50159538090395
  H   0.24925153811535     -1.37602625741651      1.21234096662132
  N   0.64152714096996      0.64273054797852      1.70321480903312
  O   0.69813443260811      1.81003637869873      1.32182532990008
  O   0.90939553516689      0.24778960393784      2.84002793740336
  N   -0.43164436789127     -1.15425911987383     -1.39544658344434
  H   -0.61759366883106     -2.06415480230935     -1.00285192313750
  H   -1.03399878605297     -0.90311841726540     -2.16316413285540
  C   -0.19243552639914      1.16704363300559     -1.08729415223254
  N   -0.30935600007691      2.15972977988694     -1.70721935870611
