11
Coordinates from ORCA-job run
  C   0.68879984539289     -0.22677319911477      0.53214083557751
  C   -0.18816194203256     -0.11231931665525     -0.49463469398207
  H   1.49680161766410     -0.94646883291641      0.53824846413402
  N   0.65428101125846      0.59405809392997      1.71607528543827
  O   1.51163552723922      0.32978733660508      2.56186915705212
  O   -0.19697272526762      1.47547521173867      1.81485313950162
  N   -0.07318361719347     -0.83738523510850     -1.66083454524455
  H   0.52529236149651     -1.64819028736332     -1.62989310918700
  H   -0.92388307072430     -0.96968744957489     -2.18395443971792
  C   -1.27695905408101      0.82863751121090     -0.51384131010319
  N   -2.21764995375222      1.51486616724852     -0.68002878346882
