11
Coordinates from ORCA-job run
  C   0.49595054977509     -0.40223665339300      0.63302946287247
  C   -0.21595768078552     -0.11523865597844     -0.48383315112545
  H   1.06549346792724     -1.31501379424058      0.75006335678345
  N   0.57798201314806      0.46439454074414      1.78136971783596
  O   1.30812012525997      0.06213777053864      2.68982196479988
  O   -0.05783297482194      1.51638730409194      1.79043051242553
  N   -0.35793506208317     -1.00162498650873     -1.52882870332697
  H   -0.57167645143677     -0.59757738608165     -2.42651970776380
  H   0.29628598155573     -1.76781597603549     -1.56217497075340
  C   -0.95698172160983      1.10565803254236     -0.66518691845537
  N   -1.58444824692887      2.04992980432080     -0.97817156329230
