11
Coordinates from ORCA-job run
  C   -0.04859278461490      0.44349423636984      0.82364028877151
  C   -0.44450763687956      0.05531583016066     -0.42356288965511
  H   -0.66179113270574      1.05792086406436      1.46517082093648
  N   1.20065689629108      0.05181485993873      1.39844822253230
  O   1.96839951813557     -0.65601975780785      0.72876106913460
  O   1.43525268612483      0.44791327973564      2.53963585960491
  N   0.25156547155356     -0.64960011736785     -1.35067949393865
  H   1.09809238799661     -1.09695625939568     -1.03252412787074
  H   -0.25805391618398     -1.06355482645761     -2.11249069604460
  C   -1.74141757440065      0.52179560964080     -0.84096511669844
  N   -2.80160391531681      0.88787628111897     -1.19543393677228
