11
Coordinates from ORCA-job run
  C   0.64727747947601     -0.29968719680314      0.54076914705954
  C   -0.23770509125412     -0.14232897026925     -0.47540173499105
  H   1.34465434661017     -1.12671419123695      0.58776080138272
  N   0.67376061041943      0.53701504804809      1.71682287249622
  O   0.06307232372162      1.60378656720178      1.71743431779285
  O   1.33754363294970      0.09164025001603      2.65544584505904
  N   -0.34708694544611     -1.03229698329543     -1.52197744445191
  H   -0.69679559540370     -0.64985696810492     -2.38736676953389
  H   0.41243904980633     -1.68683320837866     -1.63742776694475
  C   -1.19496418444544      0.93213894399795     -0.52318541581075
  N   -2.00319562643390      1.77213670882450     -0.67087385205803
