11
Coordinates from ORCA-job run
  C   0.11889963225538      0.56851911143833      0.73353031834204
  C   -0.34411031918122      0.16387814600791     -0.48508116177090
  H   -0.07175823476964      1.55337447066326      1.13184070117290
  N   0.91845325693763     -0.26473467731740      1.57654144320940
  O   1.18342875057656     -1.41589292162943      1.19722882450342
  O   1.29954603824232      0.22347521974144      2.63972433610223
  N   -0.23942674605270     -1.05721691410572     -1.06661731162151
  H   0.39790915273286     -1.70837169222228     -0.63420871079816
  H   -0.41303832341442     -1.13068431158217     -2.05454356548394
  C   -1.11423780289229      1.13835252629773     -1.21425540946050
  N   -1.73566540443448      1.92930104270834     -1.82415946419501
