11
Coordinates from ORCA-job run
  C   0.41744099518979     -0.44424130653645      0.66029612397013
  C   -0.16776747520111     -0.08587531497793     -0.50811011288603
  H   0.73312604940704     -1.45677474498673      0.87476529173655
  N   0.69461659645320      0.47239459017864      1.73762166382423
  O   1.19469428396783     -0.03736667396650      2.74279054086277
  O   0.42406849357074      1.66379605571063      1.60142157533084
  N   -0.32775539536960     -0.95755819367690     -1.56352715702784
  H   -1.07350412244334     -0.73946078159827     -2.20509142417586
  H   -0.23727148451776     -1.93942010241612     -1.35260311106492
  C   -0.61094672792079      1.25167039858918     -0.80100848497134
  N   -1.04670121313601      2.27383607368044     -1.18655490559854
