11
Coordinates from ORCA-job run
  C   0.57498509421327     -0.35070598857465      0.59559152367556
  C   -0.28766964555785     -0.15582134004072     -0.43104248126535
  H   1.12557106157908     -1.27186017401094      0.73413335471689
  N   0.85090628335716      0.63074223189263      1.61398922212925
  O   0.25847709714209      1.70764514565823      1.59075878871637
  O   1.69252679225906      0.29538781421476      2.45021872110108
  N   -0.61047271167295     -1.14501427717739     -1.33434666298769
  H   -0.93651594799528     -0.83149482743895     -2.23460316367542
  H   0.00737009157338     -1.94095398224680     -1.37060784764282
  C   -1.01485908124494      1.06804091130248     -0.64268529315353
  N   -1.66031903365304      1.99503448642134     -0.97040616161434
