11
Coordinates from ORCA-job run
  C   -0.05088876038503      0.39437618429453      0.84699603275274
  C   -0.41788537955538      0.11869632537272     -0.43823809921664
  H   -0.64716823785133      1.00849832168742      1.50460853793454
  N   1.13786130885671     -0.12945625947829      1.44491534571159
  O   1.88362576977040     -0.84497087393678      0.75900977927928
  O   1.34427394132123      0.16631522387835      2.62138090405541
  N   0.26900002935959     -0.57043196302240     -1.38520423848816
  H   1.06195905572574     -1.10349516186277     -1.06059989967494
  H   -0.24003245770173     -0.90528572519747     -2.18563022002359
  C   -1.66089261113092      0.70279367177666     -0.87151304025441
  N   -2.67985265840930      1.16296025648804     -1.23672510207581
