11
Coordinates from ORCA-job run
  C   0.54597451797325     -0.37608785508720      0.60655935367635
  C   -0.16736604729827     -0.08486074628987     -0.50793706955723
  H   1.11968129143718     -1.28673335906836      0.71758830641371
  N   0.64090000743366      0.49264999300690      1.75254432837125
  O   0.05952259415100      1.57557933736642      1.73870764955659
  O   1.31818544948564      0.05593843383389      2.68570732451008
  N   -0.15429002353309     -0.88080250004597     -1.63323958857302
  H   0.19016288210518     -1.82089504506415     -1.51332296950961
  H   -0.96201510232835     -0.81017021016966     -2.23171668391792
  C   -0.94677429070168      1.11438320502694     -0.66745224346375
  N   -1.64298127872454      2.01999874649105     -0.94743840750644
