11
Coordinates from ORCA-job run
  C   -0.17581918308141      0.25713525601312      0.88301233969614
  C   -0.38340286299558      0.14315375569998     -0.46105279063904
  H   -0.82478324218143      0.83148579298807      1.52656064790940
  N   0.93373905080657     -0.34839648164613      1.55147253708049
  O   1.73120448902403     -1.02757902937808      0.88676599218229
  O   1.02918774567456     -0.14838681183502      2.76197315887151
  N   0.30745090935065     -0.59819540890011     -1.36379394729934
  H   0.19207999022756     -0.38332817413944     -2.33961429027206
  H   1.18949128472301     -0.97603068846587     -1.05196308671254
  C   -1.53402607744305      0.83903281968569     -0.97651757252750
  N   -2.46312210410492      1.41110896997780     -1.41584298828935
