11
Coordinates from ORCA-job run
  C   0.38289159823211     -0.44873238440548      0.67842478601834
  C   -0.16935265822679     -0.09040805802168     -0.50594610082117
  H   0.64325630955664     -1.47054562975215      0.92119002096389
  N   0.70164506927755      0.48101328726276      1.73267157081920
  O   1.18031565599975     -0.02473258074025      2.75010866177079
  O   0.48369849035049      1.67940417725743      1.56663586996066
  N   -0.36511335742194     -0.98079719464876     -1.53938985679729
  H   -1.08900440756800     -0.74044808894016     -2.19769106214081
  H   -0.32898945126886     -1.96000345385352     -1.30182639907633
  C   -0.53362504793420      1.26085692005410     -0.84125089052106
  N   -0.90472220099678      2.29339300578772     -1.26492660017623
