11
Coordinates from ORCA-job run
  C   0.05231061489511      0.54316739883817      0.76087484479850
  C   -0.41964349106220      0.09988796519550     -0.44044485675173
  H   -0.31739013491938      1.43856433167641      1.23732210506072
  N   1.10152201410366     -0.11633041685296      1.47394199846236
  O   1.46354216228625      0.39855148413248      2.53143391218322
  O   1.58637119388268     -1.15309950919024      0.99540177194475
  N   -0.09401498565836     -1.03425377120394     -1.11088122407130
  H   0.72172686478559     -1.52913027768584     -0.78275815711376
  H   -0.33609791375379     -1.09318142815057     -2.08533702555271
  C   -1.45860942194845      0.89952595394106     -1.03679144349732
  N   -2.30071690261111      1.54629826929993     -1.54276192546272
