11
Coordinates from ORCA-job run
  C   -0.04474521003667      0.41868687736060      0.83667852268885
  C   -0.37624619136233      0.15970126958676     -0.46166994777238
  H   -0.59038514104621      1.12065356792850      1.44881393077672
  N   1.03282258868884     -0.23836079504974      1.50865930879576
  O   1.71313333375479     -1.06272471638724      0.87900136394541
  O   1.21517461617282      0.05927287630119      2.68869381873040
  N   0.26289346536894     -0.63756145353085     -1.35502732090958
  H   0.96600968882909     -1.25622713681259     -0.97997676208140
  H   -0.23821667974618     -0.91918580776345     -2.18034315419917
  C   -1.50678786490006      0.88911158320506     -0.97569762985131
  N   -2.43465260572304      1.46763373516177     -1.40913213012330
