11
Coordinates from ORCA-job run
  C   0.06391470057318      0.54006128456788      0.76259930426488
  C   -0.32085119876643      0.17786563545861     -0.49570774035592
  H   -0.28113978220817      1.44434940768894      1.24056533494018
  N   0.93326388364668     -0.25902800963694      1.56886045502439
  O   1.37932881545463     -1.31613226495711      1.09712902119056
  O   1.18273214031063      0.15953396619827      2.69888288121925
  N   0.09123195023790     -0.88445651135427     -1.23312563024543
  H   -0.46393572021704     -1.15219433697160     -2.02794370243515
  H   0.60913115097766     -1.59730594672624     -0.74146139043588
  C   -1.22355391566231      1.08320653164498     -1.15878466569710
  N   -1.97012202434675      1.80510024408749     -1.71101386746977
