11
Coordinates from ORCA-job run
  C   0.75331156753045     -0.13379852004478      0.47174486014109
  C   -0.22524823113748     -0.16100830054244     -0.46519686827828
  H   1.71082949192314     -0.61916779963485      0.33575901499619
  N   0.62895103682322      0.52297324812693      1.74837599485260
  O   -0.42678119494852      1.08176149995494      2.03923710124001
  O   1.63074779936011      0.46923685436436      2.46515079958820
  N   -0.12215743511972     -0.88366807462599     -1.63361291020398
  H   -0.68782708359535     -0.56349014028307     -2.40338007503099
  H   0.80280243026181     -1.18750037345899     -1.89560013189119
  C   -1.49807061069014      0.49249532353201     -0.30956523579466
  N   -2.56655777040752      0.98216628261187     -0.35291254961899
