11
Coordinates from ORCA-job run
  C   -0.06223797259573      0.35561715820361      0.86366793982978
  C   -0.43317737193797      0.10642517396842     -0.42590013338433
  H   -0.61837590614298      1.01408339539866      1.51359140024480
  N   1.10703277750582     -0.21258780441061      1.45898289638356
  O   1.80567644348034     -0.98268945277250      0.78225356669143
  O   1.34962807870312      0.10767266853020      2.62212200867513
  N   0.12948072478374     -0.74784925365961     -1.31781522867790
  H   1.03549011317716     -1.11813161357022     -1.07293319712513
  H   -0.09942094276192     -0.63344223561436     -2.29059797160002
  C   -1.62469912045893      0.77988619082482     -0.87413859812379
  N   -2.59039682375265      1.33001577310161     -1.25923268291352
