11
Coordinates from ORCA-job run
  C   0.45286690238066     -0.42476793809595      0.64993130308164
  C   -0.18208213300783     -0.09497243406388     -0.50068551215428
  H   0.81111060836912     -1.42442759862566      0.85793416040858
  N   0.73263566735179      0.50798689999805      1.71212150552132
  O   0.40988972853432      1.68690753503423      1.58065331977445
  O   1.29104045011627      0.02521645711070      2.69973021559590
  N   -0.34153536477855     -0.97827525876381     -1.54677480905331
  H   -0.20824566629784     -1.95483250267906     -1.33415267789520
  H   -1.11421657684817     -0.79170695430298     -2.16599395135807
  C   -0.68265113561167      1.22357385658185     -0.78710021820559
  N   -1.16781248020808      2.22629793780651     -1.16466333571544
