11
Coordinates from ORCA-job run
  C   0.50162276261187     -0.36908214380536      0.64809503128840
  C   -0.26270359160147     -0.15044882432230     -0.44927259912416
  H   0.97631705224408     -1.31932195990298      0.85449415612704
  N   0.76399457326959      0.62434411260390      1.65862484122694
  O   0.24837978405297      1.73604808825735      1.56063511706809
  O   1.51371230959373      0.26117217377143      2.56767130494201
  N   -0.58323100724294     -1.14459558442224     -1.34797286193878
  H   -0.81523605414897     -0.83937387552656     -2.27974741544652
  H   -0.02177774388954     -1.98138577517231     -1.31334969149571
  C   -0.88534456306611      1.11172124959741     -0.75000555129763
  N   -1.43773352182323      2.06992253892167     -1.15017233134968
