11
Coordinates from ORCA-job run
  C   0.28778701685092     -0.34532442261976      0.81917723772244
  C   -0.23343602543164     -0.19192059332730     -0.41405654691471
  H   0.30417079049731     -1.29921084021739      1.32806104550906
  N   0.76252875238331      0.75960714109185      1.59544636532892
  O   1.18390963085472      1.75184963329951      1.00407825621262
  O   0.70674851702824      0.62258521418587      2.81810509776399
  N   -0.56902745924345     -1.25904475730475     -1.21152573239521
  H   0.02479552575675     -2.06511611124219     -1.23026171417256
  H   -0.99659866057646     -1.06506986249927     -2.14553854410714
  C   -0.50801222187094      1.10259000522641     -0.96803254712026
  N   -0.96386586624876      1.98705459340702     -1.59645291782716
