11
Coordinates from ORCA-job run
  C   0.73043208660963     -0.16794709173078      0.49782163334652
  C   -0.23885961154516     -0.18444704670210     -0.44891435311659
  H   1.63277946786930     -0.76082090152244      0.42638457300313
  N   0.67183264291200      0.63108287871360      1.69589784167121
  O   1.67029971132790      0.56882092127210      2.41656636912113
  O   -0.33018167053800      1.30657921023397      1.92188265722543
  N   -0.21045486112330     -1.03140787217326     -1.53512788267623
  H   0.67512407493955     -1.46318080114774     -1.74895140386633
  H   -0.73133856563288     -0.73062432950483     -2.34335267166282
  C   -1.43262608857153      0.61695792675528     -0.38364809000413
  N   -2.43900718624752      1.21498710580622     -0.49755867304131
