11
Coordinates from ORCA-job run
  C   -0.15952245229903      0.09300104652188      0.91411974027791
  C   -0.44547779308693      0.04234680988315     -0.41834168560629
  H   -0.92776992158471      0.24194053739443      1.66003022564101
  N   1.14657768634281     -0.14524484296096      1.44128740877431
  O   1.26015801115470     -0.15875007172741      2.66556044148654
  O   2.08101622488250     -0.31631397858832      0.64550758791678
  N   0.37363047557677     -0.27057557114643     -1.46064609158152
  H   1.35900895910796     -0.25477440888635     -1.25019270278854
  H   0.07906500661361      0.03745170377776     -2.37407137766003
  C   -1.82211845083327      0.27862704082607     -0.75680304532755
  N   -2.94356774587441      0.45129173490618     -1.06645050113261
