11
Coordinates from ORCA-job run
  C   -0.23648686186311     -0.01721409201488      0.90574992944688
  C   -0.41057197988649      0.13347550689946     -0.43931101342425
  H   -1.01799095453599      0.18614116503935      1.62193313018588
  N   1.00447095404066     -0.42545459627263      1.48638031704087
  O   1.04654329110612     -0.50116794910205      2.71378556583172
  O   1.95940396017368     -0.67466517868067      0.73442706762776
  N   0.45856784648962     -0.14567209924040     -1.44229825084142
  H   0.27179030618708      0.23479522524765     -2.35381928913978
  H   1.41322966038667     -0.33206592869867     -1.17444243411085
  C   -1.71619765789576      0.58161310548905     -0.85181821798606
  N   -2.77375856420247      0.96021484133379     -1.20058680463074
