11
Coordinates from ORCA-job run
  C   -0.19071118752443      0.01545266071095      0.91702431584366
  C   -0.42345482500435      0.15236675460347     -0.42074118959758
  H   -0.92428714572824      0.27294666622983      1.66549435826184
  N   1.04973125678623     -0.46114067530015      1.44446838553931
  O   1.14295762739256     -0.52939885482152      2.66956833231794
  O   1.95238875317182     -0.77354166555200      0.65278621282956
  N   0.37707684889319     -0.19810636979030     -1.45893813327965
  H   0.17515198602487      0.19080970166831     -2.36429653682522
  H   1.33324574856481     -0.42502190130952     -1.23029139358135
  C   -1.72025378812778      0.66508671262076     -0.78045232256002
  N   -2.77084527444868      1.09154697094015     -1.09362202894849
