11
Coordinates from ORCA-job run
  C   0.52435238655229     -0.38122844108930      0.62296698271667
  C   -0.23369793343497     -0.12873301010624     -0.47136342628489
  H   1.09416301226753     -1.29281860651645      0.74648851823267
  N   0.65017909620687      0.51914714028522      1.74161427019244
  O   0.01445910812131      1.57135824989558      1.74374750648881
  O   1.41626841767614      0.14438957347079      2.63203851413595
  N   -0.42417303613175     -1.04819030976623     -1.47959776439290
  H   0.22040694685659     -1.82282454703774     -1.51132826773311
  H   -0.66211452547953     -0.66890424552417     -2.38213964594458
  C   -0.97909468368317      1.08766941273605     -0.66176281185103
  N   -1.61974878895133      2.02113478365248     -0.98066387556005
