11
Coordinates from ORCA-job run
  C   0.73278179349400      0.09623809205142      0.50734365195548
  C   -0.12773516316956     -0.08284263030267     -0.52410561764352
  H   1.80213589609102     -0.03560816305769      0.40874204064150
  N   0.32900766553236      0.45588454308273      1.84215108943315
  O   -0.85549207354174      0.69855792647052      2.06634904401973
  O   1.23399698411110      0.47240192980629      2.68019945226464
  N   0.28730941997199     -0.32563727104760     -1.81438298546317
  H   1.24316816899897     -0.63054143684193     -1.92262683898215
  H   -0.36263430715710     -0.81012140288147     -2.41223721070268
  C   -1.55426910340962      0.05538489080231     -0.39354742556311
  N   -2.72826928092144      0.10628352191807     -0.43788519995988
