11
Coordinates from ORCA-job run
  C   0.55087823241681     -0.38711018824698      0.59909896313410
  C   -0.22361298035012     -0.11003168801522     -0.47818040027474
  H   1.16276018961304     -1.27564967876307      0.66960805442423
  N   0.63186540647049      0.45339389939513      1.76626531390905
  O   -0.04722150599932      1.47659482830859      1.82519725178097
  O   1.39876235079066      0.05235843052367      2.64512477299327
  N   -0.38357105925471     -0.98117160102686     -1.53217299106093
  H   -0.64361586771602     -0.56861495779776     -2.41299028441926
  H   0.27983778173074     -1.73747947982328     -1.60209718530343
  C   -1.02560461516790      1.07888560360002     -0.59948661824262
  N   -1.70247793253368      1.99882483184575     -0.88036687694063
