11
Coordinates from ORCA-job run
  C   0.21592347341699     -0.34584011586991      0.79986501654433
  C   -0.21455430737631     -0.15933113424124     -0.47175882845648
  H   0.24299229016600     -1.31942833501622      1.27135408847354
  N   0.64434051155397      0.71796526863904      1.67236323257112
  O   0.64717800238956      1.87504383405746      1.25616686461186
  O   0.99633518898759      0.36329467230607      2.79971072143408
  N   -0.72728756937864     -1.17832601715828     -1.24393673393523
  H   -0.66462570300021     -1.04845957844384     -2.24144202908817
  H   -0.52707939235295     -2.11774135106478     -0.93624524401118
  C   -0.26364593286176      1.12611709923440     -1.11672609215545
  N   -0.35057656154425      2.08770565755730     -1.78835099598843
