11
Coordinates from ORCA-job run
  C   -0.10727178119378      0.32427224154265      0.87237331781003
  C   -0.42188416184013      0.10369467887153     -0.43733926719915
  H   -0.71150111763262      0.93945484087401      1.52164291254098
  N   1.06148015919266     -0.21864224576816      1.49180031929158
  O   1.25190752646100      0.07465529084504      2.67155252455808
  O   1.81303285177226     -0.93858993380569      0.81683195637256
  N   0.20556460845097     -0.69779506146344     -1.33487631832634
  H   0.00571557476513     -0.56254150978484     -2.31126326575110
  H   1.11484523719376     -1.04372481031627     -1.06806379250754
  C   -1.62086822895989      0.74737137818856     -0.90933478626869
  N   -2.59202066820937      1.27384513081660     -1.31332360052041
