11
Coordinates from ORCA-job run
  C   0.68175822527331     -0.18013125423372      0.55815693334060
  C   -0.15015096663040     -0.10602069530185     -0.50888129838846
  H   1.55994787095022     -0.81200865326292      0.57682242690814
  N   0.50314466237254      0.57437699656914      1.77303770989571
  O   -0.44016092714589      1.35745057849020      1.86404005252202
  O   1.34117892642794      0.35889519129141      2.65139197916653
  N   0.09810236365246     -0.75721938036820     -1.69770737684327
  H   -0.70798232738154     -0.95377670915577     -2.26936136152423
  H   0.77741915939870     -1.50185451423096     -1.66947530038404
  C   -1.33132173963611      0.71528723312595     -0.54516005776259
  N   -2.33193524728123      1.30500120707672     -0.73086370693041
