11
Coordinates from ORCA-job run
  C   0.48627990508720      0.62905499473156      0.49930828730756
  C   -0.38718002897380      0.17491621483390     -0.44578690649368
  H   0.73000025126761      1.67408241638883      0.61267774090974
  N   1.15242433778639     -0.23824903803973      1.42098391917885
  O   1.91912306104843      0.28935700153694      2.22622901507978
  O   0.93469460577777     -1.45730251374926      1.35382221187736
  N   -0.83886702004426     -1.08934689334445     -0.64230505644531
  H   -0.34684528596860     -1.82102443648215     -0.15171434578347
  H   -1.27325095763887     -1.30773420978836     -1.52323142196773
  C   -0.95575147338296      1.17787651043915     -1.30891301053271
  N   -1.42162739495892      1.97036995347356     -2.04207043313040
