11
Coordinates from ORCA-job run
  C   0.43704704003984      0.61270902542532      0.55240373981261
  C   -0.34436690657176      0.20238808290271     -0.48472775343360
  H   0.58696852633161      1.65094125709184      0.80520173148607
  N   1.05022680696959     -0.30388797750069      1.47001680288813
  O   1.77248184788218      0.18576503757796      2.33971013554813
  O   0.85050545923111     -1.52141960359720      1.32988886580828
  N   -0.73357307073500     -1.06984616929013     -0.75659626631387
  H   -0.23750939159668     -1.79671959496482     -0.26812418352325
  H   -1.14012206616949     -1.26756661940303     -1.65314522876248
  C   -0.89028306543740      1.24448648472403     -1.31419742569806
  N   -1.35137517994401      2.06315007703401     -2.01843041781197
