16

C	-0.304843	-0.074551	-1.482666
C	0.0	0.0	0.0
Br	-0.179302	1.768763	-2.154243
H	1.088548	0.0	0.0
H	-0.432069	0.862236	0.496661
C	0.683467	-0.930858	-2.238704
H	0.490704	-1.976076	-1.997954
H	0.609924	-0.782641	-3.314836
H	1.665641	-0.649954	-1.839434
N	-1.753054	-0.463574	-1.760612
O	-1.988939	-1.081936	-2.7944
O	-2.592865	-0.102394	-0.942437
N	-0.469172	-1.188128	0.726584
O	-0.686388	-2.228208	0.097971
O	-0.583935	-1.083623	1.945455
F	2.572484	0.0	0.0
