16

C	-0.548916	-0.058735	-1.408273
C	0.0	0.0	0.0
Br	0.525906	-1.220881	-2.554183
H	1.085455	0.0	0.0
H	-0.344845	0.902524	0.49935
C	-2.012845	-0.434934	-1.548307
H	-2.615463	0.261895	-0.954447
H	-2.318941	-0.380103	-2.591668
H	-2.158204	-1.446424	-1.176037
N	-0.413919	1.346864	-2.024756
O	0.063261	2.244382	-1.338355
O	-0.839998	1.487157	-3.168013
N	-0.448689	-1.118009	0.83015
O	-0.544703	-2.244602	0.331817
O	-0.636948	-0.882579	2.027763
F	2.50202	0.0	0.0
