16

C	-0.558189	-0.00315	-1.4036
C	0.0	0.0	0.0
Br	0.247981	-1.444643	-2.447932
H	1.085523	0.0	0.0
H	-0.411977	0.867099	0.520959
C	-2.067765	-0.067878	-1.533655
H	-2.3594	-0.023014	-2.5812
H	-2.50527	0.77868	-0.994117
H	-2.441766	-0.984756	-1.081549
N	-0.114162	1.309755	-2.066051
O	-0.555425	1.530547	-3.191696
O	0.603472	2.064456	-1.422653
N	-0.536382	-1.181222	0.72745
O	0.15104	-2.198764	0.779885
O	-1.65457	-1.075251	1.257064
F	2.549899	0.0	0.0
