16

C	-0.637433	-0.002419	-1.370316
C	0.0	0.0	0.0
Br	0.041939	-1.599702	-2.287564
H	1.089436	0.0	0.0
H	-0.305134	-0.900525	0.535894
C	-2.151759	-0.047647	-1.385176
H	-2.533238	-0.160436	-2.397903
H	-2.48084	-0.892013	-0.774963
H	-2.538793	0.88308	-0.966528
N	-0.150556	1.170375	-2.227345
O	1.002771	1.533575	-2.082482
O	-0.958011	1.634434	-3.033155
N	-0.482918	1.131884	0.79473
O	-0.804035	2.172822	0.20256
O	-0.493031	1.00576	2.020842
F	2.498753	0.0	0.0
