16

C	-0.310078	0.0288	-1.470597
C	0.0	0.0	0.0
Br	0.283534	1.692415	-2.277414
H	1.088344	0.0	0.0
H	-0.33586	-0.944354	0.43099
C	0.490848	-1.106437	-2.096607
H	1.516633	-0.968081	-1.735247
H	0.436611	-1.074542	-3.185893
H	0.099856	-2.060898	-1.731983
N	-1.790041	-0.191693	-1.782113
O	-2.341511	-1.023726	-1.063241
O	-2.312273	0.365343	-2.738417
N	-0.637613	1.057853	0.796329
O	-1.498885	1.767332	0.268317
O	-0.294844	1.141999	1.974179
F	2.575699	0.0	0.0
