16

C	-0.61525	0.123342	-1.386678
C	0.0	0.0	0.0
Br	-0.080167	-1.468056	-2.383772
H	1.089223	0.0	0.0
H	-0.38206	-0.915681	0.450101
C	-2.126195	0.210403	-1.393517
H	-2.52634	-0.676384	-0.900551
H	-2.448044	1.10094	-0.854585
H	-2.514273	0.264253	-2.409174
N	-0.022266	1.315241	-2.138705
O	1.166616	1.275062	-2.417971
O	-0.797291	2.244315	-2.387762
N	-0.504932	1.099908	0.834958
O	-1.165474	0.819006	1.850758
O	-0.226549	2.252201	0.475901
F	2.520787	0.0	0.0
