15

C	0.0	0.0	0.0
C	-0.25335	-0.193202	-1.560036
Cl	1.793213	0.0	0.0
H	0.245293	0.640326	-2.059175
C	-0.413625	1.371317	0.329251
N	-0.626859	2.495152	0.59631
N	-0.507739	-0.927671	0.932579
H	-0.308368	-1.866888	0.609594
H	-1.530178	-0.7862	0.936496
C	-1.577914	-0.346376	-2.171838
N	-2.316595	-0.530969	-3.073001
N	0.506658	-1.414864	-2.040668
O	0.283652	-2.474411	-1.463843
O	1.266728	-1.257304	-2.988657
Cl	-3.310262	0.0	0.0
