15

C	0.0	0.0	0.0
C	-0.526336	-0.098222	-1.443244
Cl	1.77636	0.0	0.0
H	-1.627193	0.017095	-1.351908
C	-0.377691	1.27648	0.647612
N	-0.548239	2.2348	1.307358
N	-0.490791	-1.161508	0.686764
H	-1.517966	-1.082006	0.662517
H	-0.194308	-1.116455	1.656084
C	-0.178633	-1.37713	-2.042807
N	0.073255	-2.399542	-2.562417
N	-0.012971	1.029866	-2.294259
O	-0.362885	2.15324	-1.948818
O	0.697926	0.760004	-3.258483
Cl	-3.398776	0.0	0.0
