15

C	0.0	0.0	0.0
C	-0.253644	-0.128523	-1.564737
Cl	1.795096	0.0	0.0
H	0.261801	0.7154	-2.028099
C	-0.420845	1.35587	0.381037
N	-0.605705	2.469945	0.704662
N	-0.503836	-0.961995	0.899687
H	-1.524274	-0.816876	0.918407
H	-0.311387	-1.88846	0.537852
C	-1.578522	-0.225424	-2.1878
N	-2.30613	-0.336793	-3.110459
N	0.487658	-1.342271	-2.093713
O	0.251645	-2.419399	-1.555183
O	1.247127	-1.160449	-3.037613
Cl	-3.288307	0.0	0.0
