15

C	-0.508689	0.005257	-1.415534
C	0.0	0.0	0.0
Cl	0.028404	1.477306	-2.19038
H	1.088053	0.0	0.0
H	-0.349473	0.910918	0.488405
N	-0.023261	-1.197675	-2.222679
O	-0.068515	-1.103301	-3.440484
O	0.331272	-2.167184	-1.56427
N	-2.048323	-0.013184	-1.494467
O	-2.582127	-0.848845	-2.206833
O	-2.595877	0.850445	-0.826135
N	-0.525047	-1.120908	0.831404
O	0.105952	-1.387382	1.845359
O	-1.579731	-1.652446	0.484124
Cl	3.250281	0.0	0.0
