15

C	-0.479469	0.010183	-1.425563
C	0.0	0.0	0.0
Cl	0.321428	1.170395	-2.415086
H	1.08616	0.0	0.0
H	-0.365032	-0.873849	0.529992
N	-0.295303	-1.407058	-2.035276
O	-0.378204	-1.478312	-3.25237
O	-0.153107	-2.334897	-1.251531
N	-2.020482	0.155506	-1.521368
O	-2.630741	-0.495984	-0.682009
O	-2.497729	0.825509	-2.417704
N	-0.492438	1.182901	0.749264
O	-1.129496	2.046595	0.145487
O	-0.231371	1.201528	1.945145
Cl	3.216776	0.0	0.0
