15

C	-0.493498	0.002932	-1.420866
C	0.0	0.0	0.0
Cl	0.127651	-1.305244	-2.358301
H	1.08616	0.0	0.0
H	-0.356914	0.880986	0.529091
N	-2.035183	0.087652	-1.510265
O	-2.513835	0.949328	-0.780418
O	-2.631633	-0.625155	-2.297008
N	-0.103685	1.342351	-2.08565
O	-0.280763	1.404036	-3.295374
O	0.271653	2.239774	-1.345622
N	-0.513015	-1.175956	0.751911
O	0.037796	-1.422543	1.815744
O	-1.478801	-1.78587	0.290205
Cl	3.21988	0.0	0.0
