15

C	-0.616366	-0.035778	-1.373278
C	0.0	0.0	0.0
Cl	-2.371893	-0.111673	-1.307712
H	1.089908	0.0	0.0
H	-0.347228	-0.861709	0.563788
N	-0.15217	1.112827	-2.280585
O	1.059661	1.140289	-2.419298
O	-0.989544	1.842278	-2.782685
N	-0.16194	-1.305152	-2.104946
O	0.09572	-2.272046	-1.404528
O	-0.173604	-1.255048	-3.326798
N	-0.456863	1.202648	0.735314
O	-0.735178	1.057236	1.923138
O	-0.488983	2.26646	0.118387
Cl	3.216748	0.0	0.0
