15

C	-0.515272	0.0012	-1.417998
C	0.0	0.0	0.0
Cl	0.159818	-1.381162	-2.244679
H	1.090782	0.0	0.0
H	-0.358754	-0.889532	0.514655
N	-2.044316	-0.073743	-1.497736
O	-2.537845	-0.41541	-2.561966
O	-2.647959	0.241456	-0.47747
N	-0.137198	1.271905	-2.213517
O	-1.0602	1.960389	-2.62589
O	1.056072	1.4451	-2.36369
N	-0.433899	1.170276	0.79772
O	-0.507891	2.252761	0.221897
O	-0.62983	0.978426	1.992299
Cl	3.212027	0.0	0.0
