15

C	-0.51446	-0.00044	-1.417444
C	0.0	0.0	0.0
Cl	0.16189	1.381234	-2.245157
H	1.090782	0.0	0.0
H	-0.355821	0.889405	0.51637
N	-0.128828	-1.26968	-2.209733
O	-1.046209	-1.958389	-2.634806
O	1.066583	-1.444419	-2.336848
N	-2.042672	0.074592	-1.497481
O	-2.535932	0.403096	-2.565436
O	-2.6446	-0.239354	-0.475629
N	-0.430353	-1.171937	0.798125
O	-0.6116	-0.983499	1.995974
O	-0.514753	-2.252594	0.218897
Cl	3.195459	0.0	0.0
