15

C	-0.477525	0.003033	-1.427761
C	0.0	0.0	0.0
Cl	0.253603	-1.199563	-2.416592
H	1.089125	0.0	0.0
H	-0.359361	0.878885	0.526699
N	-2.019844	-0.04965	-1.513055
O	-2.577438	0.67389	-0.69612
O	-2.545974	-0.725014	-2.37789
N	-0.214107	1.396803	-2.052085
O	0.002801	2.317782	-1.278468
O	-0.318018	1.463583	-3.267862
N	-0.508999	-1.174416	0.753624
O	-0.212617	-1.214312	1.940375
O	-1.193942	-2.008446	0.163278
Cl	3.210089	0.0	0.0
