15

C	-0.525383	-0.005689	-1.40699
C	0.0	0.0	0.0
Cl	-0.011614	1.389374	-2.323597
H	1.087466	0.0	0.0
H	-0.376981	-0.862771	0.553487
N	0.010364	-1.265244	-2.153267
O	-0.834947	-2.103501	-2.495612
O	1.216391	-1.370213	-2.213051
N	-2.050671	-0.179546	-1.471849
O	-2.670382	0.381458	-2.357143
O	-2.516425	-0.920896	-0.617347
N	-0.476518	1.209426	0.712535
O	-1.555472	1.707535	0.369708
O	0.194955	1.605321	1.669207
Cl	3.128518	0.0	0.0
