15

C	-0.569769	0.017506	-1.395155
C	0.0	0.0	0.0
Cl	-2.328309	0.035378	-1.401971
H	1.089869	0.0	0.0
H	-0.364387	0.863486	0.548795
N	-0.122405	1.291101	-2.119815
O	0.232676	2.228596	-1.419929
O	-0.224577	1.270832	-3.33892
N	-0.032134	-1.114335	-2.291357
O	1.175406	-1.043214	-2.458128
O	-0.818894	-1.922742	-2.755061
N	-0.454303	-1.205365	0.731602
O	-0.786982	-1.053818	1.904498
O	-0.418062	-2.27691	0.13097
Cl	3.21088	0.0	0.0
