15

C	-0.553753	0.01951	-1.400769
C	0.0	0.0	0.0
Cl	0.207642	1.31603	-2.282176
H	1.090762	0.0	0.0
H	-0.335179	0.898504	0.516601
N	-0.337084	-1.296191	-2.174828
O	-1.341547	-1.920077	-2.487664
O	0.822938	-1.578622	-2.399403
N	-2.074862	0.229082	-1.41391
O	-2.658756	-0.080585	-0.380934
O	-2.582841	0.647771	-2.442704
N	-0.451641	-1.148045	0.820929
O	-0.650924	-0.926868	2.010214
O	-0.539198	-2.243225	0.270842
Cl	3.216772	0.0	0.0
