14

C	0.0	0.0	0.0
C	-0.462006	-0.01727	-1.46795
F	1.408416	0.0	0.0
H	0.455092	-0.038141	-2.065074
H	-0.99659	-0.96325	-1.602472
C	-0.318619	1.292761	0.678821
N	-0.422468	2.267087	1.32619
N	-0.514749	-1.127818	0.698451
H	-1.544878	-0.957007	0.573702
H	-0.297515	-1.022802	1.685201
N	-1.257077	1.15806	-1.803682
H	-1.518572	1.085163	-2.781671
H	-2.102931	0.997688	-1.232363
F	-2.770037	0.0	0.0
