14

C	0.0	0.0	0.0
C	-0.455153	-0.018234	-1.455357
F	1.391496	0.0	0.0
H	-0.01559	-0.924999	-1.890209
H	-1.543583	-0.114959	-1.372314
C	-0.35884	1.298109	0.630616
N	-0.499433	2.345541	1.139097
N	-0.553207	-1.057722	0.784161
H	-1.575686	-0.789208	0.738865
H	-0.482886	-1.899664	0.219502
N	-0.015571	1.177592	-2.183092
H	-0.825187	1.732848	-2.424075
H	0.461099	0.929555	-3.0378
F	-2.808129	0.0	0.0
