14

C	0.0	0.0	0.0
C	-0.40216	-0.368587	-1.442673
F	1.408553	0.0	0.0
H	0.531536	-0.363027	-2.012224
H	-0.758141	-1.408081	-1.383972
C	-0.313576	1.415843	0.357165
N	-0.416199	2.492234	0.819209
N	-0.549504	-0.922011	0.930581
H	-0.398254	-0.571248	1.871314
H	-1.5743	-0.804359	0.713872
N	-1.348021	0.564214	-2.040625
H	-1.615917	0.180542	-2.942357
H	-2.167409	0.493821	-1.406564
F	-2.829382	0.0	0.0
