14

C	0.0	0.0	0.0
C	-0.494279	-0.023611	-1.454756
F	1.379623	0.0	0.0
H	0.247243	0.488314	-2.076346
H	-1.453363	0.493338	-1.433419
C	-0.367222	1.326186	0.579038
N	-0.512027	2.414825	0.992086
N	-0.514898	-1.026807	0.844496
H	-0.349136	-1.892922	0.338271
H	-1.543536	-0.817909	0.769398
N	-0.654435	-1.419311	-1.890101
H	-1.602346	-1.659043	-1.609739
H	-0.626266	-1.4424	-2.901669
F	-2.769951	0.0	0.0
