15
Coordinates from ORCA-job run
  C   -0.75620363424393     -0.45514663735312      0.31422850543118
  C   0.59297477939774      0.27330287657451      0.51850730336335
  Br  -1.71901070669233     -0.40722546879895      2.10202103617190
  H   1.05987920955180     -0.14388154427047      1.41559698900336
  C   -0.52111200317014     -1.87612985763922      0.06163533938060
  N   -0.30781985180167     -3.01140027679836     -0.15583263506749
  N   -1.49144753283083      0.11690675240578     -0.74478292179360
  H   -1.70580509122119      1.09218849194090     -0.56777737888221
  H   -2.34207680555770     -0.39276076960491     -0.94679694299626
  C   0.32191400727734      1.69211501912335      0.75640366298120
  N   0.09331469240810      2.83735015562759      0.88154783266272
  C   1.52074238273529      0.10060896912420     -0.69002746495868
  H   2.45726335796022      0.63093104736766     -0.50905085530068
  H   1.05364082195148      0.49836037197808     -1.59027663534185
  H   1.74574637423583     -0.95621912967703     -0.84339583465353
