15
Coordinates from ORCA-job run
  C   -0.79171212173041     -0.42548344178523      0.07586639241400
  C   0.45020741499764      0.43301240921754      0.40969819744970
  Br  -0.70491562595372     -2.06374048769820      1.28037827307621
  H   0.37607374812677      0.68073938267673      1.47614674949351
  C   -0.71832757050627     -0.94954081748053     -1.28690137790134
  N   -0.65055236977264     -1.35513012468461     -2.38810340903785
  N   -1.97572806200347      0.31724585145485      0.25076547136285
  H   -2.80655438501514     -0.19652958891023     -0.01334996149760
  H   -2.06861084442501      0.67075761309264      1.19525401589428
  C   0.36334338907778      1.68217521631538     -0.35552075788468
  N   0.35748753109852      2.68188922072065     -0.97150985917410
  C   1.79161756668416     -0.24963100823270      0.13325851161302
  H   1.90372408043469     -1.14391935407781      0.74431696126057
  H   2.60234432157967      0.44096537077807      0.37052888839251
  H   1.87260292740744     -0.52181024138655     -0.92082809546108
