15
Coordinates from ORCA-job run
  C   -0.80106098237693     -0.54473056661058      0.08334537788769
  C   0.42770726619585      0.33318891493236      0.46692710800557
  Br  -0.71234557927920     -2.18096576580086      1.17790388527034
  H   0.36056011452246      0.49041005016305      1.55043317461491
  C   -0.69794684626329     -0.93891869602417     -1.32377492269092
  N   -0.58160957484621     -1.21460555975602     -2.46036126973347
  N   -2.08949167559842      0.04842487268430      0.31125261460472
  H   -2.17653204570945      0.36144084644707      1.27149432971393
  H   -2.24005649417399      0.82869969800918     -0.31995528283978
  C   0.24476744149254      1.63125798434325     -0.18994811056216
  N   0.08643516530661      2.65668641128733     -0.74106759310456
  C   1.79032230309224     -0.26175040585320      0.10850904262512
  H   2.58274844854093      0.42309564141807      0.41533440865926
  H   1.93492412339130     -1.21268007849768      0.62040824046752
  H   1.87057833570556     -0.41955334674210     -0.96850100291816
