18
Coordinates from ORCA-job run
  C   0.76112767376928     -0.03257933826367      0.24222917487911
  C   -0.63492407300705     -0.52890185898728     -0.17248477437086
  F   1.19188963421849     -1.03843122852482      1.15853665032868
  H   -0.49986782892337     -1.49820060407183     -0.65439913432810
  C   1.77692634065661     -0.03099738693302     -0.87889835563120
  H   2.76434218645994      0.15477692420869     -0.44931714813480
  H   1.79633310463424     -1.00090706618668     -1.37518268340261
  H   1.55313515003758      0.74053558035884     -1.61301966783606
  N   0.68775965989514      1.23622317947285      0.85548584324655
  H   1.60863277623434      1.58624048708419      1.08482976096829
  H   0.11563439431894      1.22748562611895      1.68878639444760
  N   -1.16205557716910      0.36595168977369     -1.25701839866216
  O   -0.80818207610861      0.09886696663899     -2.40584262478647
  O   -1.89086287448929      1.29955437870176     -0.93596709104885
  C   -1.62657948172926     -0.62178118368568      0.96863806883831
  H   -1.86351123610608      0.36161861500316      1.37192753866398
  H   -2.55991017727139     -1.06565297160537      0.61807986404743
  H   -1.21088759542040     -1.25580180910276      1.75161658278116
