18
Coordinates from ORCA-job run
  C   0.71915609546275      0.28490349659471      0.26884098963100
  C   -0.64738536892620     -0.18694326222102     -0.29802657250616
  F   0.63960587710668      0.18683748214603      1.65157508127577
  H   -0.51982215589348     -0.39042978503747     -1.36300124182185
  C   1.82891144005826     -0.62883671336757     -0.20924921509349
  H   2.74705596050405     -0.33067545262482      0.29623623420793
  H   1.61218290530995     -1.67073336818820      0.02847413128694
  H   1.97251558165896     -0.53461960530341     -1.28819787722926
  N   1.06758300423055      1.65105583411694     -0.00650200555296
  H   0.38715569365258      2.28330548562529      0.39901895678415
  H   1.12531923605726      1.82355914150423     -1.00195556618004
  N   -1.58688956689143      0.97501417865329     -0.26220200371082
  O   -1.78494309660591      1.57103315472750     -1.32123852182708
  O   -2.04758288863005      1.29581789777470      0.83156877128136
  C   -1.26424995968512     -1.36198115940670      0.43446700810319
  H   -0.59248368026066     -2.22060579464025      0.40095081356187
  H   -1.44771506450528     -1.09861243410527      1.47347764932506
  H   -2.20741401264292     -1.64908909624797     -0.03523663153563
