18
Coordinates from ORCA-job run
  C   0.68097135616582      0.31315274403927      0.20712799231171
  C   -0.65697099628659     -0.20243835196685     -0.34631970840002
  F   0.63389287522574      0.22548576058307      1.61687406672675
  H   -0.50280687664620     -0.48779219397458     -1.38756356721804
  C   1.81435997970309     -0.59259591191093     -0.23617787672091
  H   1.62116552354269     -1.62718775619824      0.04730509600437
  H   2.73295155549593     -0.27688442926164      0.26342692771162
  H   1.95422559996382     -0.52830750593361     -1.31552421840893
  N   0.92082354270457      1.64442002888126     -0.22241920214338
  H   1.86687897765707      1.92179697854736      0.00640479749977
  H   0.27706991517071      2.28300304689871      0.22901882203586
  N   -1.67091107989584      0.89809971821860     -0.42071059158843
  O   -2.28297634126809      1.02975381383784     -1.47721548122575
  O   -1.84845170648107      1.56834755294383      0.59649125363425
  C   -1.27194470009142     -1.33176971400577      0.46200005042107
  H   -2.19118284338372     -1.67361497281358     -0.01800117806545
  H   -0.58346212671883     -2.17534201291787      0.52323178179614
  H   -1.49263265485768     -0.98812679496687      1.47105103562938
