18
Coordinates from ORCA-job run
  C   0.77666641956987     -0.13591841125168      0.33493910259759
  C   -0.72055246066883     -0.46440216483636      0.25390187693559
  F   1.43097616360080     -1.39168393818633      0.35664023938230
  H   -1.00134961424542     -0.95132888532728      1.19038641779334
  C   1.35110194188445      0.63232658560686     -0.83351675806843
  H   0.93796207465619      1.63962862847309     -0.87731457840115
  H   1.14844633261936      0.11427984062959     -1.76823643292731
  H   2.43360024702016      0.69915685620811     -0.70090102348048
  N   0.98587019753593      0.56935477678395      1.55148543366179
  H   0.79025720313745     -0.02713428796817      2.34698753977354
  H   1.94279479924396      0.89349343506745      1.61710717551983
  N   -0.94561475849325     -1.52939823373499     -0.77762608780257
  O   -0.84526172193698     -1.20199179429715     -1.95920609693380
  O   -1.22169911012839     -2.65459448776127     -0.37093693360611
  C   -1.60165016861362      0.73200427705799     -0.04052843543945
  H   -1.40036353432106      1.51095938740077      0.69479972934128
  H   -1.40648694184061      1.11652671438571     -1.04075993248147
  H   -2.65469706902001      0.44972170174971      0.02077876413550
