18
Coordinates from ORCA-job run
  C   0.81797167084978     -0.19395109177877      0.16484997595645
  C   -0.66490288903716     -0.58726081911430      0.11288694380605
  F   1.51264599284259     -1.28855353528336     -0.40449066180378
  H   -0.80413767242815     -1.43448551628284      0.78798568860476
  C   1.20724597626894      1.02966102061309     -0.63297964627572
  H   0.89879961296548      0.92346827758216     -1.67064418844925
  H   0.76027550733461      1.92840287865295     -0.20899901078141
  H   2.29509085077410      1.12700803700788     -0.60179285172227
  N   1.16009732120588     -0.03029565194999      1.53534282069358
  H   1.09216452614867     -0.91413417124713      2.02635622616217
  H   2.10527266937057      0.32048145037678      1.62862508395320
  N   -0.98570769992321     -1.15596783937203     -1.23703114703506
  O   -1.05337123575246     -0.36901888917188     -2.18016884407918
  O   -1.16518322563337     -2.36861341146058     -1.30660907066773
  C   -1.61714698170624      0.54602286088481      0.43391948968764
  H   -1.56589042855769      1.31980040861854     -0.33098136701310
  H   -1.34995507158913      0.97188237263041      1.40099719027582
  H   -2.64326892313316      0.17555361929426      0.48073336868784
