18
Coordinates from ORCA-job run
  C   0.83231049450492     -0.33619125645133      0.24960354839113
  C   -0.69494067507804     -0.51437604145761      0.14435658828928
  F   1.34473842000068     -1.60918204662778     -0.01632234776696
  H   -0.97920887761414     -1.24839584526037      0.90229954992855
  C   1.45353457040071      0.62155104284170     -0.74220618714073
  H   1.23998594477001      0.30778279186901     -1.76149132322458
  H   1.08327125886775      1.63941751684464     -0.60631606306739
  H   2.53176158997549      0.60970082477642     -0.57865791935529
  N   1.23537141645608      0.01068569890325      1.57736745743924
  H   1.24886990779778      1.00705301225454      1.73501140037145
  H   0.69032353079503     -0.45505940166914      2.29091359713970
  N   -1.04993195577293     -1.18558336826677     -1.14875047378683
  O   -0.98969511227746     -0.50452360987932     -2.17231963355373
  O   -1.37086832442387     -2.36980649452681     -1.09771831244549
  C   -1.49008311256403      0.76877176923802      0.27737800690728
  H   -1.27290594908150      1.44669853624910     -0.54685664781151
  H   -1.25240529927567      1.25922800006940      1.22255840254387
  H   -2.56012782748078      0.55222887109302      0.26915035714197
