18
Coordinates from ORCA-job run
  C   0.68974248637028      0.37073903894442      0.24788021514746
  C   -0.70068069525016     -0.02345660539907     -0.31369347273713
  F   0.48565529951887      0.50784833214727      1.62768353127569
  H   -0.65456532244123      0.04400965802052     -1.40306594142278
  C   1.70258432014722     -0.73850875555836      0.04682739367503
  H   1.44001299251335     -1.60838690199428      0.64620916744233
  H   1.76933271853333     -1.03352514422508     -1.00350746900568
  H   2.67515898181972     -0.37282818962805      0.38017659222206
  N   1.21729657314476      1.60018525395349     -0.23876266816365
  H   0.49880199221493      2.27662964369540     -0.45885512161985
  H   1.82384461500803      1.46482105270033     -1.03370768278014
  N   -1.66851661549795      1.05546990464675      0.08880323725634
  O   -1.62460947523319      2.10310924950240     -0.56225104347242
  O   -2.41176916631496      0.84726778779334      1.04081977212410
  C   -1.21206046016284     -1.37068708886962      0.15101164568650
  H   -0.62086795254219     -2.16694605254354     -0.30303290686608
  H   -1.15567675662940     -1.44783325160122      1.23548412740179
  H   -2.25168353519862     -1.50790793158467     -0.14901937616361
