18
Coordinates from ORCA-job run
  C   0.84631202708709     -0.09628343010606      0.09219047850623
  C   -0.55893977091660     -0.69561095931723     -0.05615089374384
  F   1.66642026796853     -0.85258194024151     -0.77985611558351
  H   -0.52701696426325     -1.71142562672727      0.34385404012291
  C   0.99621089672642      1.35108000885005     -0.31781903583793
  H   2.05637470074288      1.61161881296635     -0.27275322032467
  H   0.44320592742945      2.00500396645598      0.35584863100434
  H   0.64688171712326      1.49772293108392     -1.33743690803930
  N   1.23868603483894     -0.27851743154893      1.44669255028938
  H   2.12292551775539      0.18009685921226      1.62789585314017
  H   1.33487421184362     -1.26448627505905      1.65974230709236
  N   -0.86720410335886     -0.89879233067446     -1.50947921959859
  O   -0.86388252972157     -2.05335844911812     -1.92739072536721
  O   -1.10885637197328      0.10287957192739     -2.18147725288436
  C   -1.65391609083338      0.12627105774588      0.59185212175770
  H   -2.60696498351814     -0.40382808010630      0.53665194065629
  H   -1.76463256757875      1.08537837249436      0.08761083488231
  H   -1.40147791935176      0.29283294216275      1.63902461392769
