12
Coordinates from ORCA-job run
  C   -0.64081816009959     -0.54327345295415      0.38486900707475
  C   0.56411779482133      0.30023881062328      0.70693490027880
  Cl  -1.77367550985868     -0.48605115879989      1.73750868426389
  H   0.29722253973696      1.34420334432818      0.85187072643021
  H   -0.40200394623300     -1.58033272130850      0.16839780959611
  H   1.07164481674291     -0.07970852574205      1.59469338998352
  N   -1.34260560233296     -0.01986196257135     -0.84634065597591
  O   -1.23050242783830      1.17731211297982     -1.08579375927180
  O   -1.98523548995666     -0.84319022063541     -1.48351816861123
  N   1.56210223201974      0.25782604495226     -0.40825700961299
  O   2.47657192174450      1.06773139680904     -0.34010127349113
  O   1.40418183125375     -0.59489366768124     -1.27926365066423
