12
Coordinates from ORCA-job run
  C   -0.71920125337890     -0.52888856594834      0.29021602759206
  C   0.72867705813132     -0.60766480560609     -0.13310704487841
  Cl  -0.89327881824446     -0.26153931749029      2.00997782436408
  H   1.22914759389353     -1.43781574028919      0.36097836622331
  H   -1.21132654991824     -1.46819105796401      0.03281876112793
  H   0.79410096130938     -0.70857697555206     -1.21683917220967
  N   -1.46892638473860      0.51342826972630     -0.53912107663784
  O   -1.33294198157735      0.34608673789839     -1.74593776887497
  O   -2.14986117590291      1.35283213468194      0.01814299863071
  N   1.48487804918691      0.62852777044099      0.23152357614060
  O   0.89427656092594      1.69487469095429      0.09188261882038
  O   2.64445594031337      0.47692685914807      0.59846488970183
