12
Coordinates from ORCA-job run
  C   -0.64016058105290     -0.62758872152946      0.27538955483097
  C   0.73159177127549     -0.51308786816088     -0.34702242366149
  Cl  -0.57262635538777     -0.69066396116860      2.02197229680622
  H   0.64038537578834     -0.39964993906216     -1.42768791548064
  H   -1.11616812820113     -1.54017184132938     -0.08668287168309
  H   1.34106258608856     -1.37989313935293     -0.10045845336139
  N   -1.55663192112620      0.48662766618857     -0.23072574030411
  O   -2.18280129690597      1.16143018171318      0.56384680771765
  O   -1.59936875178203      0.54555254261804     -1.45438826395758
  N   1.46865018187088      0.68713264534271      0.15208990888456
  O   0.81593579983548      1.71894177946134      0.27388459202824
  O   2.66913131959726      0.55237065527957      0.35978250818065
