12
Coordinates from ORCA-job run
  C   -0.65940522027167      0.13140499352267      0.36016986252779
  C   0.63901918415750     -0.05930041365153     -0.39315572498371
  Cl  -0.81285728807951      1.75722520268011      0.98133928782930
  H   0.79251484756438      0.71529882943274     -1.14240530455098
  H   -0.74271301810968     -0.57992881443158      1.17872583174602
  H   0.66955375265122     -1.05681788689188     -0.83428437437370
  N   -1.78170444290411     -0.22240268341437     -0.60698663033697
  O   -2.49563840796984      0.65879749784956     -1.05653588552520
  O   -1.83269797446193     -1.42163071231205     -0.86368797082068
  N   1.78788726241868      0.01778676252705      0.56131914104198
  O   1.67167337192761     -0.60959188669837      1.60970818931360
  O   2.76336793307735      0.66915911138763      0.20579357813255
