12
Coordinates from ORCA-job run
  C   -0.67625191283199      0.01979967893210      0.30227189874219
  C   0.68625291995393      0.00208081304297     -0.35092230804620
  Cl  -0.99395691730805      1.56744410913511      1.07783898682020
  H   0.83400886869670      0.86092624884862     -0.99905652220795
  H   -0.79347434871838     -0.77195994608988      1.03662925166183
  H   0.82826480102686     -0.93102545774939     -0.90168692833422
  N   -1.71424796327758     -0.22282936379462     -0.76245199136617
  O   -1.59462733562624      0.41233275249456     -1.80491482047828
  O   -2.58961446435674     -1.03842997876210     -0.49245915734274
  N   1.74061949299046      0.03464859767513      0.70787868293414
  O   2.67569129012053      0.80912079460066      0.53908976147342
  O   1.59633556933052     -0.74110824833317      1.64878314614378
