17

C	0.0	0.0	0.0
C	-0.579345	-0.103673	-1.402666
Br	1.968452	0.0	0.0
H	-1.676946	-0.169445	-1.191314
H	-0.309453	0.765616	-2.00153
C	-0.49299	1.331826	0.550244
H	-1.589069	1.238644	0.517313
H	-0.141288	1.47061	1.576107
H	-0.143657	2.171168	-0.058412
C	-0.478244	-1.12554	0.90474
H	-0.130732	-2.100833	0.565241
H	-1.573632	-1.05865	0.854423
H	-0.120605	-0.951422	1.923632
N	-0.114684	-1.275852	-2.178211
O	0.595237	-1.061985	-3.167503
O	-0.464598	-2.399736	-1.814268
F	-2.983424	0.0	0.0
