17

C	0.0	0.0	0.0
C	-0.221549	-0.062207	-1.526702
Br	1.974269	0.0	0.0
H	0.251144	0.805601	-1.986327
H	0.230255	-0.976513	-1.911496
C	-0.527046	1.280295	0.604786
H	-1.624815	1.156826	0.521208
H	-0.170238	2.158923	0.060323
H	-0.222455	1.358292	1.652637
C	-0.528803	-1.225976	0.706628
H	-1.626413	-1.109066	0.609882
H	-0.169965	-2.146268	0.237214
H	-0.227519	-1.217575	1.758168
N	-1.615503	-0.067122	-2.08356
O	-2.098814	-1.163283	-2.345201
O	-2.080887	1.020226	-2.406484
F	-2.916778	0.0	0.0
