17

C	0.0	0.0	0.0
C	-0.222417	0.070309	-1.526187
Br	1.974271	0.0	0.0
H	0.22804	0.987251	-1.906168
H	0.251158	-0.794636	-1.99024
C	-0.528852	1.221908	0.713974
H	-0.22558	1.209099	1.764837
H	-0.171961	2.144797	0.247829
H	-1.626493	1.104593	0.617898
C	-0.527329	-1.283259	0.598548
H	-1.625081	-1.158424	0.516421
H	-0.172054	-2.158744	0.048195
H	-0.221455	-1.3676	1.645433
N	-1.616635	0.075792	-2.082769
O	-2.100592	1.172581	-2.340708
O	-2.080953	-1.0109	-2.409399
F	-2.91664	0.0	0.0
