15
Coordinates from ORCA-job run
  C   -0.37650123117971     -0.04394263760992      0.09849540054353
  C   0.90747472050177      0.31638625157828     -0.10145160766226
  C   -0.80069513300708     -1.39139726440323      0.61049925522186
  H   -0.11102824627823     -1.79901940820635      1.34704354180609
  H   -1.79347360724430     -1.30990704664432      1.05223021104829
  H   -0.84388114837452     -2.09804942377629     -0.22120944599325
  C   -1.48895609982686      0.91944684083444     -0.19429619861132
  H   -1.15522583537715      1.83955977820408     -0.67214644263558
  H   -1.98862662151704      1.16906107383919      0.74751572877728
  H   -2.22977564147403      0.42683771508405     -0.83215061203823
  N   2.03803823573984     -0.56321146788593      0.23364273887108
  O   3.03890271167201     -0.01754440877097      0.68870471781043
  O   1.89217597868471     -1.76702081659357      0.04419291441990
  C   1.30631297383782      1.62048842085209     -0.52784202897976
  N   1.60425894384277      2.69631239349846     -0.89522817257806
