15
Coordinates from ORCA-job run
  C   -0.37167119187265     -0.03238380840037      0.02118869187992
  C   0.91015961092458      0.33431370918326      0.22157367989789
  C   -1.42451212631891      1.00643549708263     -0.22299162240061
  H   -1.95924435618302      0.76866954065459     -1.14782390698294
  H   -2.16109080863958      0.97898073193966      0.58599127879048
  H   -1.02448614329087      2.01701549811711     -0.29856337578021
  C   -0.84581912101714     -1.45623469097255      0.01573548849122
  H   -1.90122642086624     -1.48822079760069      0.29290729700198
  H   -0.74693725809431     -1.87559310602073     -0.98992908736805
  H   -0.27872827486250     -2.10046303024567      0.68572904905927
  N   1.98025428686816     -0.64425028162634      0.48685172283723
  O   1.94706192772270     -1.70521848197798     -0.13018499548669
  O   2.82646138630008     -0.31104080365541      1.31180889340454
  C   1.35805381447414      1.68926268225633      0.26706081855073
  N   1.69272467485555      2.81672734126617      0.27864606810526
