15
Coordinates from ORCA-job run
  C   -0.37781530589275     -0.04439005087999      0.12162333487522
  C   0.91959601242110      0.30740758059227     -0.02211594348138
  C   -0.86441308795120     -1.40141717321550      0.54364702036298
  H   -1.95373730625353     -1.43448417352347      0.49301330484232
  H   -0.45166932636222     -2.19183754146116     -0.08333944768940
  H   -0.55210899399100     -1.62617202016641      1.56507231180748
  C   -1.45343868791628      0.96556475731432     -0.15080504758110
  H   -1.07437611595868      1.94180450870714     -0.44789309155903
  H   -2.07045593363553      1.08248511727338      0.74604836711126
  H   -2.11136953918054      0.58513362515843     -0.93828881982669
  N   2.05776903017731     -0.60497698820090      0.20751516950785
  O   3.16128637511639     -0.18875850537462     -0.13277027513485
  O   1.82999369981730     -1.69999993882440      0.71247667618590
  C   1.32992038359477      1.61219209814692     -0.44095977638624
  N   1.60981879601485      2.69844870445400     -0.79422378303434
