15
Coordinates from ORCA-job run
  C   -0.37569739278462     -0.02260977608025      0.03138436451172
  C   0.91865557685481      0.31013339067561      0.20864260904925
  C   -1.39867904248283      1.04228390206595     -0.22873093497365
  H   -1.93226958156199      0.80853130187580     -1.15567006466702
  H   -2.14193124204118      1.04401897820516      0.57488660846810
  H   -0.97068056149924      2.04073237927230     -0.31135734926122
  C   -0.89082313422311     -1.43198277508245      0.05898891152182
  H   -1.94818780869200     -1.42787482680657      0.32935276413545
  H   -0.79414617531042     -1.87976211318968     -0.93426519093046
  H   -0.34649246532532     -2.07282464602651      0.75091430789135
  N   1.96408206969670     -0.69323066588276      0.48000116178879
  O   1.89007748159430     -1.76714944362711     -0.11054020464469
  O   2.83421779524257     -0.36511308290399      1.28208779951307
  C   1.40873295651820      1.65104938312472      0.21228333147871
  N   1.78314152401413      2.76579799437979      0.19002188611877
