15
Coordinates from ORCA-job run
  C   -0.37204089366355     -0.01740031446520      0.16699850026047
  C   0.97571831030215     -0.03792864533530      0.13944679765054
  C   -1.10502217967789     -0.34123875755677      1.43433145428046
  H   -1.66958495789089      0.53645731635381      1.76477232830786
  H   -1.83462123255434     -1.13273549079678      1.23658109391198
  H   -0.44928143171929     -0.65981969222762      2.24398252901285
  C   -1.23198042127954      0.30406615133757     -1.01971821412713
  H   -0.76976832815088      1.01055865121649     -1.70697392946151
  H   -1.43084030662993     -0.60977379619140     -1.58773445698283
  H   -2.18827510148747      0.70493554189965     -0.67839286892910
  N   1.74913227583807      0.28834618454991     -1.07215868241562
  O   2.78294545721473      0.92796931248073     -0.89845065368892
  O   1.30985137960802     -0.10108213511397     -2.15058041492698
  C   1.79511083818734     -0.31181384143272      1.27636820944693
  N   2.43865659190348     -0.56154048471840      2.22852830766099
