15
Coordinates from ORCA-job run
  C   -0.37390333543818     -0.02963300294964      0.03716981518966
  C   0.91913014781714      0.32107512675026      0.18841344608981
  C   -1.41222548942133      1.01796021453472     -0.23364872669105
  H   -2.13245769427206      1.04301566727638      0.59038147305796
  H   -1.97040556848730      0.74649987922803     -1.13529773142758
  H   -0.99526538943668      2.01612750696029     -0.36302216528036
  C   -0.87621185949137     -1.44160193104377      0.10409434658181
  H   -0.83807972238558     -1.89104717872855     -0.89294203369224
  H   -1.91682133773579     -1.44227649418866      0.43409550582542
  H   -0.28880078935676     -2.07823314856764      0.76296647280589
  N   1.97984327714904     -0.66233898535476      0.47157819074069
  O   2.85124127987372     -0.30647681008242      1.26029130858185
  O   1.91512426938160     -1.74924608110471     -0.09595483113992
  C   1.39121999427884      1.66823666602914      0.15512686604001
  N   1.74661221752472      2.78793857124135      0.09674806331804
