15
Coordinates from ORCA-job run
  C   -0.37412734247422     -0.01089913546171      0.15864810242604
  C   0.97393175555142     -0.01872508615327      0.17296796967757
  C   -1.14303915676885     -0.35322241689764      1.39957455326347
  H   -1.85859090802770      0.44704632383098      1.61262128208822
  H   -0.50929635589881     -0.50160701233732      2.27331666155946
  H   -1.72561226559284     -1.26427791494151      1.22976852839391
  C   -1.19948690431670      0.33746961039681     -1.04489709850624
  H   -2.17144020983496     -0.15447636224414     -0.97355617675325
  H   -1.36803827900726      1.41814856136329     -1.07530946168133
  H   -0.72518497815142      0.06377555597124     -1.98581648034842
  N   1.78071030756103      0.29110939441272     -1.02129446556062
  O   2.79614077785553     -0.38149915328414     -1.17815352548668
  O   1.38413266141950      1.18884298071563     -1.75912774983847
  C   1.76083264891547     -0.38625790375893      1.30640499383691
  N   2.37906824876982     -0.67642744161200      2.26385286692942
