15
Coordinates from ORCA-job run
  C   -0.37477746397807     -0.03050521969236      0.03049921025376
  C   0.90636665650044      0.34057316778429      0.22331040868328
  C   -1.39519464110458      0.97687703027707     -0.40836858888634
  H   -1.75369651822580      0.71668553832660     -1.40989543024316
  H   -2.26057744444681      0.93359876919572      0.25981395481398
  H   -1.01164442536882      1.99667440252672     -0.43032940059759
  C   -0.88097346527608     -1.42799878900127      0.23120030657322
  H   -0.13534690860807     -2.19075695197051      0.01319820204946
  H   -1.75747421583066     -1.59342896115716     -0.39825978091039
  H   -1.18186471814945     -1.56657832102126      1.27405104015758
  N   1.95081452828082     -0.61812283772443      0.62878112626004
  O   3.04380754727061     -0.48890964401155      0.08387024320636
  O   1.65384812574398     -1.46055400602872      1.47103312162734
  C   1.40723330722741      1.65700565667034     -0.00612755396526
  N   1.78847963596508      2.75544016582651     -0.18377685902228
