15
Coordinates from ORCA-job run
  C   -0.37334882718983     -0.04935728459868      0.04233451250171
  C   0.89663026577777      0.37536785232701      0.19399140959711
  C   -1.46087276641446      0.92829361025723     -0.28964719208224
  H   -1.86490815745115      0.70302388351345     -1.28173589261672
  H   -2.28294384362860      0.81107134148265      0.42325237903937
  H   -1.12748896946933      1.96541742321411     -0.27529225762710
  C   -0.80313673069829     -1.47905619477837      0.19281933784939
  H   -1.70041753710262     -1.65132087161699     -0.40396261137494
  H   -0.03415506212311     -2.19382733149178     -0.09504668259178
  H   -1.04964169362576     -1.67858171895917      1.24021524475873
  N   2.00637588828316     -0.54551769101653      0.49829763671017
  O   1.79091609188885     -1.45215302962984      1.29760761890183
  O   3.06789039652802     -0.32140395010348     -0.07702103231038
  C   1.31501525383582      1.72914021472529      0.02042649522429
  N   1.62008569138952      2.85790374667508     -0.10623896597944
