15
Coordinates from ORCA-job run
  C   -0.35476187833308     -0.13317164115935      0.11986197390061
  C   0.90701474637460      0.31389523868725      0.27686438128065
  C   -1.08424877944360     -0.14148378691275     -1.19150161653132
  H   -1.83822036187406     -0.93061305493940     -1.18092897599937
  H   -1.59707059986056      0.81494752231751     -1.33100693265916
  H   -0.42827423627231     -0.27972012667728     -2.04921454792483
  C   -1.12168450371187     -0.65641057618351      1.29734036543340
  H   -2.08984868450697     -0.14910821563058      1.35332087394180
  H   -0.59981924148414     -0.52502380240384      2.24456785519495
  H   -1.32779288432915     -1.72210903347399      1.15520215834033
  N   1.71271808764791      0.81711564969663     -0.85007968705277
  O   2.89924891499009      0.50069720742459     -0.84999738429811
  O   1.14606331862246      1.51006495790105     -1.69035482422195
  C   1.61579521102502      0.29457384423291      1.51590027621578
  N   2.16088089115565      0.28634581712076      2.55802608437999
