15
Coordinates from ORCA-job run
  C   -0.37645736189686     -0.02438293979789      0.12011866810730
  C   0.91533294873531      0.32222212863261     -0.04033726647213
  C   -0.82926185138025     -1.39411980469242      0.53393258647774
  H   -0.90855482075181     -1.44692756864220      1.62357606254667
  H   -0.14621685207497     -2.18464126023634      0.22894062697592
  H   -1.81883719694465     -1.59155733226697      0.11527277768417
  C   -1.46652504594848      0.97966735544136     -0.10638909446765
  H   -1.10045312506723      1.99627725126051     -0.24228378712164
  H   -2.15042730175551      0.95760379418553      0.74748424720950
  H   -2.05182892851551      0.69550949060839     -0.98783104271038
  N   2.01859888036558     -0.63195924964685      0.16691728139723
  O   2.93212681387594     -0.58896701596194     -0.65300591581452
  O   1.93977319769163     -1.39185996807422      1.12818904593605
  C   1.35415710563099      1.61213171218453     -0.46493821293298
  N   1.68757353803582      2.69200340700592     -0.79064597681528
