16

C	0.0	0.0	0.0
C	-0.387806	-0.000654	-1.501402
F	1.349443	0.0	0.0
H	-1.476331	0.032721	-1.499453
C	-0.495166	1.200344	0.682538
N	-0.608415	2.223997	1.249982
N	-0.422967	-1.21418	0.806435
O	-0.39337	-1.080278	2.025006
O	-0.608998	-2.277831	0.225145
N	0.220092	-1.151304	-2.190867
H	-0.122049	-1.106793	-3.147286
H	-0.160708	-1.995359	-1.777341
N	0.166091	1.231944	-2.035173
H	-0.397926	1.554963	-2.808565
H	1.108372	1.045992	-2.358381
F	-2.416584	0.0	0.0
