16

C	0.0	0.0	0.0
C	-0.514417	0.119118	-1.433963
F	1.36002	0.0	0.0
H	-1.610118	0.175688	-1.257619
C	-0.487314	1.094324	0.848594
N	-0.604009	2.024192	1.557761
N	-0.316609	-1.333513	0.702324
O	0.262661	-2.309533	0.231038
O	-0.992073	-1.328566	1.719714
N	-0.184474	-1.060543	-2.20828
H	-0.58611	-0.952416	-3.131627
H	0.820557	-1.169638	-2.29878
N	0.01308	1.401573	-1.907621
H	-0.607532	1.771863	-2.614638
H	0.93365	1.278674	-2.314371
F	-2.600596	0.0	0.0
