16

C	0.0	0.0	0.0
C	-0.195902	0.170762	-1.57183
F	1.365698	0.0	0.0
H	0.518123	-0.571312	-1.953689
C	-0.513972	1.095262	0.823361
N	-0.71464	2.06704	1.453854
N	-0.418863	-1.344333	0.503343
O	-0.44731	-2.258419	-0.318674
O	-0.563309	-1.470315	1.711359
N	0.261659	1.541487	-1.822482
H	-0.136725	1.803656	-2.710661
H	1.269734	1.58716	-1.879628
N	-1.448706	-0.009607	-2.229699
H	-2.149817	0.163904	-1.470734
H	-1.54221	-0.997685	-2.43266
F	-2.456226	0.0	0.0
