16

C	0.0	0.0	0.0
C	-0.308612	-0.045814	-1.573322
F	1.358267	0.0	0.0
H	0.655108	0.341533	-1.950525
C	-0.477109	1.248629	0.594474
N	-0.597694	2.359246	0.962836
N	-0.359619	-1.170556	0.885604
O	-0.019302	-2.275334	0.468287
O	-0.801677	-0.941479	2.001964
N	-1.342192	0.799719	-2.090455
H	-2.123846	0.589255	-1.430493
H	-1.069632	1.766203	-1.947845
N	-0.583304	-1.394276	-2.026405
H	0.173429	-2.022078	-1.79014
H	-0.681301	-1.327721	-3.032438
F	-2.402139	0.0	0.0
