16

C	0.0	0.0	0.0
C	-0.475453	0.398796	-1.456047
F	1.359405	0.0	0.0
H	-1.201313	1.186039	-1.286119
C	-0.454313	0.977067	0.99343
N	-0.55333	1.855421	1.768295
N	-0.34031	-1.395993	0.478355
O	-0.049997	-2.305116	-0.29968
O	-0.716833	-1.548651	1.630295
N	-1.18488	-0.603855	-2.222296
H	-0.655108	-1.466695	-2.224691
H	-2.017211	-0.740905	-1.640068
N	0.674781	0.973822	-2.153488
H	0.312491	1.221022	-3.068108
H	1.37293	0.253176	-2.3028
F	-2.403117	0.0	0.0
