16

C	0.0	0.0	0.0
C	-0.212095	-0.022136	-1.575349
F	1.369455	0.0	0.0
H	0.588262	-0.711198	-1.882483
C	-0.4947	1.153697	0.738678
N	-0.600935	2.140066	1.370049
N	-0.391183	-1.286875	0.67435
O	-0.553789	-1.270758	1.887674
O	-0.374239	-2.293905	-0.02948
N	0.056596	1.357429	-1.985834
H	1.049508	1.55267	-1.939148
H	-0.251699	1.417282	-2.948027
N	-1.425748	-0.450815	-2.193972
H	-1.432745	-1.462389	-2.146921
H	-2.154045	-0.156158	-1.506132
F	-2.421833	0.0	0.0
