16

C	0.0	0.0	0.0
C	-0.394901	0.036618	-1.491123
F	1.361034	0.0	0.0
H	-1.48609	0.053809	-1.46494
C	-0.487771	1.182463	0.716686
N	-0.583736	2.187286	1.320413
N	-0.368567	-1.235556	0.806172
O	-0.168701	-2.321922	0.274434
O	-0.674456	-1.065539	1.980372
N	0.098169	-1.130515	-2.212014
H	-0.0322	-0.940963	-3.199247
H	1.09301	-1.243255	-2.046876
N	0.120161	1.329039	-1.960003
H	-0.437581	1.647673	-2.740349
H	1.08211	1.230539	-2.262582
F	-2.416591	0.0	0.0
