15

C	-0.463815	-0.034998	-1.454078
C	0.0	0.0	0.0
Cl	-0.165328	1.566723	-2.209468
H	1.088445	0.0	0.0
H	-0.367737	-0.894825	0.510435
C	0.388732	-1.071479	-2.182048
H	0.198454	-2.059278	-1.755829
H	1.442098	-0.822287	-2.03516
H	0.140322	-1.08726	-3.244883
C	-1.885013	-0.35079	-1.622308
N	-2.992386	-0.6927	-1.818484
N	-0.566026	1.154541	0.74615
O	-1.784713	1.3181	0.658951
O	0.195266	1.843164	1.41521
Cl	3.368495	0.0	0.0
