15

C	-0.462735	-0.032103	-1.454415
C	0.0	0.0	0.0
Cl	-0.162735	1.572237	-2.206454
H	1.088448	0.0	0.0
H	-0.368209	-0.895875	0.508417
C	0.389111	-1.068964	-2.185357
H	1.443306	-0.821333	-2.038784
H	0.196914	-2.058675	-1.761795
H	0.140023	-1.081266	-3.247555
C	-1.885298	-0.344066	-1.621757
N	-2.993824	-0.681979	-1.817418
N	-0.565083	1.152674	0.74894
O	-1.783551	1.31871	0.660682
O	0.196808	1.838393	1.420112
Cl	3.366712	0.0	0.0
