13

C	0.0	0.0	0.0
C	-0.497741	0.004388	-1.431036
F	1.381892	0.0	0.0
H	-1.612707	-0.034012	-1.241722
H	-0.378052	0.872379	0.533859
C	-0.433978	-1.227729	0.696028
N	-0.527669	-2.231904	1.299678
N	0.002523	-1.172439	-2.12237
H	-0.47211	-1.286007	-3.007856
H	0.996144	-1.07878	-2.29813
C	-0.127376	1.265933	-2.087151
N	0.195669	2.232198	-2.675798
H	-2.796561	0.0	0.0
