13

C	0.0	0.0	0.0
C	-0.414821	0.216248	-1.477962
F	1.378019	0.0	0.0
H	0.507928	0.561021	-1.954792
H	-0.359905	0.852628	0.57476
C	-0.439933	-1.253697	0.625363
N	-0.533188	-2.285418	1.180518
N	-1.414107	1.267009	-1.576514
H	-1.738112	1.311922	-2.540424
H	-2.209682	0.883792	-0.975724
C	-0.758021	-1.058723	-2.150055
N	-0.988983	-2.064634	-2.714948
H	-2.84683	0.0	0.0
