13

C	0.0	0.0	0.0
C	-0.238237	-0.006548	-1.564662
F	1.376025	0.0	0.0
H	0.357264	0.858721	-1.88777
H	-0.397638	0.90099	0.458725
C	-0.463781	-1.188602	0.715106
N	-0.50338	-2.176463	1.354259
N	-1.53873	0.078792	-2.188211
H	-1.930357	0.962564	-1.866345
H	-2.148702	-0.543119	-1.643299
C	0.453855	-1.195405	-2.100331
N	0.995929	-2.137328	-2.540095
H	-2.684148	0.0	0.0
