13

C	0.0	0.0	0.0
C	-0.43665	-0.020988	-1.487291
F	1.375946	0.0	0.0
H	0.501825	0.113196	-2.035244
H	-0.355604	0.92895	0.441922
C	-0.437237	-1.139405	0.818692
N	-0.537705	-2.039111	1.569469
N	-1.300014	1.11588	-1.764921
H	-2.124124	0.893267	-1.145299
H	-1.599368	1.067006	-2.734416
C	-0.954623	-1.339392	-1.913308
N	-1.280484	-2.376228	-2.362947
H	-2.682164	0.0	0.0
