16

C	-0.482503	-0.021525	-1.436989
C	0.0	0.0	0.0
Cl	-2.184202	-0.483217	-1.637356
H	1.08812	0.0	0.0
N	-0.261803	1.398635	-2.060696
O	0.729443	1.981722	-1.658958
O	-1.034294	1.750465	-2.934081
C	0.345287	-0.890448	-2.270942
N	0.992506	-1.504993	-3.03617
N	-0.415062	-1.254469	0.668237
O	-0.129967	-2.280685	0.055359
O	-0.977871	-1.206784	1.757596
N	-0.520299	1.153284	0.757604
O	-1.409391	1.843127	0.249234
O	-0.004809	1.351678	1.852413
F	2.408222	0.0	0.0
