16

C	-0.548558	0.013168	-1.422449
C	0.0	0.0	0.0
Cl	0.390681	1.099345	-2.458761
H	1.088419	0.0	0.0
N	-0.356037	-1.384605	-2.055473
O	0.605653	-2.026089	-1.673098
O	-1.147903	-1.680335	-2.940032
C	-1.962594	0.362827	-1.51581
N	-3.078727	0.729871	-1.562991
N	-0.535915	-1.163939	0.742685
O	-1.496815	-1.772395	0.257434
O	0.01958	-1.436513	1.798981
N	-0.469659	1.220132	0.715071
O	-1.178688	1.088927	1.712434
O	-0.094839	2.288768	0.243595
F	2.423993	0.0	0.0
