16

C	-0.490737	0.001524	-1.433461
C	0.0	0.0	0.0
Cl	0.156637	-1.366128	-2.358213
H	1.090286	0.0	0.0
N	-2.028895	-0.106812	-1.566656
O	-2.554549	-0.937895	-0.841033
O	-2.576274	0.595077	-2.403336
C	-0.058825	1.230683	-2.091437
N	0.316167	2.212037	-2.617625
N	-0.44039	-1.174357	0.807594
O	-1.164106	-0.974956	1.781036
O	-0.001535	-2.261207	0.452446
N	-0.495794	1.211036	0.691737
O	0.087716	1.531794	1.719445
O	-1.457144	1.809352	0.192462
F	2.41879	0.0	0.0
