16

C	-0.545251	0.021246	-1.418832
C	0.0	0.0	0.0
Cl	0.032687	-1.423353	-2.231662
H	1.090205	0.0	0.0
N	-2.110525	0.066859	-1.488065
O	-2.616923	0.888186	-0.730555
O	-2.665164	-0.577451	-2.359851
C	-0.101436	1.180392	-2.181038
N	0.26986	2.059322	-2.867666
N	-0.460542	-1.241114	0.708636
O	0.362041	-1.761815	1.452185
O	-1.578237	-1.67531	0.425574
N	-0.395056	1.170771	0.837992
O	-0.234356	2.269577	0.320702
O	-0.862727	0.937847	1.94744
F	2.47242	0.0	0.0
