18

C	0.0	0.0	0.0
C	-0.302133	0.056746	-1.506917
Cl	1.916461	0.0	0.0
H	0.183188	0.955988	-1.880529
N	-0.391499	1.257782	0.578411
H	0.119571	1.419732	1.437125
H	-1.387035	1.187049	0.786613
N	-0.536946	-1.109644	0.635065
H	-0.402983	-1.124207	1.634233
H	-0.34742	-1.989796	0.180394
C	-1.77886	0.020264	-1.8447
H	-2.311477	0.844949	-1.375879
H	-2.26034	-0.882819	-1.477821
H	-1.896107	0.099314	-2.929293
N	0.364626	-1.057624	-2.257257
O	0.219478	-2.21101	-1.849256
O	0.971668	-0.755388	-3.281882
Cl	-4.564621	0.0	0.0
