18

C	0.0	0.0	0.0
C	-0.19576	-0.007249	-1.56267
Cl	1.855686	0.0	0.0
H	0.34119	0.867798	-1.925107
N	-0.500531	1.257594	0.463091
H	-0.319055	1.299694	1.461554
H	-1.518842	1.214737	0.352901
N	-0.464501	-1.099809	0.774478
H	-0.231289	-1.972876	0.317205
H	-1.481481	-1.017813	0.823059
C	-1.594242	-0.050722	-2.139863
H	-1.511125	-0.078989	-3.231412
H	-2.164606	0.827956	-1.852133
H	-2.154247	-0.912634	-1.788369
N	0.531157	-1.157778	-2.194386
O	0.301176	-2.293924	-1.777801
O	1.265986	-0.905472	-3.147158
Cl	-3.890511	0.0	0.0
