18

C	0.0	0.0	0.0
C	-0.232431	0.236695	-1.553159
Cl	1.78437	0.0	0.0
H	0.49964	-0.409345	-2.038281
N	-0.485204	1.13297	0.740411
H	-0.273391	0.987198	1.724524
H	-1.508906	1.082628	0.646143
N	-0.434704	-1.314197	0.380205
H	-1.448271	-1.329467	0.23816
H	-0.273401	-1.418252	1.378296
C	-0.035673	1.685923	-1.943194
H	-0.850375	2.295155	-1.560028
H	0.903238	2.053804	-1.531701
H	-0.013575	1.777554	-3.031612
N	-1.507703	-0.287503	-2.197703
O	-2.221713	0.507565	-2.795368
O	-1.637358	-1.508661	-2.215193
Cl	-3.55479	0.0	0.0
