18

C	0.0	0.0	0.0
C	-0.341799	0.048189	-1.507621
Cl	1.857713	0.0	0.0
H	0.059997	0.984228	-1.89964
N	-0.434232	1.154346	0.723834
H	-1.449316	1.111113	0.793531
H	-0.146882	2.010043	0.267006
N	-0.545019	-1.121599	0.629404
H	-0.336963	-1.130306	1.617099
H	-0.315905	-1.9881	0.167014
C	-1.816383	-0.113751	-1.813031
H	-1.972761	-0.000627	-2.889583
H	-2.43155	0.615414	-1.28841
H	-2.185763	-1.081775	-1.483015
N	0.39891	-0.999612	-2.285999
O	1.019647	-0.632128	-3.281396
O	0.300528	-2.169955	-1.916022
Cl	-4.625602	0.0	0.0
