18

C	0.0	0.0	0.0
C	-0.501289	0.096985	-1.465559
Cl	1.782819	0.0	0.0
H	-1.580559	0.257619	-1.37751
N	-0.44192	1.170249	0.699347
H	-1.45361	1.232156	0.572575
H	-0.267746	1.004727	1.685768
N	-0.44215	-1.207248	0.657538
H	-1.464732	-1.175452	0.653238
H	-0.128842	-2.032753	0.16124
C	-0.205317	-1.120155	-2.315289
H	-0.481626	-0.923663	-3.352764
H	-0.813393	-1.955411	-1.965228
H	0.852369	-1.384369	-2.287539
N	0.032547	1.324157	-2.138302
O	1.054566	1.211856	-2.820454
O	-0.591584	2.371621	-1.983799
Cl	-3.578631	0.0	0.0
