13
Coordinates from ORCA-job run
  C   0.65686565700451      0.57841013301361     -0.26744337556378
  C   -0.58007746411062     -0.28812897591615     -0.04674536634093
  Br  1.03003806524523      1.70189318170996      1.22453370026074
  H   -0.73906635932769     -0.88525596375879     -0.94988281702306
  H   0.51006244225078      1.19324725382358     -1.15451521453106
  N   1.80153179025043     -0.37096172809974     -0.60624017524040
  O   1.59313741320672     -1.01279347431774     -1.63225722650068
  O   2.78139637720789     -0.42804426402653      0.11577003489083
  N   -1.79231826195900      0.62540626509682      0.04559059841643
  O   -2.52854078731625      0.51112537522603      1.01354879732974
  O   -1.92047763521507      1.38931814400473     -0.90296241828238
  C   -0.46959438800984     -1.14532267211902      1.12251569829281
  N   -0.34195684922707     -1.86989327463675      2.03808776429174
