13
Coordinates from ORCA-job run
  C   0.69614116846858      0.27503789017657     -0.73978086429605
  C   -0.73165756806081     -0.11583946005099     -0.36871817714812
  Br  0.79968606113668      2.03094259049959     -1.49709263329586
  H   -1.40653768547582      0.26779279082896     -1.14034308458139
  H   1.07075110731255     -0.42056761652163     -1.49419968018169
  N   1.63541575152395      0.09558130914287      0.44879060161053
  O   1.30643605074729     -0.80191884366157      1.21540920598927
  O   2.64278863696898      0.77710858966707      0.49536246287774
  N   -1.21186829024832      0.55768808558260      0.91346164532145
  O   -2.29285204423427      0.16664334699834      1.32735564514084
  O   -0.51461920872635      1.44910763044396      1.37417635339316
  C   -0.92276422987067     -1.55772825018405     -0.26379118924070
  N   -1.06991974954179     -2.72284806292173     -0.26863028558918
