13
Coordinates from ORCA-job run
  C   0.78330393803818     -0.26749880311108     -0.47566634709386
  C   -0.66261901262644      0.14589036197274     -0.26855386274243
  Br  1.28361246171017     -0.01036901103364     -2.31441459323017
  H   -0.79994278835695      1.20133496152307     -0.50835174580091
  H   0.97353784770880     -1.30063088473162     -0.19613329478739
  N   1.67673577880304      0.58601002485186      0.38988864302310
  O   2.73519112654955      0.07737306330169      0.72890911835817
  O   1.27372227697079      1.71343251711129      0.65720066188554
  N   -1.02960993557590      0.01206679326419      1.20527017466826
  O   -2.01811183149780      0.63443153676027      1.55981663939367
  O   -0.31944792507109     -0.71824376478495      1.88648076280002
  C   -1.57900430436616     -0.69280700534765     -1.02960888374285
  N   -2.31636763228620     -1.37998978977618     -1.63283727273116
