13
Coordinates from ORCA-job run
  C   0.80981363516741     -0.29979348453398     -0.40834698297802
  C   -0.63550960573555      0.15689779629093     -0.32352838133694
  Br  1.45861002140014     -0.09826607046691     -2.20690255173930
  H   -0.72456795463368      1.20880650866064     -0.59890483480684
  H   0.94811400797137     -1.33094259967432     -0.09315730011264
  N   1.65671076136766      0.54919865939342      0.50744308517535
  O   1.26317338023490      1.69066064567657      0.72387366107226
  O   2.67257094982143      0.02156991049172      0.93576803308963
  N   -1.11759131896199      0.07118905840913      1.11981796512376
  O   -2.10477086315604      0.73839629601867      1.38558453220313
  O   -0.49042183155657     -0.67030882319395      1.86725007144400
  C   -1.51373378926232     -0.67705932132465     -1.13348259356451
  N   -2.22239739265677     -1.35934857574727     -1.77541470356988
