13
Coordinates from ORCA-job run
  C   0.72587008495797      0.23878977903372     -0.73016815479412
  C   -0.74137822845635     -0.05069414221527     -0.40225962240016
  Br  0.96772308668008      2.08807008258794     -1.15523898671866
  H   -1.35250003755031      0.29604401463998     -1.23823884693001
  H   1.01900023394822     -0.35839739883503     -1.59333757968371
  N   1.64632663649528     -0.22197614278820      0.39598128179225
  O   1.73402101568002     -1.44352809320337      0.45865947089432
  O   2.19324974894745      0.60344835116534      1.10497029027171
  N   -1.18463668271600      0.76763172877223      0.79462338580773
  O   -2.05298171294949      1.60556231398357      0.59032493761173
  O   -0.62355009821570      0.50893049656498      1.85212688335508
  C   -1.01751748881296     -1.45738982877658     -0.13317143375924
  N   -1.31262655800822     -2.57849116092931      0.05672837455310
