15

C	0.0	0.0	0.0
C	-0.582364	-0.001218	-1.40423
Cl	1.773653	0.0	0.0
H	-1.681169	-0.032845	-1.285753
H	-0.301279	0.947819	0.452032
N	-0.47699	-1.191484	0.655477
H	-1.500949	-1.145039	0.632689
H	-0.191013	-1.156456	1.626746
N	-0.149991	-1.187678	-2.195037
O	0.965528	-1.150934	-2.708728
O	-0.940174	-2.125028	-2.246165
N	-0.265452	1.230018	-2.188122
O	-0.414328	1.15857	-3.403722
O	0.030513	2.241291	-1.557476
Cl	-3.496501	0.0	0.0
