15

C	0.0	0.0	0.0
C	-0.583455	-0.198069	-1.388818
Cl	1.783361	0.0	0.0
H	-1.675669	-0.062871	-1.291309
H	-0.291733	1.011962	0.293218
N	-0.498341	-1.06249	0.834103
H	-1.517767	-0.946991	0.85912
H	-0.144648	-0.922135	1.773809
N	-0.355282	-1.536464	-2.003429
O	-1.278457	-1.953053	-2.700195
O	0.71904	-2.098838	-1.824186
N	-0.064741	0.830903	-2.341939
O	-0.173202	1.992181	-1.963057
O	0.40278	0.460081	-3.413765
Cl	-3.49332	0.0	0.0
