15

C	0.0	0.0	0.0
C	-0.176115	0.107088	-1.552541
Cl	1.839969	0.0	0.0
H	0.525103	0.849777	-1.920564
H	-0.304307	0.972632	0.387698
N	-0.572043	-1.021935	0.761289
H	-0.507442	-1.908596	0.279738
H	-1.567889	-0.78598	0.867103
N	-1.485098	0.607881	-2.115509
O	-1.697555	1.784169	-1.860251
O	-2.121015	-0.126683	-2.853551
N	0.177455	-1.139674	-2.295354
O	0.755128	-0.974525	-3.368202
O	-0.139333	-2.225286	-1.817453
Cl	-3.530501	0.0	0.0
