16

C	0.0	0.0	0.0
C	-0.262443	-0.045945	-1.534345
Br	1.922711	0.0	0.0
H	0.438777	0.657076	-1.980141
H	-0.297537	-0.872346	0.562343
N	-0.6179	1.184811	0.592478
O	-0.636344	1.23731	1.841779
O	-0.613617	2.211807	-0.140895
C	-1.61926	0.211124	-2.182936
H	-1.442021	0.301339	-3.264535
H	-2.327602	-0.59042	-1.988651
H	-2.010135	1.150597	-1.799849
N	0.17804	-1.38995	-2.043265
O	-0.122229	-2.388374	-1.39089
O	0.742869	-1.414687	-3.137301
H	-1.998989	0.0	0.0
