16

C	0.0	0.0	0.0
C	-0.261904	-0.027314	-1.53554
Br	1.922401	0.0	0.0
H	0.438167	0.682248	-1.973158
H	-0.298709	-0.879276	0.550651
N	-0.615555	1.177725	0.608673
O	-0.634216	1.213198	1.858379
O	-0.612765	2.213935	-0.110686
C	-1.618589	0.236748	-2.182429
H	-2.012061	1.17052	-1.789562
H	-2.32604	-0.568078	-1.996727
H	-1.440716	0.340025	-3.263093
N	0.18065	-1.364867	-2.061093
O	-0.116551	-2.371605	-1.419956
O	0.744522	-1.375583	-3.156223
H	-2.004448	0.0	0.0
