16

C	0.0	0.0	0.0
C	-0.255943	-0.021852	-1.534
Br	1.942722	0.0	0.0
H	0.461736	0.671172	-1.970387
H	-0.28967	-0.877066	0.556989
N	-0.574424	1.190077	0.616091
O	-0.604394	1.218097	1.863994
O	-0.560645	2.22604	-0.100067
C	-1.604598	0.276411	-2.184811
H	-2.327706	-0.517404	-2.01575
H	-1.41745	0.393118	-3.261223
H	-1.985219	1.209545	-1.777173
N	0.158187	-1.36707	-2.059206
O	-0.090752	-2.366131	-1.387512
O	0.646177	-1.391964	-3.190024
H	-1.990848	0.0	0.0
