16

C	0.0	0.0	0.0
C	-0.591416	0.082476	-1.374741
Br	1.926803	0.0	0.0
H	-1.725648	0.281248	-1.018663
H	-0.321981	-0.930174	0.449626
N	-0.436244	1.038859	1.015525
O	-0.867242	2.105868	0.620617
O	-0.303318	0.685299	2.185561
C	-0.560794	-1.284328	-2.028027
H	0.46184	-1.680321	-2.098035
H	-0.979973	-1.235122	-3.02599
H	-1.180528	-1.945578	-1.422041
N	0.017037	1.09996	-2.228676
O	-0.007978	0.909421	-3.464025
O	0.477232	2.134051	-1.710569
H	-2.725927	0.0	0.0
