16

C	0.0	0.0	0.0
C	-0.753714	0.152854	-1.282052
Br	1.918355	0.0	0.0
H	-1.857438	0.233715	-0.855192
H	-0.339183	-0.916582	0.479943
N	-0.384055	1.101389	0.96745
O	-0.467985	0.787566	2.148987
O	-0.533333	2.224857	0.501458
C	-0.67334	-1.076383	-2.156778
H	-1.163559	-1.902254	-1.629793
H	0.356689	-1.351456	-2.407378
H	-1.233041	-0.897267	-3.07889
N	-0.411183	1.346939	-2.09325
O	0.774394	1.592861	-2.325415
O	-1.351824	1.989582	-2.555993
H	-3.022634	0.0	0.0
