16

C	0.0	0.0	0.0
C	-0.288906	-0.031182	-1.541507
Br	1.92664	0.0	0.0
H	0.218342	0.83735	-1.965864
H	-0.391204	-0.893259	0.506463
N	-0.595526	1.153525	0.661212
O	-1.754781	1.396592	0.101984
O	-0.339856	1.279696	1.883844
C	-1.673409	-0.159424	-2.165111
H	-1.523916	-0.269502	-3.247324
H	-2.210235	-1.017972	-1.771179
H	-2.254912	0.728804	-1.953355
N	0.446299	-1.213349	-2.121007
O	0.245761	-2.309161	-1.602957
O	1.122817	-1.029786	-3.13063
H	-2.896631	0.0	0.0
