15

C	0.0	0.0	0.0
C	-0.590679	0.083764	-1.419671
Cl	1.785107	0.0	0.0
H	-1.721515	-0.017074	-1.09686
N	-0.471001	1.086432	0.822429
H	-0.205019	1.964185	0.386139
H	-1.498535	0.96183	0.767196
C	-0.400765	-1.252735	0.670388
N	-0.579162	-2.225301	1.304386
N	-0.162453	-1.012916	-2.326193
O	-0.325778	-2.157799	-1.909743
O	0.29582	-0.719627	-3.431558
C	-0.306183	1.372961	-2.016757
N	-0.127107	2.446272	-2.46273
F	-2.713384	0.0	0.0
