15

C	0.0	0.0	0.0
C	-0.442002	-0.044102	-1.498704
Cl	1.78542	0.0	0.0
H	0.367433	-0.51074	-2.062615
N	-0.483477	1.179974	0.638719
H	-1.521252	0.99812	0.578249
H	-0.176882	1.170418	1.605559
C	-0.385231	-1.279176	0.635139
N	-0.542722	-2.297389	1.201904
N	-0.471525	1.375528	-2.018729
O	0.625466	1.841448	-2.319865
O	-1.546535	1.950225	-2.103624
C	-1.680583	-0.744827	-1.84323
N	-2.360669	-1.437387	-2.511845
F	-2.573684	0.0	0.0
