15

C	0.0	0.0	0.0
C	-0.640966	-0.063044	-1.382167
Cl	1.774855	0.0	0.0
H	-1.782542	-0.046711	-1.024648
N	-0.487759	1.227662	0.579914
H	-1.511565	1.06997	0.596814
H	-0.139256	1.299496	1.53
C	-0.381485	-1.189226	0.798192
N	-0.612249	-2.080278	1.52849
N	-0.40698	-1.319222	-2.143861
O	-0.906819	-1.368965	-3.266293
O	0.212633	-2.233033	-1.603666
C	-0.274812	1.065629	-2.206064
N	0.022152	1.974126	-2.889771
F	-2.767673	0.0	0.0
