15

C	0.0	0.0	0.0
C	-0.279433	-0.211749	-1.524072
Cl	1.799005	0.0	0.0
H	0.35993	0.519256	-2.022801
N	-0.474994	1.271881	0.424216
H	-0.189317	1.400637	1.390124
H	-1.518641	1.071045	0.384595
C	-0.41651	-1.158253	0.814028
N	-0.572735	-2.057031	1.5564
N	-1.652045	0.098688	-2.109155
O	-1.87005	1.288567	-2.282006
O	-2.320989	-0.834761	-2.522763
C	0.110179	-1.557211	-1.939316
N	0.456099	-2.623738	-2.28765
F	-2.546052	0.0	0.0
