16

C	0.0	0.0	0.0
C	-0.599694	0.034406	-1.398675
Cl	1.790835	0.0	0.0
H	-1.702723	0.060724	-1.158352
H	-0.310235	-0.94253	0.456117
C	-0.485078	1.165244	0.84077
H	-1.582832	1.118262	0.833561
H	-0.136286	2.110849	0.415543
H	-0.111236	1.082826	1.864865
C	-0.285346	-1.206791	-2.23019
H	-0.779882	-1.151218	-3.202619
H	0.790213	-1.321991	-2.388127
H	-0.666705	-2.086919	-1.70538
C	-0.229194	1.25038	-2.112256
N	0.060098	2.216375	-2.717174
H	-3.201132	0.0	0.0
