16

C	0.0	0.0	0.0
C	-0.377129	-0.089548	-1.503572
Cl	1.792648	0.0	0.0
H	0.331604	0.559384	-2.033456
H	-0.311887	-0.909229	0.514862
C	-0.577	1.216374	0.684809
H	-0.297391	2.132744	0.158724
H	-0.21179	1.280066	1.712662
H	-1.669922	1.112301	0.697788
C	-1.802764	0.347911	-1.857454
H	-2.588335	-0.02862	-1.174688
H	-1.865334	1.438029	-1.804251
H	-2.032918	0.045522	-2.883105
C	-0.101579	-1.448413	-1.98287
N	0.113252	-2.531321	-2.384027
H	-4.024075	0.0	0.0
