16

C	0.0	0.0	0.0
C	-0.627332	0.040659	-1.383025
Cl	1.790808	0.0	0.0
H	-1.727159	0.073261	-1.105846
H	-0.306639	-0.946128	0.453004
C	-0.489637	1.1512	0.854338
H	-0.170051	2.106391	0.428401
H	-1.586379	1.081489	0.858098
H	-0.099566	1.071845	1.872057
C	-0.361418	-1.207418	-2.215961
H	-0.873614	-1.139399	-3.178713
H	0.70591	-1.355882	-2.395565
H	-0.76047	-2.073897	-1.682305
C	-0.266405	1.249526	-2.108463
N	0.020476	2.211155	-2.721917
H	-3.157978	0.0	0.0
