17
Coordinates from ORCA-job run
  C   0.87903202186009     -0.06187527330017      0.02594312849527
  C   -0.54290808526594      0.16705503953639     -0.48749112160319
  F   1.56783129863752     -0.81076939634231     -0.94724791158452
  H   -0.43774857885907      0.75583718949667     -1.41492633272729
  N   0.84885085819586     -0.84010541248881      1.21680174291913
  H   1.75485610730072     -0.86817942685884      1.66753877862364
  H   0.15860820829276     -0.43348068401133      1.83671175403668
  N   1.52821551822260      1.21538961309282      0.17197403359259
  H   2.42973899352171      1.09493345410330      0.62013853951861
  H   1.69165099639859      1.61431058492493     -0.74679425955327
  N   -1.26181145263270      0.87958160974047      0.56711530362259
  H   -0.84577117832681      1.79447927439082      0.69366825238217
  H   -2.23308426400665      0.99753931100874      0.30654023704096
  C   -1.25100045794875     -1.13510512795020     -0.81527302312352
  H   -2.23889140909612     -0.93022230885364     -1.23871857847807
  H   -1.36990390895910     -1.73406161270175      0.08730351552944
  H   -0.67766466733472     -1.70832683378709     -1.54328405869121
