17
Coordinates from ORCA-job run
  C   0.72713875744022     -0.23859744921635      0.48851209714572
  C   -0.47833561829698      0.33455339071188     -0.27205902774562
  F   0.21969132719514     -1.31156856426384      1.23035189312751
  H   -0.11851523884468      1.22484857929174     -0.80506592238884
  N   1.30179011125226      0.64717073154939      1.46717359009316
  H   1.82127973844314      1.37302607209711      0.98918341547596
  H   0.54286330936367      1.08829688248936      1.97692202820670
  N   1.70348191281690     -0.76581278455254     -0.41147069224835
  H   2.55618209800735     -0.95447865939101      0.10221429708004
  H   1.89875986641240     -0.11886909286610     -1.16395819544400
  N   -1.42893806541784      0.80137089941062      0.73880943231985
  H   -1.85644677873525     -0.00871282487031      1.17414511021504
  H   -2.16756037818314      1.33280578735510      0.29460602915494
  C   -1.06472164606720     -0.66033155025496     -1.26956193555362
  H   -1.93675161046902     -0.22389341689990     -1.76503245682409
  H   -0.34175842193748     -0.95474657737241     -2.03158766993452
  H   -1.37815936297950     -1.56406142321778     -0.74318199267988
