17
Coordinates from ORCA-job run
  C   0.86210007601425     -0.05466337468947      0.10767353324650
  C   -0.51255161593259      0.28367607751613     -0.48379341146281
  F   1.42442339887397     -1.09865016906841     -0.65986869492478
  H   -0.35222511117624      0.97576887874705     -1.31924432048406
  N   0.69877190828427     -0.60888901260224      1.42651703480386
  H   1.53583929729491     -1.11932395923561      1.68136916109484
  H   0.56220707747291      0.16123655682642      2.06908721482100
  N   1.72346067419396      1.07970448770548      0.08372237643683
  H   1.84543373550637      1.41559920620581     -0.86417481020055
  H   2.63129468878673      0.82954374476961      0.45876318589386
  N   -1.25620714337002      1.00638180485117      0.55016226404205
  H   -1.72911569797904      0.32848432663057      1.13751674183043
  H   -1.96661233711484      1.58564315528306      0.12189878142837
  C   -1.22799852332487     -0.96405860932472     -0.98975500140696
  H   -2.23464624341924     -0.69788405772143     -1.32286951886801
  H   -0.69853326789348     -1.43356639710759     -1.81906026914869
  H   -1.30664091621706     -1.69100265878581     -0.17794426710189
