17
Coordinates from ORCA-job run
  C   0.72503669826067      0.28579696206210      0.33975678010716
  C   -0.61632851552424      0.32889622965252     -0.39715928806007
  F   0.88829206381757      1.58121951949511      0.91278926922185
  H   -0.46701641516640      0.99701006318619     -1.26540503081356
  N   1.77833242333007      0.00649916422903     -0.57313582303545
  H   2.67078708685590      0.12232279013090     -0.10735870327031
  H   1.74117081575317      0.63073166627996     -1.36939840496863
  N   0.73713729730104     -0.63766904910268      1.44067560040380
  H   1.01615313808445     -0.16972751688457      2.28977542329758
  H   1.35340814537271     -1.41246555763179      1.24175230235653
  N   -1.64334509682233      0.82074422044873      0.51197037432205
  H   -2.49926322116288      0.97117186679451     -0.00826120608906
  H   -1.35520016839625      1.71414718174523      0.89073947371257
  C   -1.00282029652692     -1.05422351652370     -0.89021719981034
  H   -0.26786163212986     -1.44698069735230     -1.59429845751578
  H   -1.08266396904494     -1.72038947338318     -0.03082636950735
  H   -1.97481835400178     -1.01708385314604     -1.39039874035103
