17
Coordinates from ORCA-job run
  C   0.62129960318821     -0.08030712953003      0.44037774798616
  C   -0.63915328291348      0.28115945872260     -0.36072531801221
  F   0.30941448180867     -1.12914841910252      1.29976471794455
  H   -0.38061309645939      1.16429476989348     -0.96376478237109
  N   0.95384639500304      1.01544382485739      1.33995310320316
  H   1.53556954484024      0.66075648708825      2.09086217763951
  H   1.47480746418629      1.72314347509284      0.83668646880740
  N   1.65886695109539     -0.56322549990069     -0.42750084983319
  H   1.77133416950467      0.04630467005882     -1.22726618299988
  H   2.54043243621690     -0.62745671213642      0.06732814216684
  N   -1.75265842472282      0.65397638060227      0.49939735521339
  H   -2.05984069900692     -0.17913068381463      0.99076500012352
  H   -1.39936151661897      1.29004014184888      1.20662901047332
  C   -1.07063148024385     -0.84936156306529     -1.28310548193105
  H   -0.32157271111940     -1.07639389313266     -2.04064054409811
  H   -1.23511823975560     -1.75819123733372     -0.69916819836436
  H   -2.00662159500296     -0.57090407014858     -1.76959236594794
