17

C	-0.368304	0.109402	-1.476006
C	0.0	0.0	0.0
Cl	0.50805	-1.16601	-2.393601
H	1.109588	0.0	0.0
C	-1.790549	-0.048805	-1.787618
N	-2.916092	-0.148407	-2.110776
C	0.186604	1.450294	-1.960202
H	-0.377159	2.280581	-1.53004
H	0.126218	1.504734	-3.047286
H	1.227498	1.485029	-1.628753
N	-0.556139	-1.166517	0.707817
O	-0.531855	-1.111755	1.936876
O	-0.943608	-2.128932	0.0469
N	-0.532426	1.195806	0.71682
O	-1.760954	1.296313	0.790487
O	0.272079	2.014254	1.150923
F	2.477794	0.0	0.0
