17

C	-0.338426	-0.017052	-1.491289
C	0.0	0.0	0.0
Cl	0.279274	-1.562841	-2.175767
H	1.110249	0.0	0.0
C	-1.76636	0.07699	-1.802136
N	-2.892396	0.235071	-2.101461
C	0.462784	1.103473	-2.16021
H	0.057194	2.080102	-1.893696
H	1.485434	1.010154	-1.781681
H	0.424054	0.980022	-3.24318
N	-0.599444	-1.094122	0.793522
O	-1.400934	-1.861041	0.261639
O	-0.233883	-1.146584	1.965398
N	-0.515203	1.262057	0.608394
O	0.215896	2.247922	0.554497
O	-1.644953	1.24145	1.104468
F	2.496919	0.0	0.0
