17

C	-0.341471	0.037765	-1.491721
C	0.0	0.0	0.0
Cl	0.230783	-1.508467	-2.213244
H	1.08856	0.0	0.0
C	-1.766779	0.18049	-1.791818
N	-2.888288	0.38439	-2.078748
C	0.488334	1.152006	-2.13485
H	0.451259	1.050515	-3.220385
H	1.506363	1.028312	-1.751692
H	0.101929	2.130422	-1.848932
N	-0.591377	-1.135219	0.743839
O	-0.147008	-1.302322	1.876853
O	-1.473719	-1.810598	0.214916
N	-0.518048	1.229503	0.66956
O	0.16474	2.245841	0.567828
O	-1.597048	1.154578	1.26299
F	2.501567	0.0	0.0
