17

C	-0.368537	0.097613	-1.488519
C	0.0	0.0	0.0
Cl	-0.133255	-1.557348	-2.173409
H	1.103305	0.0	0.0
C	-1.756931	0.470708	-1.768463
N	-2.84843	0.791028	-2.065289
C	0.634447	1.017278	-2.18688
H	0.426153	2.050822	-1.912583
H	0.5509	0.901902	-3.269431
H	1.625621	0.732154	-1.817376
N	-0.623197	-1.18374	0.649755
O	-1.855615	-1.206923	0.667661
O	0.115923	-2.04735	1.108531
N	-0.46313	1.168082	0.780924
O	-0.711262	2.21435	0.18147
O	-0.496779	1.030258	2.000565
F	2.507991	0.0	0.0
