17

C	-0.368978	-0.019396	-1.491608
C	0.0	0.0	0.0
Cl	-0.172451	-1.731897	-2.035647
H	1.116528	0.0	0.0
C	-1.748923	0.362923	-1.800188
N	-2.833225	0.687384	-2.117495
C	0.649167	0.814747	-2.271078
H	0.555317	0.609131	-3.338864
H	0.469474	1.871733	-2.081842
H	1.635367	0.54029	-1.884215
N	-0.626237	-1.126527	0.740515
O	-1.858288	-1.175923	0.715787
O	0.109226	-1.923809	1.310788
N	-0.458448	1.228846	0.681755
O	-0.551947	1.180093	1.905874
O	-0.641391	2.236694	-0.002107
F	2.504803	0.0	0.0
