17

C	-0.373943	0.025699	-1.492707
C	0.0	0.0	0.0
Cl	0.036153	-1.644325	-2.178563
H	1.102706	0.0	0.0
C	-1.847859	0.246319	-1.760436
H	-2.437312	-0.553102	-1.309814
H	-2.035839	0.250374	-2.837613
H	-2.147809	1.200631	-1.327766
N	0.4315	1.046203	-2.070747
H	1.415976	0.874422	-1.86188
H	0.301659	1.090768	-3.073565
C	-0.554053	-1.149489	0.707485
N	-0.986679	-2.064741	1.302247
N	-0.512122	1.239123	0.623391
H	-0.110289	1.279695	1.555729
H	-0.074438	1.992152	0.098771
Br	3.499066	0.0	0.0
