17

C	-0.413549	0.048402	-1.472531
C	0.0	0.0	0.0
Cl	-2.289187	0.410731	-1.484806
H	1.095389	0.0	0.0
C	0.251071	1.208188	-2.174413
H	1.331495	1.052821	-2.108824
H	-0.06363	1.25152	-3.220555
H	-0.011118	2.138415	-1.675983
N	-0.137312	-1.171352	-2.10784
H	-0.598251	-1.960012	-1.673673
H	-0.343133	-1.140993	-3.096459
C	-0.478672	-1.242514	0.626654
N	-0.871088	-2.218062	1.152482
N	-0.39569	1.203039	0.714507
H	-1.340463	1.125437	1.068787
H	0.246354	1.3408	1.485459
Br	3.482905	0.0	0.0
