17

C	-0.433167	-0.118615	-1.481237
C	0.0	0.0	0.0
Cl	0.054067	1.402351	-2.31401
H	1.090111	0.0	0.0
C	0.299076	-1.263035	-2.164178
H	0.050291	-1.28812	-3.228662
H	-0.004026	-2.211016	-1.709578
H	1.378279	-1.141334	-2.038718
N	-1.887896	-0.163818	-1.544013
H	-2.179893	-0.156604	-2.515517
H	-2.193994	-1.041728	-1.133151
C	-0.477146	-1.217574	0.675726
N	-0.922892	-2.192167	1.158068
N	-0.497565	1.166288	0.706025
H	-1.381179	1.439912	0.289217
H	0.172476	1.912134	0.570711
Br	3.508033	0.0	0.0
