17

C	-0.302571	-0.098895	-1.504518
C	0.0	0.0	0.0
Cl	-2.108268	-0.154798	-1.725793
H	1.09987	0.0	0.0
C	0.243659	1.116461	-2.221279
H	0.050479	1.015326	-3.290014
H	-0.213272	2.023554	-1.832271
H	1.322104	1.160622	-2.040223
N	0.249707	-1.295775	-2.095341
H	-0.073436	-2.111434	-1.584325
H	1.26119	-1.240709	-1.975586
C	-0.45413	-1.214596	0.696586
N	-0.852141	-2.155766	1.278855
N	-0.471192	1.231812	0.607732
H	0.127304	1.453229	1.394104
H	-1.423289	1.125246	0.937856
Br	3.461593	0.0	0.0
