15
Coordinates from ORCA-job run
  C   -0.42662777906564      0.16641263600710     -0.25490502084591
  C   1.03095625692860      0.27841137182899      0.10791197282352
  H   -0.56998163751430      0.28199987961713     -1.32841476741127
  H   1.40581147971500      1.27665349070797     -0.13030134372947
  H   1.22017388828789      0.05899396306197      1.15599002597958
  C   -1.28829085897739      1.14603971202841      0.52763466383897
  H   -0.98903806861516      2.17167676242976      0.30336824479092
  H   -2.33510561558064      1.02332189785767      0.24877608011475
  H   -1.18558337326101      0.97763984769171      1.60202174868418
  N   -0.92084986844347     -1.22368694620011      0.04339713958651
  O   -0.29241426298385     -1.89605688934670      0.85776794619582
  O   -1.95412227137094     -1.55990504428350     -0.52446614515124
  N   1.88335204864563     -0.67552822911202     -0.67336733741187
  O   1.42494426227992     -1.12623719370081     -1.71965465465204
  O   2.99777579995537     -0.89973525858756     -0.21675855281244
