15
Coordinates from ORCA-job run
  C   -0.42106205663839      0.18146977897869     -0.25637887518844
  C   1.03368986124516      0.26214249564701      0.12652234470461
  H   -0.55010818011447      0.33183541578173     -1.32732628918642
  H   1.20604808892815      0.01436825395105      1.17113380967142
  H   1.42561504097732      1.26028359887909     -0.08297270013014
  C   -1.27826209517581      1.14762672101516      0.54745371819777
  H   -2.32346626138753      1.04882024907371      0.25308669203984
  H   -1.19017867639536      0.94299474816553      1.61681054487180
  H   -0.96260210183413      2.17572645970598      0.35993296394483
  N   -0.93707818627427     -1.21000271942561     -0.00642943183710
  O   -1.95493320692499     -1.52340477395267     -0.61359119172686
  O   -0.34086478472147     -1.90512505293771      0.81314559380114
  N   1.88026797037761     -0.68602690724877     -0.66712852466324
  O   1.43175490725122     -1.09527113762245     -1.73458435775487
  O   2.98117968068697     -0.94743713001074     -0.19767429674434
