15
Coordinates from ORCA-job run
  C   -0.45966580433267     -0.07155231214827     -0.30474863550637
  C   0.95402289091392     -0.61012410574633     -0.15380166364194
  H   -0.60919996289804      0.29997455441865     -1.31933477751989
  H   1.15669102146710     -0.96635851869999      0.85223520129700
  H   1.16491948439276     -1.38763363733303     -0.88826775519404
  C   -0.81456412123136      0.99167018969288      0.72101810368769
  H   -0.69568376483400      0.59968558614599      1.73378644098425
  H   -1.84610858951984      1.31602070282070      0.57954367304624
  H   -0.16362324999229      1.85981122572938      0.60498942989731
  N   -1.42845194170920     -1.20903207013718     -0.15541059492412
  O   -2.54139544590030     -1.03983602788143     -0.64306122639688
  O   -1.06031726742534     -2.19932693712593      0.47469569277698
  N   1.88914343311959      0.51804008285848     -0.42983350023817
  O   2.58868981325423      0.91838599936058      0.49756624414004
  O   1.86554350469543      0.98127526804553     -1.56837663240810
