15
Coordinates from ORCA-job run
  C   -0.46804770420456      0.03977804052336     -0.23425673474507
  C   0.99183450202750      0.39120966304451     -0.11733471525133
  H   -0.73175037076779     -0.19309699878240     -1.26501224455794
  H   1.21150738073965      1.30043687607719     -0.68180461189987
  H   1.30907502979355      0.51918667529996      0.91495102768035
  C   -1.36500992534992      1.12847376005417      0.33574687073880
  H   -1.13463701382631      1.30598932416309      1.38863247381349
  H   -1.22309470934257      2.05965756545078     -0.21613534843822
  H   -2.41042424878234      0.83153625001380      0.24753204388283
  N   -0.74855249340824     -1.23071869943987      0.52256339766793
  O   0.02307767418177     -1.54336071473047      1.42636211781084
  O   -1.76828099007633     -1.83215587756863      0.20421216255180
  N   1.87881402302309     -0.67177197567000     -0.69191604966952
  O   1.37439328784666     -1.48391037963588     -1.46260389640917
  O   3.05909555814586     -0.61925350879962     -0.36793649317494
