13
Coordinates from ORCA-job run
  C   -0.53966967427426      0.03306934722683     -0.10408597687086
  C   0.62054993503506     -0.20036357925317      0.54304078879484
  H   0.54980885165675     -0.59439370552730      1.55645335642025
  C   -1.90225329968311     -0.21781415860014      0.48517396349770
  H   -1.81056520681992     -0.60793953233369      1.50007504784540
  H   -2.45837774527303     -0.93975455309725     -0.11800900603991
  H   -2.48768019026086      0.70448671802411      0.51696799372497
  C   -0.51613413702786      0.55217798249979     -1.44380704623160
  N   -0.52538123394978      0.97774357265653     -2.54091066693549
  C   1.99363653826611      0.03065356694889     -0.00078363993563
  H   1.96797722448012      0.42541186567860     -1.01734681020893
  H   2.56527679451817     -0.90211350660878     -0.00598629559972
  H   2.54181214333262      0.73683598238557      0.63021829153898
