13
Coordinates from ORCA-job run
  C   -0.47015141597138      0.43916028340164     -0.35177713366412
  C   0.86542412771071      0.45287875319363     -0.15029166975565
  H   1.42232517497299      1.28093833512396     -0.58616282940056
  C   -1.45928450811750     -0.58464121999224      0.13943679051044
  H   -0.97760804093851     -1.37399327084808      0.71385017176716
  H   -2.21305192021403     -0.10748452583833      0.77122697246172
  H   -1.98251788468106     -1.04118202906198     -0.70470246426199
  C   -1.04004358368440      1.51433072493437     -1.11816234724568
  N   -1.53683535445703      2.37991074652113     -1.74109617774899
  C   1.67392629463691     -0.54974663499320      0.60930749178399
  H   2.43550179118757     -0.99047055281089     -0.04118856146063
  H   1.07603476639220     -1.35793448732990      1.02756071588543
  H   2.20628055316352     -0.05976612230012      1.42999904112891
