13
Coordinates from ORCA-job run
  C   -0.49503892393256     -0.04876101283832     -0.53848458865663
  C   0.83501075342435     -0.26909883100356     -0.45501205224730
  H   1.33971270711100     -0.59525183337141     -1.36313818845279
  C   -1.41858111746853      0.40343068447128      0.56172140622149
  H   -2.20724020895780     -0.33689985496363      0.71963373421058
  H   -0.89069351459957      0.55064571876624      1.50230360280318
  H   -1.90370123341737      1.34347972088411      0.28652709675203
  C   -1.12823076795867     -0.26486486587696     -1.81146832549129
  N   -1.67585879154407     -0.43272185584400     -2.83908904144584
  C   1.70149547899696     -0.11348041794748      0.75366516420721
  H   2.19333787951663     -1.06212195523643      0.98862878775164
  H   2.49602882499684      0.61269962175682      0.55681637663558
  H   1.15475891383280      0.21294488120335      1.63689602771213
