13
Coordinates from ORCA-job run
  C   -0.49101307810028      0.19371946150517     -0.50889258428122
  C   0.83779017113639     -0.04804558416175     -0.52203371562741
  H   1.34872660302748      0.05165807836452     -1.47853358332646
  C   -1.42174172650889      0.12512840131700      0.67300905330242
  H   -2.21493040882944     -0.60362268648646      0.48739798227392
  H   -0.90044148539185     -0.15819167642722      1.58569258298244
  H   -1.90013100245945      1.09446746080360      0.83453782891937
  C   -1.11480172146293      0.56043161206503     -1.75167726537486
  N   -1.65560177702222      0.86270597715810     -2.75182133643334
  C   1.69526080434595     -0.44111911908015      0.63836503041135
  H   1.14322435063904     -0.52521752055396      1.57310654212997
  H   2.17915779211207     -1.40232913088574      0.44067083026135
  H   2.49550147851413      0.29141472638186      0.78017863476247
