13
Coordinates from ORCA-job run
  C   -0.47907272076350      0.19848646795848     -0.51767487152601
  C   0.86304741192994      0.05127150285752     -0.47893883669341
  H   1.40930614250460      0.26137611825039     -1.39729588298571
  C   -1.45751044926950     -0.02724120029100      0.60462465040966
  H   -0.96159508307363     -0.34498439967741      1.52008135503765
  H   -2.18555126254691     -0.79221560962984      0.32264109825073
  H   -2.01315550174959      0.89084387872878      0.81208834804936
  C   -1.06854525738892      0.61851190879004     -1.76034731640953
  N   -1.58195781629443      0.96084370999610     -2.76200207827967
  C   1.69124714277333     -0.37185381782422      0.69195020036921
  H   2.42685461659954      0.40169490088853      0.93214187663524
  H   1.10280944185799     -0.56912537453081      1.58651755438353
  H   2.25412333542108     -1.27760808551656      0.44721390275895
