13
Coordinates from ORCA-job run
  C   -0.53883179470754      0.09619018878883     -0.05851150097518
  C   0.61969124098958     -0.43287528830656      0.38548679710209
  H   0.54908338349110     -1.20326997947596      1.15287130584928
  C   -1.90039673695954     -0.31161375252946      0.43809144749692
  H   -1.81015612663768     -1.08780237450145      1.19967179515091
  H   -2.42732908487513      0.54296118529133      0.87005896866912
  H   -2.51295013276240     -0.69526741657409     -0.38172046003013
  C   -0.51466942567671      1.11701415843818     -1.06937362777843
  N   -0.52339765028293      1.95426982971044     -1.89626005660717
  C   1.99178081327579     -0.06073658196012     -0.07646820712720
  H   2.50743644170580     -0.93476092785230     -0.48528872055189
  H   1.96764696890110      0.71531628262893     -0.84264181127462
  H   2.59309210353858      0.30057467634223      0.76308407007629
