13

C	0.0	0.0	0.0
C	-0.261724	0.05751	-1.527473
F	1.385377	0.0	0.0
H	-1.324518	0.170931	-1.697914
H	0.065462	-0.927477	-1.902185
C	-0.443807	1.225174	0.695133
N	-0.475464	2.227361	1.315968
C	-0.690717	-1.162941	0.580904
N	-0.630128	-2.252199	1.065937
N	0.464836	1.184597	-2.105269
H	0.194294	1.285132	-3.07492
H	1.457998	0.997298	-2.073355
H	-2.209222	0.0	0.0
