13

C	0.0	0.0	0.0
C	-0.266295	-0.011706	-1.526882
F	1.385557	0.0	0.0
H	0.060456	-1.01021	-1.86353
H	-1.330188	0.093935	-1.693784
C	-0.474524	1.234535	0.652402
N	-0.472576	2.246214	1.261544
C	-0.631728	-1.16186	0.64243
N	-0.59319	-2.218874	1.187958
N	0.457461	1.092347	-2.150418
H	0.169261	1.168212	-3.117312
H	1.450242	0.901263	-2.130169
H	-2.229625	0.0	0.0
