13

C	0.0	0.0	0.0
C	-0.278238	-0.087201	-1.52266
F	1.385557	0.0	0.0
H	0.13105	0.842031	-1.946969
H	-1.351037	-0.116597	-1.666028
C	-0.483533	1.255247	0.582827
N	-0.438755	2.351059	1.029808
C	-0.538966	-1.166941	0.721664
N	-0.531765	-2.178697	1.335233
N	0.345724	-1.301237	-2.031724
H	1.326179	-1.158363	-2.216482
H	-0.113038	-1.607647	-2.878053
H	-2.28113	0.0	0.0
