13

C	0.0	0.0	0.0
C	-0.337446	-0.063121	-1.497199
F	1.385587	0.0	0.0
H	0.082987	0.843382	-1.93968
H	-1.414675	-0.04898	-1.564798
C	-0.389756	1.290253	0.60783
N	-0.47682	2.309282	1.192067
C	-0.571442	-1.145093	0.719719
N	-0.558544	-2.192077	1.275755
N	0.19689	-1.303323	-2.068155
H	1.174875	-1.175118	-2.319844
H	-0.30387	-1.490389	-2.937543
H	-2.428044	0.0	0.0
