13

C	0.0	0.0	0.0
C	-0.267962	-0.010836	-1.52707
F	1.385745	0.0	0.0
H	-1.332904	-0.115583	-1.690017
H	0.060505	0.982236	-1.878657
C	-0.645856	1.165858	0.620229
N	-0.583708	2.241131	1.128962
C	-0.467853	-1.235654	0.657923
N	-0.485708	-2.262893	1.239548
N	0.450391	-1.125106	-2.135534
H	1.443207	-0.93413	-2.131602
H	0.150075	-1.224328	-3.096257
H	-2.226891	0.0	0.0
