13

C	0.0	0.0	0.0
C	-0.293432	0.101562	-1.514438
F	1.385759	0.0	0.0
H	-1.366117	0.170865	-1.639517
H	0.064984	-0.851435	-1.936589
C	-0.439992	1.191093	0.753485
N	-0.499058	2.167053	1.411725
C	-0.644068	-1.191385	0.577514
N	-0.572982	-2.278834	1.061232
N	0.364613	1.280518	-2.064824
H	1.34406	1.093983	-2.229297
H	-0.068598	1.522572	-2.94606
H	-2.281662	0.0	0.0
