13

C	0.0	0.0	0.0
C	-0.270151	-0.053034	-1.524322
F	1.385653	0.0	0.0
H	0.085726	0.919604	-1.904974
H	-1.338561	-0.13296	-1.681188
C	-0.645373	1.184197	0.5896
N	-0.584451	2.273059	1.068718
C	-0.461761	-1.212025	0.703606
N	-0.483855	-2.212801	1.327022
N	0.418324	-1.203761	-2.100808
H	0.058205	-1.371859	-3.031855
H	1.409494	-1.013055	-2.171337
H	-2.238766	0.0	0.0
