13

C	0.0	0.0	0.0
C	-0.288228	0.021491	-1.516914
F	1.385476	0.0	0.0
H	-1.364738	0.045174	-1.64073
H	0.111678	-0.922431	-1.916399
C	-0.642551	1.112587	0.714971
N	-0.59803	2.11605	1.357211
C	-0.419909	-1.263649	0.636164
N	-0.614802	-2.278766	1.221268
N	0.334069	1.211365	-2.08667
H	1.295817	1.032494	-2.337602
H	-0.172996	1.502647	-2.908798
H	-2.320739	0.0	0.0
