13

C	0.0	0.0	0.0
C	-0.287007	0.092908	-1.517433
F	1.382872	0.0	0.0
H	-1.361582	0.120085	-1.647556
H	0.114475	-0.840081	-1.942723
C	-0.514475	1.156026	0.7533
N	-0.543179	2.13799	1.409009
C	-0.538944	-1.246039	0.569868
N	-0.48731	-2.341639	1.02028
N	0.341396	1.295608	-2.051654
H	-0.199329	1.648904	-2.828145
H	1.283871	1.108984	-2.3648
H	-2.297429	0.0	0.0
