13

C	0.0	0.0	0.0
C	-0.295291	-0.124626	-1.512517
F	1.385271	0.0	0.0
H	0.042951	0.828497	-1.950723
H	-1.369008	-0.212301	-1.627351
C	-0.575584	1.237456	0.548387
N	-0.522766	2.336055	0.996096
C	-0.478254	-1.154988	0.780691
N	-0.496992	-2.110788	1.473471
N	0.383385	-1.299647	-2.043096
H	1.36079	-1.100946	-2.205712
H	-0.043952	-1.565553	-2.919693
H	-2.304905	0.0	0.0
