13

C	0.0	0.0	0.0
C	-0.330327	0.075539	-1.501983
F	1.385718	0.0	0.0
H	-0.001049	-0.886457	-1.929457
H	-1.415862	0.155845	-1.562977
C	-0.519008	1.145225	0.756778
N	-0.583941	2.208097	1.260349
C	-0.459862	-1.253274	0.632851
N	-0.700756	-2.219961	1.253931
N	0.335221	1.23409	-2.074185
H	1.279179	1.011685	-2.34978
H	-0.175699	1.551515	-2.885028
H	-2.433802	0.0	0.0
