13

C	0.0	0.0	0.0
C	-0.278215	-0.011386	-1.523639
F	1.381341	0.0	0.0
H	-1.349472	-0.072042	-1.669345
H	0.086693	0.963978	-1.885495
C	-0.647902	1.161722	0.630014
N	-0.591286	2.229127	1.155954
C	-0.461159	-1.234465	0.665117
N	-0.49008	-2.260144	1.246935
N	0.387651	-1.156988	-2.133399
H	1.36357	-0.95437	-2.29979
H	-0.05328	-1.367636	-3.01837
H	-2.252552	0.0	0.0
