16

C	0.0	0.0	0.0
C	-0.255153	0.169195	-1.498587
Cl	1.953575	0.0	0.0
H	0.271554	-0.640137	-2.015612
H	0.239427	1.095288	-1.812215
N	-0.485815	1.071344	0.733445
H	-0.055128	1.956912	0.531771
H	-0.679967	0.911193	1.708276
N	-0.478885	-1.214529	0.475203
H	-0.700639	-1.269422	1.453576
H	-0.005605	-2.021468	0.113075
C	-1.73591	0.174246	-1.838091
H	-1.843026	0.294979	-2.923895
H	-2.30572	0.926412	-1.297666
H	-2.250138	-0.719922	-1.493053
F	-3.769603	0.0	0.0
