16

C	0.0	0.0	0.0
C	-0.480455	0.053569	-1.441964
Cl	1.846989	0.0	0.0
H	-0.063303	0.948968	-1.9188
H	-1.568113	0.170498	-1.29343
N	-0.337948	1.263766	0.635899
H	0.081299	2.02481	0.112019
H	0.062948	1.278808	1.568114
N	-0.585346	-1.110861	0.652667
H	-0.383827	-1.045165	1.649646
H	-1.621533	-0.846877	0.507722
C	-0.146357	-1.190624	-2.248006
H	-0.586466	-1.124244	-3.248384
H	0.934126	-1.327228	-2.355598
H	-0.554672	-2.069281	-1.747994
F	-2.911339	0.0	0.0
