16

C	0.0	0.0	0.0
C	-0.200399	0.062414	-1.543729
Cl	1.849589	0.0	0.0
H	0.285954	0.989675	-1.881306
H	0.425579	-0.752336	-1.918726
N	-0.374215	1.237884	0.621814
H	-0.113095	1.230151	1.598333
H	0.09562	2.009696	0.170069
N	-0.626194	-1.140948	0.546272
H	-1.662722	-0.834235	0.40073
H	-0.453646	-1.173525	1.548845
C	-1.572208	-0.058596	-2.19107
H	-2.05715	-0.983556	-1.890962
H	-1.419321	-0.0564	-3.281563
H	-2.257134	0.726495	-1.880407
F	-2.947565	0.0	0.0
