16

C	0.0	0.0	0.0
C	-0.419917	-0.141687	-1.469895
Cl	1.812143	0.0	0.0
H	-1.509963	-0.048453	-1.414545
H	-0.007837	0.713661	-2.019921
N	-0.469694	1.23345	0.595114
H	-0.215917	2.006739	-0.014235
H	-1.495012	1.089127	0.517753
N	-0.503364	-1.12678	0.734564
H	-1.526904	-1.000175	0.584327
H	-0.329176	-0.921552	1.715073
C	-0.017749	-1.448978	-2.138805
H	1.068031	-1.54845	-2.217279
H	-0.440281	-1.505819	-3.148366
H	-0.392926	-2.2916	-1.557137
F	-2.8614	0.0	0.0
