16

C	0.0	0.0	0.0
C	-0.397409	0.202609	-1.465298
Cl	1.866421	0.0	0.0
H	0.028798	1.154964	-1.803522
H	-1.487268	0.29407	-1.398786
N	-0.45028	1.06441	0.863281
H	-1.477573	0.94861	0.764658
H	-0.191025	1.955754	0.448713
N	-0.499015	-1.26204	0.451505
H	-0.329278	-1.29478	1.453439
H	-1.523544	-1.101436	0.326136
C	-0.004175	-0.926499	-2.407646
H	1.080787	-1.026278	-2.489594
H	-0.402603	-1.871031	-2.036572
H	-0.409946	-0.746558	-3.408986
F	-2.843624	0.0	0.0
