16

C	0.0	0.0	0.0
C	-0.391392	-0.215348	-1.467217
Cl	1.866431	0.0	0.0
H	-1.482349	-0.290568	-1.406527
H	0.023275	-1.17837	-1.789156
N	-0.49606	1.26808	0.435786
H	-1.518949	1.11565	0.30643
H	-0.322111	1.322805	1.434634
N	-0.457111	-1.053149	0.873008
H	-1.485117	-0.931667	0.769622
H	-0.204607	-1.951546	0.47154
C	0.029554	0.895802	-2.420115
H	-0.30931	1.858102	-2.036468
H	-0.411682	0.738659	-3.409563
H	1.115063	0.942414	-2.533346
F	-2.841887	0.0	0.0
