16

C	0.0	0.0	0.0
C	-0.392985	0.054987	-1.472462
Cl	1.863232	0.0	0.0
H	-1.472086	-0.115967	-1.404925
H	0.09713	-0.788786	-1.960683
N	-0.544693	1.01854	0.823739
H	-0.35463	1.943408	0.458817
H	-1.576677	0.843662	0.633915
N	-0.353983	-1.306797	0.520517
H	-1.308828	-1.222959	0.944144
H	0.315496	-1.576377	1.255134
C	-0.079679	1.350913	-2.198958
H	0.987927	1.588779	-2.205827
H	-0.39926	1.297528	-3.243654
H	-0.613223	2.209911	-1.775792
F	-2.826533	0.0	0.0
