13

C	-0.521031	-0.002424	-1.429079
C	0.0	0.0	0.0
Cl	0.351206	-1.179917	-2.432578
H	1.09333	0.0	0.0
H	-1.580416	-0.23961	-1.515691
N	-0.380648	1.356611	-2.071217
O	0.554983	2.06524	-1.72417
O	-1.224327	1.621617	-2.928043
C	-0.427961	-1.232994	0.640113
N	-0.7394	-2.245947	1.150743
C	-0.516127	1.134634	0.738884
N	-0.919351	2.063525	1.340156
H	2.458314	0.0	0.0
