13

C	-0.535731	-0.173157	-1.41367
C	0.0	0.0	0.0
Cl	0.359359	-1.423905	-2.300097
H	1.101075	0.0	0.0
H	-1.5883	-0.443452	-1.457151
N	-0.444599	1.12181	-2.182585
O	0.612539	1.734694	-2.146066
O	-1.458423	1.444645	-2.802302
C	-0.427411	-1.13496	0.79905
N	-0.720894	-2.078892	1.437889
C	-0.472705	1.237987	0.585879
N	-0.797851	2.267746	1.05716
H	2.433437	0.0	0.0
