20

C	-0.548848	-0.000618	-1.417833
C	0.0	0.0	0.0
Cl	0.357949	-1.161926	-2.438195
H	1.094664	0.0	0.0
C	-2.026009	-0.318414	-1.560775
H	-2.353776	-0.178406	-2.592356
H	-2.619629	0.326791	-0.912794
H	-2.18647	-1.359373	-1.280234
N	-0.297565	1.38745	-2.007563
O	-1.263109	2.157069	-2.010925
O	0.833605	1.679929	-2.360476
C	-0.42396	-1.261816	0.744166
H	-1.482377	-1.267885	1.038847
H	-0.216006	-2.158653	0.154764
H	0.188708	-1.329167	1.646763
C	-0.409962	1.248443	0.776221
H	-0.010469	1.146594	1.789025
H	-1.49462	1.407544	0.846391
H	0.050532	2.143073	0.351033
F	2.626779	0.0	0.0
