20

C	-0.247205	0.109313	-1.505309
C	0.0	0.0	0.0
Cl	-1.897587	0.717379	-1.938008
H	1.096132	0.0	0.0
C	0.818465	0.970015	-2.155518
H	1.77538	0.670295	-1.703338
H	0.809659	0.861026	-3.241885
H	0.6187	2.012937	-1.906007
N	-0.156512	-1.301986	-2.089494
O	-1.16181	-2.007489	-2.114192
O	0.965305	-1.66887	-2.428414
C	-0.579073	-1.241036	0.655823
H	-0.094239	-2.148458	0.289762
H	-0.388836	-1.188103	1.731987
H	-1.659927	-1.33526	0.498833
C	-0.443336	1.263512	0.727056
H	-0.000365	1.251663	1.726886
H	-1.532631	1.331302	0.82543
H	-0.084131	2.166935	0.229682
F	2.701604	0.0	0.0
