20

C	-0.230903	-0.124445	-1.512338
C	0.0	0.0	0.0
Cl	-0.184132	1.470848	-2.335103
H	1.096455	0.0	0.0
C	0.844117	-0.991007	-2.133141
H	0.744226	-2.017142	-1.781322
H	0.78671	-0.98095	-3.223169
H	1.79262	-0.593776	-1.741914
N	-1.633926	-0.672499	-1.769281
O	-1.729813	-1.853364	-2.106048
O	-2.592551	0.054817	-1.517585
C	-0.476051	-1.264596	0.712538
H	-0.099079	-2.17432	0.241237
H	-0.085702	-1.24712	1.733667
H	-1.571281	-1.329408	0.764937
C	-0.568876	1.240881	0.665713
H	-1.648354	1.342719	0.512199
H	-0.074127	2.142371	0.304226
H	-0.376976	1.173423	1.740894
F	2.711317	0.0	0.0
