20

C	-0.228338	-0.1441	-1.510691
C	0.0	0.0	0.0
Cl	-0.164884	1.439094	-2.356273
H	1.096441	0.0	0.0
C	0.840922	-1.027929	-2.116877
H	1.791419	-0.626784	-1.733884
H	0.783377	-1.036911	-3.206775
H	0.736505	-2.047203	-1.745829
N	-1.634441	-0.685122	-1.765193
O	-2.589411	0.054275	-1.532511
O	-1.736761	-1.870903	-2.081495
C	-0.476453	-1.25579	0.728496
H	-0.095016	-1.220139	1.752193
H	-1.571572	-1.325146	0.773177
H	-0.091521	-2.170784	0.275187
C	-0.572577	1.24722	0.650033
H	-1.655519	1.332281	0.514294
H	-0.097748	2.147831	0.26271
H	-0.360416	1.203042	1.722057
F	2.711594	0.0	0.0
