20

C	-0.518318	-0.004977	-1.430969
C	0.0	0.0	0.0
Cl	0.377955	-1.205126	-2.414439
H	1.09468	0.0	0.0
C	-1.999912	-0.280102	-1.609461
H	-2.591073	0.39433	-0.990296
H	-2.293946	-0.148122	-2.652352
H	-2.200386	-1.310701	-1.317286
N	-0.208732	1.366431	-2.031997
O	-1.147397	2.168533	-2.056947
O	0.936963	1.614967	-2.372527
C	-0.451379	-1.250465	0.744658
H	-1.518397	-1.245824	1.007675
H	-0.233468	-2.154912	0.171002
H	0.131655	-1.312697	1.667395
C	-0.411592	1.260243	0.755853
H	-1.494989	1.437024	0.794497
H	-0.043183	1.160979	1.780673
H	0.074958	2.143419	0.336447
F	2.62828	0.0	0.0
