20

C	-0.233333	-0.118628	-1.51239
C	0.0	0.0	0.0
Cl	-0.160616	1.472684	-2.329877
H	1.096435	0.0	0.0
C	0.825723	-1.003335	-2.131778
H	1.780894	-0.630265	-1.733054
H	0.700171	-2.028664	-1.789092
H	0.773943	-0.986518	-3.222263
N	-1.645472	-0.642395	-1.775593
O	-2.590596	0.096441	-1.517115
O	-1.761589	-1.816334	-2.124154
C	-0.478599	-1.264832	0.710201
H	-0.10089	-2.172599	0.241808
H	-1.572398	-1.330679	0.758802
H	-0.093311	-1.247915	1.731087
C	-0.565749	1.23762	0.674942
H	-0.101414	2.143012	0.290214
H	-0.334124	1.181182	1.741642
H	-1.651011	1.321248	0.561247
F	2.711062	0.0	0.0
