14
Coordinates from ORCA-job run
  C   -0.47449666044116     -0.54841987438539      0.12481140756601
  C   0.80072816437211     -0.29746809159903     -0.69800820641315
  Br  -1.28426758510541     -2.21547529659730     -0.53155022843371
  H   0.48939516021021     -0.13222088899692     -1.73293209808731
  H   1.41505629961646     -1.20633265821856     -0.67463209918583
  C   -0.10209052803113     -0.76372589294305      1.52099967359005
  N   0.24585733032815     -0.89433969713929      2.63622632509036
  C   -1.48305062366802      0.58437876453545     -0.00234187891794
  H   -1.78029073844996      0.68916896090297     -1.04787398993851
  H   -1.00801310590251      1.50756408487114      0.33144866170541
  H   -2.37065565115938      0.38434489983326      0.59857968748412
  N   1.46036779185102      0.89630013984364     -0.19024844245525
  H   2.01437218297186      1.33339668587801     -0.91405086856860
  H   2.07608796340778      0.66282886401506      0.57857205656436
