14
Coordinates from ORCA-job run
  C   -0.40235514889300     -0.27920755684309      0.25362418171930
  C   0.75898590549999      0.26872055836139     -0.57932516598601
  Br  -0.43245188684454     -2.24241034345414      0.05442970829829
  H   0.54782312597890      0.02061019973127     -1.63015721077409
  H   0.72228006894115      1.35936201398712     -0.48015835907970
  C   -0.19357313482062      0.01113908798943      1.66923797683126
  N   -0.08377974425469      0.30522977430679      2.80148657264033
  C   -1.74451040332603      0.26784269766923     -0.21710464649858
  H   -1.89637222143357      0.02407379479719     -1.27015502590169
  H   -2.56308869997281     -0.15668066840631      0.36422894104445
  H   -1.75285964334612      1.35478462096521     -0.09426411394277
  N   2.03653373792162     -0.19553432758220     -0.07693383216761
  H   2.22018280172648     -1.13924537856519     -0.39141521943256
  H   2.78418524282324      0.40031552704329     -0.40549380675060
