14
Coordinates from ORCA-job run
  C   -0.39194496200095     -0.46027621762486      0.27981899477733
  C   1.05445457361409     -0.01708666654120      0.00868940271938
  Br  -0.80763259800647     -1.97605426272595     -0.91458604343312
  H   1.26905748906442      0.78340747937453      0.72528730369405
  H   1.72029354391124     -0.85849293402494      0.24180386721666
  C   -0.48515191752754     -0.96459056207468      1.64686228458731
  N   -0.54039532415389     -1.31800103233134      2.76659247117292
  C   -1.40261346535957      0.65073980257016      0.03476679792375
  H   -2.41881933156722      0.29647571114034      0.20892147329536
  H   -1.29803659969897      1.00596342037574     -0.98860891554569
  H   -1.19299321009167      1.47669125582699      0.72127151437135
  N   1.18726733718086      0.51497185018937     -1.33630349527840
  H   1.30064562653456     -0.23998547666845     -2.00043678549580
  H   2.00486883810112      1.10723763251429     -1.39407887000507
