14
Coordinates from ORCA-job run
  C   -0.45495396632187     -0.34593171593367      0.14824565700677
  C   0.73596210016948      0.26058731935027     -0.60842664706512
  Br  -0.75981510503970     -2.17710165257112     -0.48358323558608
  H   0.51015333707900      0.18866506786349     -1.67550745755748
  H   0.75368415719776      1.32963907466455     -0.34159960263622
  C   -0.12180097156201     -0.41957208474624      1.56890238289800
  N   0.19203565829352     -0.40519351729397      2.70162475884176
  C   -1.72824863156290      0.46400594791193     -0.06882547761936
  H   -2.57069703255208      0.01149123601425      0.45421146813699
  H   -1.58559019948284      1.48142658991561      0.30611392819210
  H   -1.95869926684638      0.50363934958831     -1.13529856290684
  N   1.96646027168328     -0.44766918319441     -0.32462784063678
  H   2.38823812396204     -0.11317339444997      0.53190488166052
  H   2.63227152498268     -0.33081303711904     -1.07513425272827
