14
Coordinates from ORCA-job run
  C   -0.48174181538028     -0.53947916512461      0.13510260448351
  C   0.80902702345473     -0.32991730187782     -0.67542722018452
  Br  -1.30074793453922     -2.21788475411076     -0.47840023840846
  H   1.41148060704558     -1.24484224367783     -0.61300246494596
  H   0.51541689882355     -0.19508093373656     -1.71987721147285
  C   -0.13442602559978     -0.71096700814812      1.54389173876266
  N   0.18269679101812     -0.80323425744940      2.67204474399320
  C   -1.47474838876638      0.59997131593647     -0.04515288441907
  H   -1.75327716406152      0.67424144390457     -1.09845723336299
  H   -2.37456832514224      0.42953542235436      0.54663867188975
  H   -0.99456964640075      1.52807181743453      0.26689807234457
  N   1.47480372470792      0.87180273384623     -0.19625851796933
  H   2.04251860915826      1.28150505235124     -0.92532033620203
  H   2.07713564568205      0.65727787829768      0.58832027549153
