14
Coordinates from ORCA-job run
  C   -0.40948017269937     -0.25478484501555      0.15607648576685
  C   0.77159275080748      0.30814071010128     -0.66873445744788
  Br  -0.71811285519286     -2.12287449599440     -0.38761991643261
  H   0.85017209219335      1.36986715829350     -0.40701792722242
  H   0.48461959082956      0.24957847938339     -1.72279539621656
  C   -0.04607690423515     -0.27389160683053      1.56944931179353
  N   0.26794254795885     -0.22737684669824      2.70146570413839
  C   -1.68913321551510      0.53858150455268     -0.07313701972190
  H   -1.53572329177462      1.57228466638177      0.24978704654151
  H   -2.52196016572776      0.11458467762005      0.48828558244086
  H   -1.93953778677315      0.53020933879243     -1.13571557015919
  N   2.06529108822442     -0.30264568816624     -0.49421130476943
  H   2.03586106506088     -1.28412677424092     -0.73796103699070
  H   2.38354525684347     -0.21754627817920      0.46312849827956
