14
Coordinates from ORCA-job run
  C   -0.31177513903189     -0.46514453049463      0.31563928225418
  C   1.14743653849365     -0.06463912349881     -0.02705726801157
  Br  -0.81511993658369     -2.01213560049462     -0.79684864889779
  H   1.78999664534628     -0.92394236412387      0.17928596062678
  H   1.42444360187516      0.72551959803158      0.68017735342483
  C   -0.36523796128539     -0.90076762920356      1.70686241499162
  N   -0.37679683259032     -1.19942678752031      2.84400842357248
  C   -1.31014310746459      0.65746237439826      0.06648727521010
  H   -2.31955280509494      0.34867333511774      0.33851445756483
  H   -1.03201898963334      1.52670216019785      0.67036608237035
  H   -1.30671438400817      0.93455042897964     -0.98805625367975
  N   1.40641413825679      0.40310987053474     -1.36575822260757
  H   1.15230891686813     -0.29411512510165     -2.05313735314662
  H   0.91675931485231      1.26315339317764     -1.56948350367190
