14
Coordinates from ORCA-job run
  C   -0.33845852906079     -0.45549710470837      0.30096073738690
  C   1.14077833376696     -0.14080180431830     -0.04497195887715
  Br  -0.95745384406234     -1.91887943369175     -0.86556124609700
  H   1.47799765274463      0.59967896230876      0.68937054254013
  H   1.72545315804217     -1.04920388152643      0.11884502117886
  C   -0.40758423748571     -0.94282474472916      1.67429254728545
  N   -0.43387947201783     -1.28299311398098      2.79945911967713
  C   -1.26107625179218      0.74067501097376      0.10976721910435
  H   -1.24933602940621      1.05924379542772     -0.93295695530738
  H   -0.91861050237536      1.56426888796795      0.74384761246604
  H   -2.28633958072690      0.49013877137790      0.38230573957241
  N   1.41672825408814      0.36223820615971     -1.36725182122617
  H   1.10731869166839     -0.28696174461983     -2.07855576202834
  H   0.98646235661699      1.26191819335904     -1.52955079567521
