14
Coordinates from ORCA-job run
  C   -0.34880687911613     -0.43925450328719      0.31370731393651
  C   1.13383479926752     -0.18115644207638     -0.06465188525938
  Br  -1.04105236976603     -1.89495581844591     -0.81986434153304
  H   1.51055596133087      0.55690686448616      0.65267285175832
  H   1.68919737265103     -1.10744005014114      0.10101812406364
  C   -0.40692288420468     -0.90556733935546      1.69497295684745
  N   -0.42174198151770     -1.23246641830796      2.82426314852124
  C   -1.23221140014820      0.78620906772835      0.12374504965815
  H   -0.84911265128564      1.60550001011234      0.73987258012963
  H   -2.26040682277352      0.57600765244228      0.41848982385251
  H   -1.22916660786946      1.09050270141671     -0.92332856653148
  N   1.40141196982222      0.29383491124119     -1.39883565473372
  H   1.05668379227741     -0.35385589964165     -2.09506969615827
  H   0.99973770133230      1.20573526382863     -1.56599170455157
