14
Coordinates from ORCA-job run
  C   -0.39109930535147     -0.24515370844250      0.21783375178444
  C   0.77386905722728      0.18293577475003     -0.70659832444149
  Br  -0.44331224936289     -2.21297031863161      0.28804893959872
  H   0.56882802220611     -0.23798075299041     -1.69538012124768
  H   0.71066070558971      1.27403862642701     -0.79231931510946
  C   -0.12539568752129      0.22628584843025      1.57331017003286
  N   0.13782710416243      0.66629382134712      2.63134464104014
  C   -1.73338529537804      0.26130773847529     -0.29275466949041
  H   -2.55058523247210     -0.07078515201405      0.34793555266707
  H   -1.72291702988618      1.35488411265456     -0.31276138985648
  H   -1.90443450733959     -0.11225968785795     -1.30419753113278
  N   2.11294788130625     -0.16826490947380     -0.30827787423888
  H   2.35295506125499      0.25328050534309      0.58030481400791
  H   2.21404147556476     -1.17161189801703     -0.22748864361396
