14

C	0.0	0.0	0.0
C	-0.3512	-0.018687	-1.500879
Cl	1.797299	0.0	0.0
H	-0.054581	0.966986	-1.897491
H	-0.315337	0.936237	0.461601
H	0.340624	-0.739261	-1.960022
C	-0.551398	-1.178494	0.765856
H	-0.185333	-1.179121	1.796297
H	-1.643899	-1.086836	0.768057
H	-0.267167	-2.116794	0.284061
N	-1.72007	-0.401229	-1.805373
H	-2.410681	-0.209366	-1.042386
H	-2.045347	0.141272	-2.596673
H	-3.647136	0.0	0.0
