14

C	0.0	0.0	0.0
C	-0.546856	0.029872	-1.404574
Cl	1.803256	0.0	0.0
H	-1.638291	0.070199	-1.247921
H	-0.281225	0.938095	0.480772
H	-0.294807	-0.91801	-1.907236
C	-0.54047	-1.174336	0.779171
H	-0.17497	-1.171594	1.809063
H	-0.254046	-2.118827	0.306996
H	-1.635865	-1.062268	0.763548
N	-0.110199	1.221596	-2.133542
H	0.842366	1.09256	-2.45804
H	-0.702324	1.336602	-2.947918
H	-3.421644	0.0	0.0
