14

C	0.0	0.0	0.0
C	-0.513481	-0.063886	-1.443985
Cl	1.797755	0.0	0.0
H	0.272737	0.293735	-2.11665
H	-0.275791	0.984228	0.380677
H	-0.691131	-1.127193	-1.690971
C	-0.563846	-1.084397	0.887887
H	-1.657979	-1.002028	0.841255
H	-0.256265	-2.071674	0.531255
H	-0.234257	-0.965346	1.923337
N	-1.671395	0.811105	-1.574846
H	-2.444096	0.495957	-0.942724
H	-2.048316	0.700314	-2.512283
H	-3.756239	0.0	0.0
