14

C	0.0	0.0	0.0
C	-0.608341	-0.017823	-1.387426
Cl	1.794421	0.0	0.0
H	-1.631787	0.359323	-1.225855
H	-0.267618	0.959377	0.449947
H	-0.052411	0.658888	-2.044021
C	-0.531858	-1.113171	0.873569
H	-1.627331	-1.020052	0.850221
H	-0.170388	-1.011699	1.899907
H	-0.221077	-2.08205	0.478982
N	-0.62923	-1.369248	-1.965369
H	-0.750273	-1.27665	-2.96758
H	-1.490414	-1.792527	-1.627762
H	-3.433632	0.0	0.0
