13
Coordinates from ORCA-job run
  C   -0.66411044455019      0.10178486678320      0.07977119982051
  C   0.78962952930294      0.50616099775144      0.28745045023791
  F   -1.29687456765352     -0.05244983851409      1.29013837876094
  H   1.21612716071508      0.68940237875492     -0.71384075605127
  H   0.79465142859119      1.45835665260157      0.82434624392390
  C   -1.38341888812830      1.18720523105426     -0.64296542100407
  N   -1.92323843462689      2.02065292368175     -1.27030722614316
  N   -0.73418471174001     -1.17167081237820     -0.59063222275716
  H   -0.38914109599872     -1.09011919688677     -1.53996499388949
  H   -1.69714568220501     -1.48653845172298     -0.62509626041220
  N   1.46169794824310     -0.50132934289331      1.08416627011216
  H   2.43869258305985     -0.26339076016621      1.19067224990231
  H   1.38931517499047     -1.40006464806560      0.62626208749961
