13
Coordinates from ORCA-job run
  C   -0.68718797706551      0.10505925367217     -0.05392381632154
  C   0.76292485041052      0.50062137068893      0.20974149700411
  F   -1.20837965496980     -0.31610201107278      1.19848258544163
  H   0.76321564338640      1.28799562532523      0.97278058741982
  H   1.17231093936749      0.90956307932022     -0.71557145118377
  C   -1.49574508306193      1.27504430577772     -0.44711922537542
  N   -2.11114740688097      2.22600677875134     -0.75344646492379
  N   -0.75363082339540     -0.89769924592817     -1.03494869417147
  H   -0.07939328533149     -1.61910447741483     -0.80595166786714
  H   -1.68644292589694     -1.27407410391297     -1.13560056907308
  N   1.49512697420882     -0.70453997388288      0.57751875439544
  H   2.48663070895675     -0.57515919055944      0.43237475135217
  H   1.34171804027207     -0.91561141076455      1.55466371330303
