13
Coordinates from ORCA-job run
  C   -0.72654779075726      0.07159663097674      0.12172780010707
  C   0.64351760664540      0.17045449292487      0.77432359111135
  F   -1.67711753715172      0.14990938525458      1.15802857998068
  H   0.65510283812390      1.07183189203678      1.39033071067562
  H   0.73087831784559     -0.69593186047614      1.45098182942045
  C   -0.98418273164868      1.21461929630160     -0.77434850034680
  N   -1.23924892716427      2.10957347795492     -1.48851202547113
  N   -0.83827319203429     -1.13618676448730     -0.61312033427190
  H   -1.70968494875699     -1.18620955431195     -1.12547792230661
  H   -0.76931857140408     -1.92898356474161      0.01433541179157
  N   1.65182793789135      0.27382021631035     -0.26064686137834
  H   2.55846453766894      0.47553303423978      0.13756760586625
  H   1.70458246074211     -0.59002668198260     -0.78318988517822
