13
Coordinates from ORCA-job run
  C   -0.73331111543509      0.08245625589872      0.05769734632201
  C   0.71315563160312     -0.33692256223279      0.33195814548562
  F   -1.18116769172587      0.71251909652489      1.21472266799312
  H   0.65790651961680     -1.02421269499907      1.18557110263096
  H   1.06546590245407     -0.90906964034693     -0.53270939434203
  C   -0.77227617504263      1.07869647511774     -1.03044793330952
  N   -0.78028207695552      1.82133375587294     -1.93865090187644
  N   -1.59877100431463     -1.00373863991339     -0.25437375835277
  H   -1.88533853259438     -1.05323349203347     -1.21837282312765
  H   -1.25176253063601     -1.89238409039639      0.07571594158988
  N   1.54485741568022      0.81498435543523      0.61620071328084
  H   2.29186945022339      0.91594791556961     -0.05296598171619
  H   1.93065420712654      0.79262326550291      1.54665487542216
