13
Coordinates from ORCA-job run
  C   -0.72242725586692      0.10266836818277      0.14601482273727
  C   0.67523595687222      0.13620176812421      0.74463305862572
  F   -1.62644300714586      0.21971628355584      1.21982891890614
  H   0.75375409130717      1.03519890015750      1.35913558294799
  H   0.74554742099005     -0.73398641400894      1.41858126760350
  C   -0.96019787024477      1.26227474474769     -0.73394845558525
  N   -1.14929300740048      2.20221196136090     -1.40977078649674
  N   -0.91820755936157     -1.09598711071255     -0.58605012115674
  H   -0.85747412374453     -1.89409707752337      0.03541712013579
  H   -1.81208309318464     -1.10541465770005     -1.06059979875433
  N   1.64874350623021      0.19076330509677     -0.32615019138914
  H   2.57663507699630      0.35797283129270      0.03727535787061
  H   1.64720986455282     -0.67652290257348     -0.84536677544481
