13
Coordinates from ORCA-job run
  C   -0.65350418305890      0.23762964002906     -0.05261806581596
  C   0.86840660160570      0.34733547753802     -0.03593980862228
  F   -1.07048733388021      0.42510862504844      1.29251080081944
  H   1.22015860022805      0.29255496511037     -1.06761520356794
  H   1.13002435762067      1.33042509167747      0.37301395792733
  C   -1.25946075761750      1.34699516206394     -0.81367960610571
  N   -1.70936983844943      2.24411164193080     -1.42156906450578
  N   -1.05259003968550     -1.00230190410016     -0.57713256594004
  H   -2.04653200795436     -1.15828669737494     -0.47864851974493
  H   -0.51070626840642     -1.73258183546695     -0.12949726184538
  N   1.38992148280798     -0.78495156195129      0.71904671107057
  H   2.35745354058801     -0.95383367895151      0.48173570107466
  H   1.33468584620189     -0.59220492555325      1.71039292525601
