13
Coordinates from ORCA-job run
  C   -0.68142608755168      0.14489149318907     -0.02363378460746
  C   0.80568253194832      0.46962657733597      0.08382071780261
  F   -1.13197854863287     -0.05570852679565      1.30864213526294
  H   0.91123867931966      1.35495485683401      0.72196839558478
  H   1.16873842811708      0.71379325429135     -0.91598446051760
  C   -1.44443859147275      1.30173291337536     -0.53027578509128
  N   -2.02203249834683      2.24109814662142     -0.93132725334765
  N   -0.88259264202777     -0.97979467233279     -0.84016803409252
  H   -0.23942505547418     -1.70814845605035     -0.55170675998537
  H   -1.84190819486123     -1.29827561709553     -0.82400900562611
  N   1.48864439439563     -0.72036862685639      0.57528944249379
  H   2.47238783116471     -0.68408988216468      0.34751616793160
  H   1.39710975342190     -0.77871146035179      1.58086822419227
