13
Coordinates from ORCA-job run
  C   -0.66730672437483      0.20096019978963      0.01448142042073
  C   0.84426141941578      0.40282587631698     -0.03972644480926
  F   -1.00868754153071      0.19414388985019      1.39342883626527
  H   1.07667466706349      1.34230811423298      0.47556091419966
  H   1.13236678153385      0.49810960297680     -1.08803603520487
  C   -1.38033955609347      1.35555091855010     -0.56485237172422
  N   -1.91687778772404      2.29039868591903     -1.02854760185999
  N   -1.02960795310380     -0.98721767262362     -0.64059249561758
  H   -0.42168890163475     -1.73197237916169     -0.31943991865665
  H   -2.00539418122436     -1.21573155515634     -0.50785661077249
  N   1.47388330454737     -0.77907263030768      0.53535910827186
  H   2.43252481049559     -0.85640758918170      0.22554542255062
  H   1.47019166262990     -0.71389546120469      1.54467577693692
