13
Coordinates from ORCA-job run
  C   -0.67530396132330      0.17165847539838      0.00091863582707
  C   0.82687612789279      0.43884269004984      0.02151677517834
  F   -1.06694532974258      0.05557320670982      1.36176728194269
  H   1.14992735790771      0.61832513251329     -1.00536320231507
  H   0.99834012799923      1.34907567939841      0.60821084968267
  C   -1.41655739059172      1.33325193273293     -0.52683070127126
  N   -1.97640359400669      2.27497894191319     -0.94701484715345
  N   -0.96063986410441     -0.98215820771350     -0.74668820179637
  H   -0.33323615068138     -1.72199548277717     -0.45274670608620
  H   -1.92987838202490     -1.25894490122292     -0.66993738867473
  N   1.48569822169441     -0.75321367727526      0.54036758970535
  H   2.45771133323158     -0.76917366771390      0.26503086302341
  H   1.44141150374925     -0.75822012201311      1.55076905193757
