13
Coordinates from ORCA-job run
  C   -0.67801973294880      0.25448626154652      0.04761982870908
  C   0.84797167345655      0.35160839249585      0.05933437814588
  F   -1.08632188359031      0.54224924812110      1.37472224445513
  H   1.11782999734140      1.29704398118830      0.54555620948780
  H   1.19660054824456      0.37875409830881     -0.97571631530064
  C   -1.25460096790038      1.32700024920540     -0.78626857968822
  N   -1.68369827138079      2.17188494859507     -1.47883437984650
  N   -1.12259041852534     -1.00621894376813     -0.35250523755990
  H   -0.39943168709812     -1.70610368593392     -0.39281706479810
  H   -1.86274463295027     -1.06418557133341     -1.02695329313131
  N   1.37552935244854     -0.84473366599871      0.70193486325381
  H   1.16831093381724     -0.81375723424524      1.69267291231950
  H   2.38016508908573     -0.88602807818165      0.59325443395346
