13
Coordinates from ORCA-job run
  C   -0.83746113848482      0.16944814452652      0.15446407461443
  C   0.55544491211238      0.01308464030086      0.76900542567125
  F   -1.71655493131164      0.41080299734410      1.19268426909120
  H   0.50522341547656     -0.85685639150014      1.43018555124887
  H   0.77156143001863      0.89612065677402      1.38442200330080
  C   -0.82714479005999      1.35072895713841     -0.74052749291988
  N   -0.73618975983630      2.29139084411738     -1.43612633440088
  N   -1.32627377891429     -0.96354908556490     -0.57711365973862
  H   -0.63198053776146     -1.20412574215359     -1.27706420159292
  H   -1.40573292430073     -1.74354027044842      0.06774219012992
  N   1.50490624109671     -0.24256392300100     -0.30681348645139
  H   2.30805814657829     -0.75048501761762      0.03690718486153
  H   1.83814371538665      0.62954419008440     -0.69876552381432
