13
Coordinates from ORCA-job run
  C   -0.80102563689241      0.10079321123255      0.25985753521022
  C   0.62344344279359      0.02224624510188      0.80001721635045
  F   -1.64652802754704      0.35272507818240      1.32907726598923
  H   0.62141693061317     -0.81046755286346      1.50675008802010
  H   0.82799402762713      0.94710909603960      1.35261266150808
  C   -0.92262021866869      1.27008294124720     -0.65297710517051
  N   -0.95724275733890      2.16051567887394     -1.41848865954596
  N   -1.14965557582517     -1.13685695147737     -0.34150278234909
  H   -1.96413657450651     -1.06066012966735     -0.93626025237002
  H   -0.35291653027827     -1.46564340042182     -0.87560938893489
  N   1.53851122918831     -0.26942200048203     -0.29552044914387
  H   2.38745760567582     -0.69229855961348      0.05364980122332
  H   1.79430208515897      0.58087634384794     -0.78260593078705
