13
Coordinates from ORCA-job run
  C   -0.63297354770984      0.10046872562776      0.01212861614686
  C   0.76985176214140     -0.32131938537637      0.41538725345857
  F   -1.00670076370856      1.16083408472790      0.82823740512343
  H   0.68151831607980     -0.70822108688689      1.43950676239380
  H   1.08941258179412     -1.13972333701847     -0.23648050726297
  C   -0.64695927034244      0.62288080573914     -1.37861684887039
  N   -0.72218548496556      0.94228544164044     -2.50599695363957
  N   -1.57066979533626     -0.95668997689687      0.24447532410990
  H   -1.28407925654899     -1.79996798150638     -0.23673082957231
  H   -2.49108830866947     -0.69249448398337     -0.08656355528109
  N   1.67039065829928      0.80350278670099      0.24052920509793
  H   1.50950505836675      1.48717977107413      0.96804266375796
  H   2.63297805059976      0.50126463615798      0.29808146453788
