13
Coordinates from ORCA-job run
  C   -0.63756728678012      0.05119890223564      0.04232399524451
  C   0.79765235093894     -0.37133575021875      0.30535545481962
  F   -1.05625748736614      0.81923224766334      1.12254967129078
  H   1.15220625634609     -0.95618672361065     -0.54864216506474
  H   0.75939169112115     -1.02943698081494      1.18405519677561
  C   -0.71729950971693      0.93515641157721     -1.14862413244870
  N   -0.83820800488370      1.54793757647615     -2.14285183973550
  N   -1.50194920388480     -1.08826083273861     -0.02184634719941
  H   -2.44201151804187     -0.80753431787205     -0.27467415510720
  H   -1.16691892059545     -1.75241575531068     -0.70845601388228
  N   1.62255954781205      0.81563237059367      0.44157319687008
  H   1.42463379447309      1.26836618705896      1.32407627057895
  H   2.60276829057768      0.56964666496072      0.42616086785828
