13
Coordinates from ORCA-job run
  C   -0.72097559905899      0.10364033471263      0.12640714475517
  C   0.66138465776342      0.16113671300153      0.75729917460622
  F   -1.65248534381351      0.25155140540187      1.17222099084784
  H   0.72218375154018     -0.69015096483341      1.45580478109402
  H   0.72025033294870      1.07708321613222      1.34857700909895
  C   -0.94243746804185      1.23437170326520     -0.79501142522066
  N   -1.17271934849476      2.14309782821489     -1.50009319711043
  N   -0.89491240823852     -1.11758310164873     -0.57298250083415
  H   -1.77790216421511     -1.14521699566287     -1.06766626444839
  H   -0.84640680759017     -1.89560048557228      0.07479123014721
  N   1.65781297776007      0.19391225183296     -0.29363860871802
  H   2.57752889542714      0.37053831977714      0.08598639609019
  H   1.66867852401338     -0.68578022462116     -0.79169473030796
