13
Coordinates from ORCA-job run
  C   -0.60856278262731      0.09544555793275     -0.02580855507790
  C   0.71114822025105     -0.28779409122727      0.64870755423953
  F   -1.03594344000116      1.29711405055806      0.52725466754861
  H   0.46550967197829     -0.45903761381489      1.70024074771995
  H   1.06315114541303     -1.23322601277146      0.22421249868363
  C   -0.37342953852177      0.37774069843962     -1.46678477781840
  N   -0.15916900106480      0.52649585935666     -2.61220553682810
  N   -1.61532601500795     -0.88090371080634      0.22843574018749
  H   -1.27133453689578     -1.81727580179325      0.06221489885103
  H   -2.44461411056268     -0.72239025093504     -0.32972529541178
  N   1.76411286133275      0.69701901756455      0.55201857973387
  H   1.43683323424847      1.58959551663593      0.89753451087290
  H   2.06762429145786      0.81721678086067     -0.40609503270079
