13
Coordinates from ORCA-job run
  C   -0.67343658523759      0.00248703773405      0.01003586468161
  C   0.79051256481977     -0.35681835106228      0.25603876030894
  F   -1.19546119197015      0.51035633327176      1.20611833639925
  H   0.79142472248472     -1.05233376222933      1.10129772263665
  H   1.14789771761556     -0.89651629528757     -0.62856355947319
  C   -0.76944990676751      1.08924332212322     -0.98596126671368
  N   -0.81181189809453      1.93931832693482     -1.79335223486480
  N   -1.39652090182436     -1.12533202587211     -0.45621936449226
  H   -2.37262981944332     -0.89993805090579     -0.60137145436542
  H   -1.32599592217724     -1.88701196061584      0.20754376585572
  N   1.55180417788050      0.83009757899854      0.59785106801383
  H   2.01609844286233      1.21247661764840     -0.21378515876924
  H   2.24656859985181      0.63397122926214      1.30236752078259
