13
Coordinates from ORCA-job run
  C   -0.58140027182410     -0.05592644124770     -0.05884416146120
  C   0.88136381526396     -0.41554879129961      0.21804209690715
  F   -1.11285299034220      0.42421423150545      1.16291603024800
  H   0.86510957730939     -1.25238695238437      0.92548589935017
  H   1.32269703444085     -0.77497692778572     -0.71347190296674
  C   -0.66633899886861      1.07621562442034     -1.00188472721850
  N   -0.67951686397408      1.98224952323832     -1.74762680587872
  N   -1.29859644093238     -1.16002948398781     -0.56437107943435
  H   -2.27351030212067     -0.94131212011421     -0.72306146250990
  H   -1.22145797915872     -1.95525385450783      0.05689938839021
  N   1.69261575001776      0.64566471690111      0.76864523669916
  H   1.82803460574616      1.38611288865331      0.09196486848638
  H   1.24385306444265      1.03897758660875      1.58530661938835
