13
Coordinates from ORCA-job run
  C   -0.56202238073320      0.18330237591102     -0.08621507632599
  C   0.89247848118903      0.40849836965813      0.34280317849998
  F   -1.35054448503125      0.12601936495770      1.05202436252673
  H   0.95294274729999      1.39021213979825      0.81898285887002
  H   1.51510951016625      0.44540388744072     -0.55764273687120
  C   -1.05318522016046      1.33444456369662     -0.88521464236611
  N   -1.38914015095817      2.22750407313332     -1.57071630266444
  N   -0.69943262458789     -1.08445807035455     -0.74543682113663
  H   -0.15135429153756     -1.10157746586787     -1.59725496822676
  H   -1.67035573466821     -1.25399695601292     -0.98319763247532
  N   1.39909688990407     -0.59691928788334      1.25142967438066
  H   0.86537675096043     -0.56381729749453      2.11136438019494
  H   1.25203050815697     -1.51461569698252      0.84907372559412
