13
Coordinates from ORCA-job run
  C   -0.68808255923338      0.07216892605585      0.10100699245888
  C   0.74092488872943     -0.30383491007296      0.47562412367070
  F   -1.20192385902554      0.91493186443839      1.06163082610523
  H   1.06281473109312     -1.13227862647285     -0.17192224488770
  H   0.67287094304716     -0.68632042969417      1.49616206948515
  C   -0.68653049570007      0.83363192777593     -1.17809791067218
  N   -0.67068254772196      1.34461023691872     -2.23545056895362
  N   -1.52166888448062     -1.09507422633008      0.08085959735096
  H   -2.47264215862364     -0.84186792667366     -0.16053387757410
  H   -1.18441808971205     -1.76824755077481     -0.59558372634430
  N   1.59530828091989      0.86710220465963      0.42779271702826
  H   2.06733144166139      0.94786818858133     -0.46175577272974
  H   2.28869830904627      0.84631032158868      1.16026777506244
