13
Coordinates from ORCA-job run
  C   -0.61126116838089      0.18719984405955     -0.05707165966225
  C   0.84733370476797      0.53410138479238      0.26604272855135
  F   -1.24189021471798     -0.06977520568692      1.18514381727658
  H   0.82817699961523      1.36896397869308      0.97068823560130
  H   1.32840521669329      0.87636431907529     -0.65227258356333
  C   -1.30434578820693      1.35062788537846     -0.63893139935494
  N   -1.82434601672521      2.29979804171792     -1.09272094255081
  N   -0.71050219218648     -0.91473012230102     -0.93504288839262
  H   -1.67477987899383     -1.14508599258196     -1.13781777071462
  H   -0.24993118233384     -1.72040622759813     -0.53260972379917
  N   1.61885376955340     -0.54779739444648      0.83787857963200
  H   1.85125144813750     -1.25842865371672      0.15890110953659
  H   1.14303530277775     -0.96183185738547      1.62781249743992
