13
Coordinates from ORCA-job run
  C   -0.59395807578832      0.24191143989347     -0.02224596279690
  C   0.91719706281288      0.47309308376462      0.10096711063558
  F   -1.10183702021686      0.22532683992653      1.29984851219422
  H   1.32010639661089      0.63767268143978     -0.90024268451292
  H   1.05375597591697      1.39148913291656      0.67695678088628
  C   -1.23982660806280      1.38094906209343     -0.69888680741615
  N   -1.72022005005758      2.30786802673377     -1.23508109994332
  N   -0.89065390371957     -0.95342753651888     -0.71440307452317
  H   -0.46744560603428     -1.74065030296839     -0.24048704910148
  H   -1.88872926052554     -1.10330829026731     -0.78848232873366
  N   1.64756426980222     -0.59849762266958      0.74190054009947
  H   1.73429757272657     -1.41405315511717      0.15248705778923
  H   1.23074924653543     -0.85037335922682      1.62766900542280
