13
Coordinates from ORCA-job run
  C   -0.60817581891900      0.20270541881077     -0.02596195343996
  C   0.87772011201692      0.51833384660657      0.18577472919007
  F   -1.16011369209967      0.01318782181119      1.26520009558141
  H   0.92843182666620      1.38270212972999      0.85224749403093
  H   1.30657333322696      0.80621973012063     -0.77602754995001
  C   -1.30765119596422      1.36273917199810     -0.60675669241814
  N   -1.83252596568479      2.30860631747459     -1.06182692222639
  N   -0.79640108507288     -0.92909031630965     -0.84944536569843
  H   -1.77816012143202     -1.13992437433477     -0.97520104671154
  H   -0.32907859407605     -1.73109944395687     -0.44754727270731
  N   1.65471464420105     -0.56138734637477      0.75428518656568
  H   1.82391729572067     -1.30675145787608      0.09406975777355
  H   1.21974926141683     -0.92724149769971      1.59018954001014
