13
Coordinates from ORCA-job run
  C   -0.55083077297818      0.22628208645766     -0.04558153987355
  C   0.95707401900386      0.35422866516140      0.19874699532358
  F   -1.20429961880480      0.35784827775141      1.16950534202056
  H   1.15375516829842      1.36827528900013      0.55536697247196
  H   1.47189072269493      0.24227269110680     -0.76156150014819
  C   -1.03484190016815      1.33240108335350     -0.90943533220203
  N   -1.37458765607314      2.17983892556721     -1.64887011465165
  N   -0.86877108455486     -1.08255618212214     -0.54322647628298
  H   -0.42476475651971     -1.23743334371847     -1.44055687442338
  H   -1.87100943248845     -1.18101748395700     -0.65802981471600
  N   1.48018452791139     -0.59921927344234      1.15273646976616
  H   1.20757127077963     -1.53388077290532      0.87382130827457
  H   1.05862951289907     -0.42703996225283      2.05708456444096
