13
Coordinates from ORCA-job run
  C   -0.74004994557680      0.09286924913697      0.27324239788572
  C   0.66728212551743      0.07315173216211      0.88052622171084
  F   -1.64157256388007      0.31058559144781      1.29910042821572
  H   0.77835985393865      0.99735027713895      1.45330776909931
  H   0.67535675966859     -0.76134173577433      1.58576331543526
  C   -0.86373409584781      1.24674015474370     -0.65869187259694
  N   -0.89130622413659      2.12176820815084     -1.44226097329692
  N   -1.06270082429086     -1.16397478002475     -0.32721376636393
  H   -1.94918216119656     -1.11751579708376     -0.81544481636237
  H   -0.34509972172883     -1.43230024252069     -0.98763265856357
  N   1.77272913698539     -0.05832964278906     -0.04103704114682
  H   1.77720958258955      0.66227989851949     -0.75027797673413
  H   1.82370807795790     -0.97028291310730     -0.47038102728218
