12
Coordinates from ORCA-job run
  C   -0.24441551164193      0.27744951717559     -0.42846940728901
  C   0.84301475457518     -0.47595655544048      0.33771305831220
  Br  0.32742081793124      2.12280590333470     -0.71438034415057
  H   0.47708200561418     -1.48391727960596      0.56438543284446
  H   -0.35051530459336     -0.14367686013449     -1.42976818106683
  H   1.03944359701675      0.02549254087675      1.28975670371242
  C   -1.56813691798782      0.25401511228920      0.31308564327077
  H   -2.33259061240888      0.80231524936246     -0.23798495070139
  H   -1.90510293618924     -0.78018084888017      0.43423164626704
  H   -1.46621675640884      0.70789767818995      1.30107130779647
  C   2.09315595190090     -0.59619619478872     -0.40913498649801
  N   3.08786091219185     -0.71104826237884     -1.02050592249754
