12
Coordinates from ORCA-job run
  C   -0.35110964345051      0.11968024333552     -0.69656043664462
  C   0.87379286490312     -0.72336292659060     -0.33802199569799
  Br  0.23596047308642      1.82736893238655     -1.44398822187527
  H   0.53481825861720     -1.72484837008396     -0.04852446359472
  H   -0.87731707908719     -0.37690284416668     -1.51434925893190
  H   1.52814563490116     -0.83434177300276     -1.20585286070992
  C   -1.27940259288266      0.35498886581234      0.47921506469322
  H   -2.15869257857239      0.92096614366433      0.16996040035865
  H   -0.77219470595444      0.90833046885320      1.27145759117996
  H   -1.61095434413637     -0.60770451312217      0.88218797522375
  C   1.63998697696914     -0.15697123687833      0.77064139531238
  N   2.23796673560653      0.29379700979255      1.67383481068646
