16
Coordinates from ORCA-job run
  C   -0.64975660854464      0.21537940644751      0.49901892658892
  C   0.82057307741623     -0.03522754920397      0.18836017401233
  F   -0.75656958450520      1.09268924798140      1.50903854450880
  H   1.24462247503980     -0.30934082802560      1.16399522632014
  N   -1.31838152027180     -1.07184058992767      0.94162627717872
  O   -2.21021503067169     -1.53547597865882      0.24656601041274
  O   -0.87067382531466     -1.51976868448548      1.98829433605435
  N   -1.42530837738358      0.76130273079732     -0.68152125405848
  O   -2.21560986967582      1.66275650182737     -0.44516481017728
  O   -1.19729104093223      0.23572210713512     -1.76136846533425
  N   1.33639588559515      1.21986494914345     -0.34902643077279
  H   2.24182285170091      1.05508374116038     -0.76960468955311
  H   1.44889541705168      1.90792366074467      0.38692706141788
  N   0.95753733366570     -1.17403356924644     -0.66891857339501
  H   0.70343109440044     -0.94848240753504     -1.62084738440700
  H   1.89152772242971     -1.55555273815420     -0.62637494879596
