16
Coordinates from ORCA-job run
  C   -0.68641426386668      0.33115187507899      0.36971877348255
  C   0.68388133594663      0.39578476270844     -0.29291972117496
  F   -0.85195154675935      1.39326889036549      1.17316756433329
  H   0.70266357371306      1.39748315117204     -0.74359372731428
  N   -0.89242985069106     -0.92027032069713      1.19724482107631
  O   -1.44637535083198     -0.77506683232097      2.27660470106614
  O   -0.49726502033860     -1.96387042824411      0.69833350654744
  N   -1.77910580982468      0.37994581576668     -0.68081464659975
  O   -2.50922633760088     -0.59158378914486     -0.80912655094807
  O   -1.80733493596946      1.42990994607589     -1.30787633324541
  N   0.76052947021961     -0.55223059919790     -1.36352438446932
  H   0.87670017020757     -1.49279661322231     -1.01213240631454
  H   1.49834231627473     -0.31601227287176     -2.01126947776902
  N   1.65697059287861      0.21147547904791      0.77904549246270
  H   2.56668247739269      0.02850351926843      0.37560565147002
  H   1.72533317924981      1.04530741621516      1.35153673739690
