16
Coordinates from ORCA-job run
  C   -0.67229298787346      0.07393231154141      0.55462589554221
  C   0.81559172644016      0.22220348849791      0.19857511290189
  F   -0.84812017878891      0.19519310950807      1.87596907807059
  H   1.18623994408511      0.93459680233074      0.94808194941929
  N   -1.23339516130938     -1.26055165404602      0.11869178670077
  O   -1.06368291762482     -1.52424766997924     -1.06436042717538
  O   -1.80044900129563     -1.93249152853094      0.96476501556490
  N   -1.55040330112662      1.14030652698389     -0.07284944392742
  O   -2.66612580191818      0.81106166270823     -0.45247458101835
  O   -1.08010970499134      2.27346672920248     -0.04812140445734
  N   0.99004512571387      0.65414948776815     -1.17406816428293
  H   0.83375358408187      1.64864096624805     -1.27103199690047
  H   1.93234797738214      0.43668740958151     -1.46902735250165
  N   1.41810515912799     -1.05773599205105      0.47604361338184
  H   1.35465054292998     -1.65645006130866     -0.33909915037895
  H   2.38384499516721     -0.95976158845454      0.75328006906102
