16
Coordinates from ORCA-job run
  C   -0.64923727284384      0.21167687968763      0.50117115545696
  C   0.82241433436057     -0.02054081954939      0.18280036997004
  F   -0.76211676027110      1.09919531306831      1.50143467531937
  H   1.25737290189595     -0.27794437813392      1.15821768842517
  N   -1.29523905722381     -1.08035069581308      0.96277886957271
  O   -2.18411282493870     -1.56541914934010      0.27862825545461
  O   -0.83433899819719     -1.50905075337324      2.01175470308173
  N   -1.44235349797440      0.73179246515362     -0.67959737081587
  O   -1.21013532831524      0.20233761910709     -1.75662789787401
  O   -2.24998938861529      1.61834960620424     -0.44544495839864
  N   1.31658006132671      1.23556708255568     -0.37158777481107
  H   2.21966104161855      1.07859235430541     -0.79999750108938
  H   1.42675145803381      1.93294450028769      0.35581860203771
  N   0.97001295800475     -1.16690547474553     -0.66282795409032
  H   0.70777043780154     -0.95518012418225     -1.61570567573395
  H   1.90895993533769     -1.53606442523217     -0.62081518650506
