16
Coordinates from ORCA-job run
  C   -0.64938114553528     -0.41303307132712      0.16353886741723
  C   0.87915763638569     -0.20845685514769      0.11799899296039
  F   -0.96605357144651     -1.69493886324960     -0.06298309212572
  H   1.25464210241906     -0.65429879185691      1.05181690237475
  N   -1.32662473912365      0.44039299544328     -0.88659916879628
  O   -1.23287866315629      0.01038920371551     -2.02875930993543
  O   -1.85059089483239      1.47996156451256     -0.51541088364704
  N   -1.27892750121883     -0.02579231096531      1.48801279532000
  O   -0.63359085580756      0.73227281912694      2.20508299389426
  O   -2.37921227266238     -0.50636166523390      1.71803933139897
  N   1.14155032637941      1.20095319707472     -0.04724922842270
  H   2.12427730999999      1.30737636038714     -0.26454988783798
  H   0.92471452527530      1.71281837323109      0.79773570118643
  N   1.50351255837525     -0.89545911405940     -0.98073908586458
  H   1.09772965541132     -0.58955798781881     -1.85777047280098
  H   1.39267552953687     -1.89726585383249     -0.90016445512133
