16
Coordinates from ORCA-job run
  C   -0.60176346424624      0.17584828126258      0.47562213764247
  C   0.89669722573979     -0.01288403175996      0.16041961115219
  F   -0.78425428737591      1.18315502965524      1.33985995032840
  H   1.32289610104724     -0.47265140842170      1.06526674522698
  N   -1.25952499448415     -1.05164313309948      1.07656533307467
  O   -2.30201779999919     -0.85630739696498      1.68446194155732
  O   -0.69218892987462     -2.12480599292365      0.89834156969190
  N   -1.37142456592414      0.48522527167649     -0.78995744003377
  O   -1.99867085618919     -0.42809055382757     -1.30516766341869
  O   -1.24084140495029      1.63233042750374     -1.19655222557277
  N   1.58211476141128      1.23116960167823     -0.06662398886910
  H   1.14079263490731      1.73782237136702     -0.82554222005420
  H   1.57708506152600      1.81149410274299      0.76138083987820
  N   1.00928790080314     -0.79587842630619     -1.04657489337412
  H   1.97405312654963     -0.75641963757828     -1.34983798451205
  H   0.74575949105931     -1.75836450500447     -0.88166171271744
