16

C	-0.244529	0.178751	-1.48725
C	0.0	0.0	0.0
Br	-2.202681	0.482691	-1.848741
H	1.094225	0.0	0.0
H	-0.404054	-0.928754	0.397021
N	0.489195	1.264708	-2.090513
H	0.265451	2.105931	-1.568712
H	1.468126	1.05997	-1.855347
C	0.160481	-1.117776	-2.162348
H	0.068285	-1.005078	-3.243273
H	1.209256	-1.301581	-1.896917
H	-0.450305	-1.956476	-1.824122
N	-0.471197	1.069841	0.86847
O	-0.948005	0.749715	1.96413
O	-0.316055	2.243184	0.507312
H	2.674645	0.0	0.0
