16

C	-0.272893	0.045935	-1.482947
C	0.0	0.0	0.0
Br	-2.26622	0.344218	-1.828307
H	1.0951	0.0	0.0
H	-0.368719	0.901634	0.481449
N	0.424832	1.229775	-1.906917
H	0.493816	1.238351	-2.917798
H	1.374146	1.160256	-1.514174
C	0.105138	-1.201033	-2.261093
H	-0.506652	-2.062913	-2.009241
H	0.012528	-0.991545	-3.330056
H	1.150101	-1.416189	-2.015991
N	-0.509322	-1.136355	0.752931
O	-1.075224	-0.897952	1.82707
O	-0.286786	-2.277888	0.335992
H	2.668295	0.0	0.0
