16

C	-0.276132	-0.112496	-1.479746
C	0.0	0.0	0.0
Br	-2.2689	0.155332	-1.851775
H	1.094761	0.0	0.0
H	-0.371453	0.946003	0.384239
N	0.426079	1.013368	-2.035884
H	0.49919	0.905196	-3.041207
H	1.374041	0.985761	-1.636523
C	0.095765	-1.438499	-2.116086
H	-0.517454	-2.264448	-1.766808
H	-0.002594	-1.350077	-3.202072
H	1.141388	-1.629688	-1.85285
N	-0.507907	-1.053054	0.868648
O	-1.102989	-0.70638	1.896352
O	-0.254638	-2.228828	0.5871
H	2.669524	0.0	0.0
