17

C	0.0	0.0	0.0
C	-0.540756	-0.009775	-1.410214
Cl	1.785405	0.0	0.0
H	-1.622066	-0.194681	-1.271979
H	-0.088856	-0.838254	-1.955809
C	-0.526243	1.127426	0.843427
H	-0.200474	2.077459	0.416182
H	-0.15905	1.049127	1.865375
H	-1.625061	1.037331	0.804009
N	-0.359219	-1.335203	0.676438
O	-0.48358	-2.316617	-0.045579
O	-0.423837	-1.345874	1.900631
C	-0.327889	1.313309	-2.136145
H	-1.009688	2.074846	-1.752962
H	-0.542345	1.187465	-3.200834
H	0.699783	1.678623	-2.045105
H	-3.268353	0.0	0.0
