17

C	0.0	0.0	0.0
C	-0.58007	-0.024941	-1.392989
Cl	1.785398	0.0	0.0
H	-1.656854	-0.221981	-1.211771
H	-0.140531	-0.853737	-1.949218
C	-0.54828	1.106547	0.855801
H	-0.26053	2.069905	0.432121
H	-0.174778	1.032553	1.875608
H	-1.646201	0.983249	0.821311
N	-0.325485	-1.350095	0.674512
O	-0.415375	-1.365459	1.896433
O	-0.393627	-2.336405	-0.04906
C	-0.428289	1.295257	-2.137167
H	-0.715328	1.157019	-3.18314
H	-1.095425	2.049544	-1.716284
H	0.598649	1.673569	-2.118213
H	-3.299837	0.0	0.0
