16

C	-0.560586	-0.045404	-1.410528
C	0.0	0.0	0.0
Br	-0.106945	1.60457	-2.375241
H	1.090908	0.0	0.0
H	-1.654842	-0.052591	-1.400261
C	0.036855	-1.23437	-2.13607
H	-0.235105	-1.234349	-3.193479
H	1.120643	-1.190864	-2.014791
H	-0.332431	-2.146657	-1.66399
N	-0.487533	-1.148757	0.721221
H	0.132313	-1.320847	1.502108
H	-1.430155	-0.983781	1.052802
N	-0.51615	1.262889	0.666392
O	0.277511	2.114446	1.047557
O	-1.745349	1.344683	0.808641
F	2.612725	0.0	0.0
