16

C	-0.224139	0.014728	-1.502381
C	0.0	0.0	0.0
Br	-2.159381	0.087434	-1.995683
H	1.093177	0.0	0.0
H	0.072444	-0.983238	-1.829895
C	0.585051	1.050187	-2.25314
H	1.594177	0.966087	-1.831454
H	0.58683	0.833913	-3.324826
H	0.209568	2.058027	-2.085534
N	-0.484562	-1.141855	0.705397
H	0.235259	-1.850458	0.686176
H	-1.353521	-1.498225	0.329896
N	-0.538992	1.251892	0.612759
O	-1.507032	1.177339	1.369579
O	0.009407	2.310437	0.297984
F	2.594645	0.0	0.0
