16

C	-0.439148	0.050284	-1.441756
C	0.0	0.0	0.0
Cl	-2.38058	0.310693	-1.505413
H	1.096696	0.0	0.0
C	0.030704	1.262384	-2.118366
N	0.371674	2.229246	-2.691591
N	-0.070959	-1.084258	-2.164675
H	-0.43232	-1.094829	-3.107719
H	-0.27713	-1.94301	-1.67098
C	-0.451489	-1.24082	0.59618
N	-0.775016	-2.270503	1.066706
C	-0.381318	1.216214	0.83372
H	0.006622	2.114874	0.348118
H	0.1203	1.132446	1.800803
H	-1.458365	1.314049	0.980979
H	2.587564	0.0	0.0
