16

C	-0.502331	-0.028747	-1.442786
C	0.0	0.0	0.0
Cl	0.331263	1.337517	-2.366015
H	1.094673	0.0	0.0
C	-0.089058	-1.257534	-2.134259
N	0.180101	-2.235566	-2.726669
N	-1.924652	0.077645	-1.52956
H	-2.219416	0.117928	-2.498488
H	-2.227207	0.921653	-1.059736
C	-0.468524	-1.192149	0.686707
N	-0.838341	-2.132245	1.289779
C	-0.405755	1.253456	0.774581
H	-1.473085	1.299911	1.012386
H	0.157568	1.251749	1.711061
H	-0.104755	2.143621	0.22027
H	2.667628	0.0	0.0
