16

C	-0.574659	0.002251	-1.42233
C	0.0	0.0	0.0
Cl	0.103205	1.408551	-2.318407
H	1.104927	0.0	0.0
C	-0.162551	-1.214024	-2.140021
N	0.102728	-2.211411	-2.699772
N	-2.027059	0.096848	-1.536741
H	-2.424679	-0.685917	-1.023109
H	-2.316731	0.951007	-1.071631
C	-0.44711	-1.210069	0.668718
N	-0.799947	-2.176114	1.242621
C	-0.389276	1.222442	0.831169
H	-1.452676	1.262887	1.08791
H	0.192005	1.184477	1.755849
H	-0.099954	2.134499	0.307114
H	2.651671	0.0	0.0
