16

C	-0.503246	0.011452	-1.441103
C	0.0	0.0	0.0
Cl	0.303449	1.431006	-2.316012
H	1.104253	0.0	0.0
C	-0.062193	-1.179584	-2.178769
N	0.222994	-2.134727	-2.800557
N	-1.92622	0.094308	-1.523829
H	-2.221934	0.195319	-2.487854
H	-2.248944	0.896834	-0.996456
C	-0.450598	-1.218101	0.651333
N	-0.77503	-2.185979	1.23717
C	-0.407678	1.224183	0.818112
H	-0.139631	2.135879	0.281738
H	0.180689	1.207784	1.739106
H	-1.469134	1.244192	1.085492
H	2.647768	0.0	0.0
