16

C	-0.208052	-0.042905	-1.512284
C	0.0	0.0	0.0
Cl	-1.940082	-0.457332	-1.984898
H	1.099037	0.0	0.0
C	-0.006044	1.301433	-2.092705
N	0.195772	2.353154	-2.579911
N	0.680913	-1.031981	-2.025238
H	0.782063	-0.953056	-3.030149
H	1.595351	-0.884607	-1.561362
C	-0.45273	-1.240617	0.602764
N	-0.816527	-2.205599	1.167563
C	-0.556936	1.218469	0.715559
H	-0.336573	1.13808	1.782052
H	-0.070432	2.121734	0.341779
H	-1.6392	1.309665	0.586117
H	2.681071	0.0	0.0
