16

C	-0.438771	0.047722	-1.441243
C	0.0	0.0	0.0
Cl	-2.383425	0.308326	-1.506922
H	1.096687	0.0	0.0
C	0.030368	1.258676	-2.120015
N	0.378613	2.227177	-2.686506
N	-0.071354	-1.088229	-2.161578
H	-0.427602	-1.099539	-3.10628
H	-0.27704	-1.946125	-1.668187
C	-0.449043	-1.241968	0.595717
N	-0.77143	-2.274395	1.060633
C	-0.384876	1.215165	0.832891
H	-0.008104	2.11693	0.343954
H	-1.462032	1.304017	0.984439
H	0.121937	1.136989	1.797824
H	2.584779	0.0	0.0
