16

C	-0.261895	0.188788	-1.503231
C	0.0	0.0	0.0
Cl	-0.061508	-1.463578	-2.349637
H	1.103921	0.0	0.0
C	-1.646104	0.578603	-1.812204
N	-2.749536	0.933767	-2.005886
N	0.661285	1.153449	-1.954343
H	1.593524	0.921396	-1.57197
H	0.68232	1.226128	-2.963469
C	-0.572227	-1.208386	0.554668
N	-1.038482	-2.148526	1.085691
C	-0.431909	1.226387	0.805125
H	-1.518371	1.357386	0.818478
H	-0.075512	1.110891	1.831685
H	0.037506	2.113855	0.379509
H	2.708883	0.0	0.0
