16

C	-0.516431	-0.187916	-1.437946
C	0.0	0.0	0.0
Cl	0.083972	1.17197	-2.451191
H	1.103585	0.0	0.0
C	0.029561	-1.431288	-2.005263
N	0.393701	-2.450026	-2.462899
N	-1.963022	-0.237698	-1.618635
H	-2.312491	-1.027558	-1.082556
H	-2.355824	0.608178	-1.219551
C	-0.490851	-1.123901	0.777352
N	-0.915371	-2.027978	1.401344
C	-0.406525	1.318091	0.654156
H	-1.489695	1.462471	0.729249
H	0.013829	1.33281	1.66232
H	0.039958	2.147842	0.10534
H	2.656861	0.0	0.0
