14

C	-0.427177	0.015205	-1.462483
C	0.0	0.0	0.0
F	-0.10414	-1.261516	-1.970693
H	1.090514	0.0	0.0
H	0.225961	0.715175	-1.987105
N	-1.790295	0.337119	-1.686188
H	-2.374544	-0.274644	-1.130375
H	-2.016541	0.230545	-2.66633
N	-0.530951	-1.250909	0.641356
O	-1.757789	-1.421256	0.634715
O	0.271626	-2.037463	1.125572
C	-0.522513	1.136448	0.731601
N	-0.893125	2.073618	1.33678
F	2.501298	0.0	0.0
