14

C	-0.20794	-0.091797	-1.51993
C	0.0	0.0	0.0
F	-0.100437	1.235686	-2.010397
H	1.091979	0.0	0.0
H	-1.211562	-0.416808	-1.81305
N	0.804407	-0.950326	-1.983878
H	0.87356	-0.950111	-2.99022
H	1.693734	-0.704849	-1.519135
N	-0.523726	-1.26489	0.603158
O	-1.746148	-1.429598	0.581613
O	0.28255	-2.064095	1.061587
C	-0.655462	1.130185	0.614254
N	-1.16676	2.049507	1.13706
F	2.576614	0.0	0.0
