14

C	-0.442875	-0.025765	-1.444169
C	0.0	0.0	0.0
F	-1.821109	-0.380738	-1.507916
H	1.093385	0.0	0.0
H	0.089202	-0.819383	-1.962859
N	-0.20747	1.219575	-2.067916
H	-0.495374	1.185454	-3.036157
H	-0.706857	1.961052	-1.593151
N	-0.368445	-1.264594	0.671002
O	-0.245274	-2.296832	0.01438
O	-0.694742	-1.227504	1.857356
C	-0.543789	1.134986	0.712794
N	-0.941779	2.129765	1.198195
F	2.454887	0.0	0.0
