14

C	-0.220527	0.138007	-1.500941
C	0.0	0.0	0.0
F	-1.502999	0.621292	-1.79826
H	1.09356	0.0	0.0
H	-0.188225	-0.858582	-1.948763
N	0.765957	1.057538	-1.970661
H	1.639736	0.861236	-1.46387
H	0.911557	0.937634	-2.964069
N	-0.477766	-1.287583	0.550234
O	-0.916783	-1.304146	1.699524
O	-0.339835	-2.28742	-0.154633
C	-0.524957	1.119334	0.75066
N	-0.924451	2.035841	1.367021
F	2.532305	0.0	0.0
