14

C	-0.430845	-0.021845	-1.448577
C	0.0	0.0	0.0
F	-1.801895	-0.408747	-1.527045
H	1.092118	0.0	0.0
H	0.124709	-0.799417	-1.968031
N	-0.219659	1.233751	-2.058388
H	-0.75403	1.955535	-1.591825
H	-0.479356	1.198294	-3.034449
N	-0.371571	-1.267728	0.662521
O	-0.728618	-1.234758	1.841216
O	-0.223007	-2.298009	0.007179
C	-0.5582	1.128504	0.71093
N	-0.987635	2.112156	1.192064
F	2.454149	0.0	0.0
