14

C	-0.203653	0.114519	-1.518794
C	0.0	0.0	0.0
F	-0.092097	1.495473	-1.824402
H	1.094356	0.0	0.0
H	-1.205848	-0.163449	-1.856458
N	0.806755	-0.676224	-2.09016
H	0.876761	-0.547119	-3.089445
H	1.69609	-0.496477	-1.59465
N	-0.526644	-1.333845	0.42596
O	0.272583	-2.172251	0.829358
O	-1.745763	-1.509197	0.325924
C	-0.655838	1.037591	0.761558
N	-1.169589	1.876282	1.404797
F	2.576574	0.0	0.0
