8
Coordinates from ORCA-job run
  C   1.17181869785556      0.21113473329053      0.11600474121749
  C   -0.12841389455803      0.09155927874821      0.42666904073603
  H   1.52819176386637      0.13143467679600     -0.90601678432378
  H   1.89977923256627      0.41521264989094      0.88889581622745
  H   -0.45024102518670      0.19021328873805      1.46063404690331
  N   -1.18386073840938     -0.05797611310605     -0.47383232192787
  H   -1.94515812805481     -0.61734058399049     -0.12319640352801
  H   -0.89311590807927     -0.36523793036718     -1.39015813530463
