8
Coordinates from ORCA-job run
  C   1.17710109147603      0.17393635212135      0.12626714284801
  C   -0.13075602771826      0.11157733409734      0.42138489840940
  H   1.54340088701702      0.04712461362713     -0.88752122617342
  H   1.90215830552543      0.37856939665378      0.90171673130373
  H   -0.46342616179840      0.25603169008918      1.44652150872691
  N   -1.17854378214275     -0.03230450951404     -0.48908908034305
  H   -1.96393492975799     -0.55173862753697     -0.13019623009369
  H   -0.88599938260109     -0.38319624953777     -1.38908374467788
