8
Coordinates from ORCA-job run
  C   1.09023936814885      0.45150608470333      0.19848501151831
  C   -0.05276355414433     -0.22491560184832      0.39229591024738
  H   1.33577416892095      0.90034252099878     -0.75873313329905
  H   1.81259138459979      0.54242577077181      0.99774456537590
  H   -0.26041488851331     -0.67316495613809      1.36097579007732
  N   -1.01571769646947     -0.51630202195707     -0.57476324295082
  H   -1.95794902277626     -0.54479333787099     -0.21868206403842
  H   -0.95075975976622      0.06490154134055     -1.39732283693062
