8
Coordinates from ORCA-job run
  C   1.18461113156603      0.16428210621396      0.03205507162121
  C   -0.04790099435251     -0.22642263015106      0.39215784543451
  H   1.35441465989738      0.81681814042066     -0.81843254635162
  H   2.04485109685432     -0.14549057159913      0.60909425111665
  H   -0.18230917631019     -0.86951376987398      1.25864826084793
  N   -1.24838391542127      0.18651694659383     -0.18730369196460
  H   -1.13568510692126      0.59196340603857     -1.10463095555719
  H   -1.96959769531250     -0.51715362764286     -0.18258823514688
