8
Coordinates from ORCA-job run
  C   1.16697747753379      0.22960370812919      0.12746940988862
  C   -0.11532410539957     -0.01389996884538      0.44024253992495
  H   1.87567120641725      0.49239260213748      0.90056699171233
  H   1.53533647450066      0.14952727693606     -0.89028479036578
  H   -0.44618839659758      0.06493701189948      1.47304886615544
  N   -1.10716338824660     -0.46866991824285     -0.43025040854525
  H   -2.02821994348437     -0.11998708093759     -0.21621208566637
  H   -0.88108932472357     -0.33290363107639     -1.40458052310394
