8
Coordinates from ORCA-job run
  C   1.07187543099803      0.49843553202627      0.18443967820039
  C   -0.05643355282948     -0.19330235573574      0.40816584300666
  H   1.21254912233747      1.09139346621105     -0.71367235876785
  H   1.86497295574626      0.50129208222721      0.91919553017225
  H   -0.16811064528347     -0.76714658874441      1.32501741890921
  N   -1.19842319455973     -0.19541419193775     -0.39401168871153
  H   -1.69167546679421     -1.07414806393805     -0.39918557900357
  H   -1.03375464961487      0.13889011989144     -1.33194884380556
