15

C	-0.459411	0.037313	-1.455292
C	0.0	0.0	0.0
Br	-0.29617	-1.790521	-2.212948
H	1.097845	0.0	0.0
H	-1.522695	0.263149	-1.522934
N	0.298127	0.938375	-2.269207
H	-0.025401	1.880778	-2.089192
H	1.284754	0.869101	-2.027998
N	-0.602162	-1.024179	0.831819
H	-0.538126	-1.899694	0.328186
H	-0.013602	-1.113315	1.65324
N	-0.413727	1.299462	0.657098
O	-1.121147	2.104343	0.044329
O	-0.038154	1.447058	1.813254
Br	3.476167	0.0	0.0
