15

C	-0.308092	-0.065505	-1.47929
C	0.0	0.0	0.0
Br	-2.250119	-0.191001	-1.839853
H	1.10315	0.0	0.0
H	-0.028857	0.87872	-1.945057
N	0.346672	-1.243917	-1.993864
H	0.316742	-1.238197	-3.005677
H	1.324533	-1.197747	-1.700686
N	-0.576533	-1.084435	0.741393
H	-0.590186	-1.887633	0.121939
H	0.03146	-1.301634	1.5213
N	-0.419313	1.316996	0.587346
O	-0.74255	1.329454	1.770814
O	-0.336067	2.312358	-0.132209
Br	3.43326	0.0	0.0
