15

C	-0.375841	0.02763	-1.48618
C	0.0	0.0	0.0
Br	-0.244325	-1.910862	-2.198781
H	1.091034	0.0	0.0
H	-1.431115	0.229911	-1.66244
N	0.460546	0.9387	-2.122531
H	1.442821	0.799824	-1.888651
H	0.313752	1.025076	-3.116643
N	-0.531702	-1.012639	0.851025
H	0.145063	-1.75779	0.925693
H	-1.40251	-1.383233	0.497162
N	-0.498348	1.329613	0.521285
O	-1.723563	1.481732	0.493317
O	0.307254	2.14558	0.949917
Br	3.507409	0.0	0.0
