15

C	-0.47294	0.087508	-1.448462
C	0.0	0.0	0.0
Br	-0.237566	-1.723097	-2.319732
H	1.091127	0.0	0.0
H	-1.551726	0.230702	-1.515728
N	0.228921	1.132082	-2.076905
H	1.231068	1.034688	-1.93559
H	0.016337	1.205183	-3.06049
N	-0.520743	-1.087817	0.745656
H	-1.47256	-0.908278	1.035707
H	0.069801	-1.26583	1.545123
N	-0.443823	1.34114	0.596952
O	-1.646847	1.428304	0.873344
O	0.381407	2.227342	0.767479
Br	3.505666	0.0	0.0
