15

C	-0.302089	-0.023949	-1.500137
C	0.0	0.0	0.0
Br	-2.258238	-0.194158	-1.786071
H	1.093548	0.0	0.0
H	-0.036084	0.93452	-1.939398
N	0.376886	-1.080007	-2.194282
H	1.373015	-0.86208	-2.146896
H	0.244703	-1.944412	-1.678984
N	-0.447109	-1.093189	0.772614
H	0.28521	-1.761149	0.948271
H	-1.313835	-1.507823	0.466624
N	-0.486924	1.3203	0.564075
O	-1.221347	1.322488	1.545698
O	-0.109445	2.325731	-0.037851
Br	3.428391	0.0	0.0
