12

C	-0.527019	-0.104088	-1.414536
C	0.0	0.0	0.0
Cl	0.425288	0.824672	-2.613608
H	1.090988	0.0	0.0
H	-0.475931	-1.146986	-1.726512
H	-1.552285	0.259331	-1.478303
C	-0.412003	-1.144327	0.783549
N	-0.715841	-2.128213	1.353262
N	-0.397141	1.22415	0.672205
O	-0.214807	1.271846	1.897181
O	-0.758044	2.185503	-0.0255
H	2.395953	0.0	0.0
