12

C	-0.515795	-0.073174	-1.421
C	0.0	0.0	0.0
Cl	0.359165	0.99462	-2.560615
H	1.090914	0.0	0.0
H	-1.570185	0.198709	-1.475881
H	-0.36707	-1.091428	-1.782318
C	-0.403673	-1.176009	0.740885
N	-0.717363	-2.176337	1.275144
N	-0.424235	1.191901	0.715374
O	-0.871761	2.148553	0.062507
O	-0.188739	1.21649	1.93076
H	2.410507	0.0	0.0
