12

C	-0.526139	-0.024103	-1.418201
C	0.0	0.0	0.0
Cl	0.384594	1.025639	-2.545465
H	1.09095	0.0	0.0
H	-1.566188	0.296833	-1.458695
H	-0.429395	-1.039533	-1.800924
C	-0.408504	-1.193118	0.710281
N	-0.71699	-2.21333	1.208965
N	-0.408987	1.175744	0.749471
O	-0.202448	1.155636	1.970517
O	-0.81384	2.165643	0.117962
H	2.403436	0.0	0.0
