15

C	0.0	0.0	0.0
C	-0.47015	0.122423	-1.444696
F	1.385042	0.0	0.0
H	-1.535168	0.349262	-1.341208
H	-0.287894	0.926411	0.510489
N	-0.561567	-1.17517	0.589739
H	-0.372756	-1.148979	1.586885
H	-1.589006	-0.942806	0.46077
N	-0.234634	-1.152423	-2.149688
H	-0.199638	-1.868194	-1.427352
H	-1.064498	-1.355253	-2.697842
N	0.230321	1.24202	-2.068427
H	1.179271	0.921245	-2.232897
H	-0.182368	1.383966	-2.983825
F	-2.856974	0.0	0.0
