15

C	0.0	0.0	0.0
C	-0.228998	-0.103756	-1.534464
F	1.402188	0.0	0.0
H	0.521775	-0.857525	-1.83105
H	-0.29757	0.997346	0.346093
N	-0.566454	-1.083339	0.724278
H	-0.440086	-0.889248	1.713636
H	-1.583246	-0.937815	0.538575
N	0.158016	1.22531	-2.078183
H	0.207513	1.130543	-3.088872
H	1.108441	1.410361	-1.770356
N	-1.519863	-0.532294	-1.995227
H	-2.25349	-0.2458	-1.303904
H	-1.70527	-0.09653	-2.891107
F	-2.997372	0.0	0.0
