15

C	0.0	0.0	0.0
C	-0.459455	-0.199605	-1.447942
F	1.382298	0.0	0.0
H	-1.544771	-0.072314	-1.398726
H	-0.29428	1.016061	0.303917
N	-0.566341	-1.019911	0.824573
H	-1.59379	-0.819777	0.649036
H	-0.379192	-0.787286	1.794892
N	-0.021116	-1.526598	-1.88492
H	-0.634214	-1.811236	-2.638322
H	-0.189057	-2.148042	-1.099883
N	0.109665	0.776489	-2.375137
H	-0.233405	1.694966	-2.112945
H	1.114727	0.76672	-2.228105
F	-2.856661	0.0	0.0
