15

C	0.0	0.0	0.0
C	-0.215364	0.20934	-1.538279
F	1.414588	0.0	0.0
H	0.224933	-0.711048	-1.949882
H	-0.283565	0.901975	0.558969
N	-0.591105	-1.204411	0.467631
H	-1.603385	-1.007636	0.30537
H	-0.48236	-1.241392	1.477148
N	0.596899	1.33675	-2.043907
H	1.424644	1.457786	-1.474846
H	-0.000659	2.14947	-1.955401
N	-1.56086	0.432561	-1.994549
H	-1.7691	-0.201813	-2.751834
H	-2.262459	0.293048	-1.225856
F	-3.056437	0.0	0.0
