15

C	0.0	0.0	0.0
C	-0.291806	0.05841	-1.510083
F	1.418693	0.0	0.0
H	0.088716	-0.918481	-1.87368
H	-0.377507	0.878804	0.522898
N	-0.467455	-1.216515	0.568451
H	0.263622	-1.911093	0.546531
H	-0.861614	-1.099684	1.485243
N	0.466507	1.184508	-2.080512
H	0.213276	1.217487	-3.059564
H	1.459626	0.999019	-2.01001
N	-1.65656	0.204619	-1.92978
H	-1.853797	1.199319	-1.836637
H	-2.324666	-0.162161	-1.177057
F	-3.252295	0.0	0.0
