11
Coordinates from ORCA-job run
  C   -0.50623113403355     -0.22499630265109      0.29382965916226
  C   0.81125727678329      0.24407316502814     -0.31009235216210
  F   -0.31260742381817     -0.43813269200996      1.64413692488758
  H   1.11219127574559      1.14964327872485      0.22178935246500
  H   -0.79765883399284     -1.20003503899898     -0.11932648546408
  H   0.67802479522106      0.49648415258688     -1.36624441831235
  N   -1.48733676572493      0.81585946265801      0.16212772642844
  H   -2.35919127741438      0.51583425710558      0.58110134695334
  H   -1.65968868428719      1.02387072504128     -0.81335440570589
  C   1.85077511142924     -0.77525505367900     -0.19033964880983
  N   2.67246566009190     -1.60734595380572     -0.10262769944236
