11
Coordinates from ORCA-job run
  C   -0.66471315690838     -0.37073140890955      0.26023103179697
  C   0.63606792280765     -0.70246521082066     -0.46209611293000
  F   -0.40974896588256     -0.50169460454446      1.63832522195386
  H   1.00464958024141     -1.67008108676802     -0.11579730064996
  H   -1.42000937480574     -1.12377595517752      0.02413214349170
  H   0.44481889754719     -0.76236645403126     -1.53575587634209
  N   -1.14556590152817      0.90709022229526     -0.09574566386514
  H   -0.48781294618493      1.63306321646667      0.16246549991527
  H   -2.03771248351098      1.09835013691696      0.33972681403645
  C   1.64993701887011      0.31999356660153     -0.21018252530159
  N   2.43008940935439      1.17161757797105     -0.00530323210545
