11
Coordinates from ORCA-job run
  C   -0.66237535883147     -0.40201394234299      0.22965659400657
  C   0.86104622839540     -0.48171875738997      0.23356047189966
  F   -1.09545386173931     -1.11053400212284      1.34311234130174
  H   1.21810714181657      0.01276736322430      1.14067847494416
  H   -1.07458503299146     -0.94383813264034     -0.63108544033425
  H   1.16312871346029     -1.53003084396831      0.27354872588790
  N   -1.09428026443401      0.95033727040033      0.35396004249000
  H   -0.53420722381272      1.58368060063996     -0.19959250798343
  H   -2.06666567415105      1.05748525340337      0.10070084010547
  C   1.43438024710090      0.16090389828329     -0.94458569568489
  N   1.85190508518687      0.70096129251323     -1.89895384663293
