11
Coordinates from ORCA-job run
  C   -0.55927431240508     -0.35894815916798      0.20653015442304
  C   0.76908790574983      0.28386935352206     -0.19213899153402
  F   -0.37871184758464     -0.83743689385799      1.50410315916992
  H   0.95580402961296      1.12480782442984      0.48365825767072
  H   -0.76922068033192     -1.23536854198028     -0.41124497180321
  H   0.69720645703916      0.67364276660989     -1.21062987349613
  N   -1.64156842193275      0.54689210348774      0.15394655355083
  H   -1.39841126026314      1.52369327450591      0.15834217992958
  H   -2.35360235466650      0.32832807311288     -0.52002516939364
  C   1.89208800438505     -0.64621602054027     -0.10878332992143
  N   2.78660248039704     -1.40326378012180     -0.06475796859565
