11
Coordinates from ORCA-job run
  C   -0.47165812248031      0.04278945626545      0.41639284324849
  C   0.70548146929097     -0.27743949323869     -0.49559396643097
  F   -0.12725080260346      1.19440319223275      1.14270637968043
  H   0.47574298615885     -1.17406037282415     -1.07474120550550
  H   -0.62099769190490     -0.74600592206546      1.15632593793135
  H   0.84772311234940      0.55183036861110     -1.19552544225869
  N   -1.65284726010810      0.20392412192266     -0.34537948762873
  H   -1.57034279522278      0.98896122217462     -0.97940527747139
  H   -2.45447984081883      0.35148984847757      0.25310777107550
  C   1.94112988702410     -0.47862848996765      0.25696712565603
  N   2.92749905831506     -0.65826393158820      0.86514532170348
