11
Coordinates from ORCA-job run
  C   -0.71820881494054     -0.34113258424625     -0.15038168003587
  C   0.77092637294901     -0.65550691556411     -0.04675852742536
  F   -1.38961804646820     -1.50675018177170      0.19635757153408
  H   0.98675124153603     -0.90560818076229      0.99532508626184
  H   -1.00024824412799     -0.14950783345243     -1.19331703554876
  H   0.99465450613154     -1.52929779041962     -0.66184009736244
  N   -1.08014729195898      0.68512144974232      0.76924110142806
  H   -1.97708052190926      1.09202315590568      0.54364026932317
  H   -0.38543927399553      1.41690462590915      0.82165155097179
  C   1.58899610483473      0.47696178794998     -0.46883749064426
  N   2.20741396794919      1.41679246670928     -0.80208074850224
