11
Coordinates from ORCA-job run
  C   -0.70465725561033     -0.43951185414767      0.12052260599308
  C   0.80962184548844     -0.47476377691498      0.32344476863177
  F   -1.21807369915075     -1.20674107229842      1.17504345741216
  H   1.15086959662384     -1.50990394806322      0.38337388356836
  H   -0.98934341671091     -0.97052551130703     -0.79121863842631
  H   1.03448813324977      0.00015437221065      1.28353221496559
  N   -1.23505903268205      0.86436476823816      0.13646725490942
  H   -0.60177187023207      1.59967416415803      0.40267617630207
  H   -1.79412754724524      1.11347795276810     -0.66007135268919
  C   1.50794330022318      0.22484174300612     -0.75058140635162
  N   2.04010994604612      0.79893316235025     -1.62418896431533
