11
Coordinates from ORCA-job run
  C   -0.66967472903688     -0.33532287755026     -0.00607139288549
  C   0.83263509785376     -0.51460051447533      0.17687345895286
  F   -1.26460583873875     -1.16640767177161      0.96605170068626
  H   1.06984042471052     -1.58044552845204      0.15829810136049
  H   -0.99876772804492     -0.72205114151080     -0.97238804186255
  H   1.11713936976260     -0.13529439028475      1.16336929649655
  N   -1.04722009497566      1.01652698255277      0.11222199751997
  H   -2.03282489745910      1.15064310404500     -0.06573094557572
  H   -0.81322246339262      1.39152748535456      1.02231180372518
  C   1.59448507566808      0.17829891646337     -0.85765991431547
  N   2.21221578365297      0.71712563562908     -1.69627606410208
