11
Coordinates from ORCA-job run
  C   -0.65576208282140     -0.36560059804579      0.36767637050030
  C   0.63273531775196     -0.66218391339661     -0.39296907068608
  F   -0.38634025519554     -0.60949938641725      1.72083207763812
  H   0.42914291574025     -0.68728040978855     -1.46709093063110
  H   -1.41109047867653     -1.11069124336858      0.09673770747844
  H   1.00373026978901     -1.64418437036359     -0.09311444354974
  N   -1.10077933524608      0.95311818493764      0.17441462359505
  H   -0.57001603864611      1.54071780209163     -0.44371684277701
  H   -2.09362564833076      1.08878642760502      0.11499493715245
  C   1.66632784368287      0.33829009497793     -0.12947793932598
  N   2.48567749195233      1.15752741176813      0.05271351060556
