11
Coordinates from ORCA-job run
  C   -0.72318980723017     -0.40869221180006      0.12039946604865
  C   0.79426494604885     -0.54500827891474      0.23763345843045
  F   -1.22840968034247     -1.23710788865143      1.13176279327029
  H   1.09340897144504     -0.16956163291477      1.22130412768209
  H   -1.08386497032596     -0.84035113897870     -0.81626359826014
  H   1.07633730186683     -1.59858338172631      0.19141209786692
  N   -1.17484591112763      0.91570563480398      0.27620116039690
  H   -1.75042554817670      1.26585067873436     -0.46885129953300
  H   -0.48701220262693      1.58792667215592      0.57309031508971
  C   1.48054531500977      0.20657799979361     -0.80868401232658
  N   2.00319158545937      0.82424354749814     -1.65800450866530
