11
Coordinates from ORCA-job run
  C   -0.67319899009442     -0.38552591141702      0.22916146742885
  C   0.83496887741341     -0.56706419276732      0.08848189614393
  F   -1.07286663953414     -1.21533283674516      1.26934832921706
  H   1.05587341690287     -1.62807372532275     -0.04285456857786
  H   -1.19247652452370     -0.77090646339168     -0.65744065935282
  H   1.29860765244268     -0.23336631625707      1.02035174197764
  N   -0.98610403152646      0.96089807023689      0.57345723797490
  H   -1.96213735087610      1.17179473547024      0.41917230825423
  H   -0.41580218615861      1.62885372224134      0.07405810288185
  C   1.36445685290682      0.19793318600463     -1.03581565797974
  N   1.74867892304766      0.84078973194789     -1.93892019796804
