11
Coordinates from ORCA-job run
  C   -0.70652094697427     -0.41524643379605      0.25922914544907
  C   0.67989784874088     -0.63726213644274     -0.36393264491516
  F   -0.56516759581578     -0.70913652970768      1.60823471261958
  H   1.04830132770492     -1.63207967512671     -0.10207629576012
  H   -1.40574658024526     -1.14296868612247     -0.16232343347352
  H   0.60262580896425     -0.57582887484468     -1.45305933086888
  N   -1.26161735911198      0.88381786400811      0.12503229154140
  H   -1.77915361652515      1.00594893959065     -0.73115024110723
  H   -0.58174272189736      1.62187271578335      0.24923349296543
  C   1.62634900735845      0.37340303178751      0.10099317623667
  N   2.34177482780129      1.22647978487070      0.47081912731277
