13

C	0.0	0.0	0.0
C	-0.521022	-0.352446	-1.404589
Br	1.968709	0.0	0.0
H	0.054557	-1.216051	-1.751629
H	-1.571453	-0.628975	-1.256488
C	-0.408232	1.336281	0.432585
N	-0.598337	2.439314	0.790215
C	-0.383178	-1.023469	0.975793
N	-0.574729	-1.899356	1.735587
N	-0.338646	0.790735	-2.285423
H	-1.195103	1.336579	-2.269341
H	-0.199869	0.473689	-3.2344
Br	-3.606389	0.0	0.0
