13

C	0.0	0.0	0.0
C	-0.532628	0.371711	-1.397422
Br	1.965495	0.0	0.0
H	0.091288	1.186757	-1.770859
H	-1.556474	0.72098	-1.234031
C	-0.377953	1.021565	0.9816
N	-0.538937	1.915088	1.7281
C	-0.410231	-1.335805	0.432571
N	-0.6022	-2.443839	0.77426
N	-0.445865	-0.787585	-2.270643
H	-1.325264	-1.292809	-2.1944
H	-0.360557	-0.481459	-3.230183
Br	-3.586011	0.0	0.0
