13

C	0.0	0.0	0.0
C	-0.53736	-0.212917	-1.423886
Br	1.963402	0.0	0.0
H	-0.109906	0.574827	-2.053313
H	-1.619337	-0.055372	-1.3282
C	-0.37839	1.315903	0.524104
N	-0.56974	2.414542	0.895147
C	-0.401182	-1.078647	0.904652
N	-0.625363	-1.953456	1.656304
N	-0.230024	-1.555403	-1.87174
H	0.417178	-1.557264	-2.645811
H	-1.082227	-2.027708	-2.140285
Br	-3.691284	0.0	0.0
