16

C	0.0	0.0	0.0
C	-0.629144	0.272476	-1.360034
Cl	1.787346	0.0	0.0
H	-0.382476	1.306955	-1.607438
H	-0.345777	0.74909	0.70861
N	-0.455259	-1.321998	0.56807
O	-0.04456	-2.338146	0.020528
O	-1.218926	-1.252206	1.524943
C	-2.121129	0.025001	-1.343541
H	-2.357047	-1.025932	-1.192162
H	-2.560658	0.333095	-2.293371
H	-2.638509	0.572786	-0.55501
N	0.040027	-0.51555	-2.459758
O	0.982342	0.036974	-3.029128
O	-0.400493	-1.62798	-2.730278
Cl	-5.163253	0.0	0.0
