16

C	0.0	0.0	0.0
C	-0.597296	0.188871	-1.379633
Cl	1.757936	0.0	0.0
H	-1.681049	0.005912	-1.237241
H	-0.35227	0.77048	0.675993
N	-0.422715	-1.304204	0.639782
O	-0.572577	-2.289081	-0.073901
O	-0.509867	-1.279071	1.861361
C	-0.006539	-0.617957	-2.517945
H	0.006331	-1.668424	-2.238578
H	1.009297	-0.292839	-2.75254
H	-0.626096	-0.491569	-3.403501
N	-0.521461	1.653046	-1.723639
O	-0.768175	1.951294	-2.889972
O	-0.256975	2.466745	-0.839931
Cl	-3.470279	0.0	0.0
