16

C	0.0	0.0	0.0
C	-0.595052	-0.031043	-1.394066
Cl	1.746288	0.0	0.0
H	-1.677786	-0.195506	-1.228287
H	-0.358197	0.866205	0.544884
N	-0.430205	-1.189138	0.83253
O	-0.487992	-0.985217	2.038945
O	-0.61705	-2.262535	0.2727
C	0.005352	-1.001203	-2.39095
H	1.015222	-0.703312	-2.680672
H	0.03523	-1.993104	-1.946791
H	-0.618064	-1.028932	-3.282435
N	-0.526257	1.362769	-1.960832
O	-0.288035	2.307073	-1.21008
O	-0.755654	1.473076	-3.163048
Cl	-3.464051	0.0	0.0
