15
Coordinates from ORCA-job run
  C   -0.77858886491003     -0.75289133390509      0.01682280067094
  C   0.38920419003231      0.18986071523441     -0.26054135306102
  Br  -0.83195245177523     -1.41162575646077      1.82044190887267
  H   0.35180694232142      0.36919852301955     -1.34331324673375
  H   -0.74910498803633     -1.62559293278218     -0.64130972467827
  N   -2.09776899781582     -0.06606986201996     -0.33044300815636
  O   -2.02868084619616      0.77216444761287     -1.22812852412165
  O   -3.12056427227879     -0.43124850117016      0.22594518341825
  C   1.71873445651123     -0.47104134637610      0.07011770094305
  H   1.84218087577023     -0.56013481022168      1.15000874236289
  H   1.79481790678606     -1.46770445306858     -0.37025888658533
  H   2.53485565109110      0.13751667193392     -0.32764345970328
  N   0.21388109136559      1.40904648701794      0.51160991237845
  H   -0.34932547018010      2.07374640623319     -0.00234577858390
  H   1.10850477731453      1.83577574495264      0.71103773297731
