15
Coordinates from ORCA-job run
  C   -0.78187321712622     -0.77077952377640      0.06845517787724
  C   0.33218142192732      0.20506093007353     -0.30230524322906
  Br  -0.74780202073726     -1.30011593653524      1.91942605454887
  H   0.18161495819427      0.38449519994749     -1.37208928449493
  H   -0.73671253163642     -1.67907771735351     -0.53182897816291
  N   -2.10194653252868     -0.11661873886270     -0.29304311936142
  O   -2.87982262378180      0.23829396734309      0.57456469796029
  O   -2.24459108810003      0.01643618922548     -1.50600754931844
  C   1.71568319452039     -0.40540745940627     -0.09588910513252
  H   1.81669115099993     -1.36851084670673     -0.60506061332160
  H   2.47248614549719      0.27193369264084     -0.49897860566848
  H   1.92200371850758     -0.55470891110072      0.96554870905939
  N   0.08159563089798      1.46576990994578      0.37665258350061
  H   0.61953440145874      2.20721534038270     -0.05295433671083
  H   0.35195739190703      1.40501390418266      1.35150961245379
