15
Coordinates from ORCA-job run
  C   -0.78243148750948     -0.67673606699225      0.14727023225669
  C   0.39949743533791      0.21531058456692     -0.21554836860735
  Br  -1.11550575173307     -0.82230366946884      2.04185863009056
  H   0.31780700891587      0.32688974865427     -1.31302318729131
  H   -0.63842401931866     -1.68753435139358     -0.23074186704805
  N   -2.05392165891109     -0.20882565172309     -0.51231700365327
  O   -2.75383421103514     -1.07710000563783     -1.02425766660931
  O   -2.29517415007281      0.99551222341190     -0.50041584494933
  C   1.70034403130507     -0.51310034744998      0.09468990221630
  H   1.79357771234165     -0.66740025581695      1.17051176185255
  H   2.54940838587899      0.08935870137650     -0.23816971385702
  H   1.75428465074601     -1.47658940085489     -0.41753758715280
  N   0.37707279600549      1.47676360317336      0.49851233241377
  H   1.19548119052289      2.01728487683976      0.24782776623346
  H   -0.44818193247363      2.00747001131470      0.25234061410510
