15
Coordinates from ORCA-job run
  C   -0.95434089064000     -0.44914244935219     -0.57485786035213
  C   0.45226454597520      0.14307573215316     -0.51883067626722
  Br  -1.00275573576072     -2.36582602745193     -0.83170356870349
  H   0.80812459144825      0.05573333000206     -1.55228147485329
  H   -1.50876748472675     -0.00127374281755     -1.39615532265331
  N   -1.77380111796354     -0.12442662413525      0.64637904469051
  O   -2.97598219110207      0.02674760153638      0.46481358747743
  O   -1.19168005475825     -0.03944334450190      1.72484399903152
  C   1.46769237165902     -0.54441541986231      0.38915671809616
  H   1.62360598385030     -1.58771222732445      0.11130920764257
  H   2.42311302420393     -0.02269056559880      0.29108797481307
  H   1.15307686850351     -0.50400935611006      1.43068765875493
  N   0.24157149254619      1.56644087737205     -0.25472438840193
  H   0.25662881666589      1.73385639872917      0.74460569943147
  H   0.98124978009903      2.11408581736164     -0.67433059870629
