15
Coordinates from ORCA-job run
  C   -0.90231806943524     -0.43286732412434     -0.60545577284869
  C   0.53239302194451      0.15266347074051     -0.55199788677803
  Br  -0.94379089367871     -2.24416959147779     -1.25514506986773
  H   0.98249132953475     -0.12478022592366     -1.51060867140802
  H   -1.54180121569761      0.16176091043802     -1.25594490186855
  N   -1.51765081466783     -0.33039847361477      0.76458605672751
  O   -1.48165240152522     -1.28578278920579      1.52646437749925
  O   -1.93705219057673      0.79702412471617      1.03387440449136
  C   1.35123354657240     -0.45453842612362      0.57705331646045
  H   2.38182644526467     -0.11314550158025      0.48078950309498
  H   0.97796206714567     -0.12324462561172      1.55004300740015
  H   1.32891254124393     -1.54442495148212      0.55767347988118
  N   0.56763332816706      1.59900751459439     -0.45572798134801
  H   0.10213045749105      1.91314598764387      0.38767171658200
  H   0.09968284821729      2.02974990101110     -1.24427557801782
