15
Coordinates from ORCA-job run
  C   -0.90278119852918     -0.40200018562079     -0.62586558159021
  C   0.54244044977850      0.15265170632526     -0.54182564767337
  Br  -0.97308060300929     -2.19909912315255     -1.31115089148823
  H   0.99877535947711     -0.11231780906534     -1.50106479535421
  H   -1.52130958620241      0.21853223972921     -1.27240148453244
  N   -1.53442832802353     -0.31356670623980      0.73825942686986
  O   -1.52579792387522     -1.28363380746621      1.48219060974651
  O   -1.93731928539327      0.81600220493405      1.02327493430023
  C   1.33493814793743     -0.49492199268503      0.58359354394708
  H   0.95674469781363     -0.17553482222915      1.55865379592130
  H   1.28984919200242     -1.58346716526582      0.54184516082350
  H   2.37355854575838     -0.17367048209006      0.50652914637677
  N   0.60556135555037      1.59565203396059     -0.41367768636107
  H   0.15789216897529      2.05264052208397     -1.19920357341455
  H   0.13495700773975      1.90173338678169      0.42984304242884
