15
Coordinates from ORCA-job run
  C   -0.83985866141438     -0.69632912139419      0.13581600204693
  C   0.37613617412004      0.11812711657924     -0.29789385087101
  Br  -1.03801932026060     -0.81281267813634      2.04806699791782
  H   0.35105354782971      0.06884481758233     -1.39168991406027
  H   -0.80008123679050     -1.71474442066516     -0.24960929323851
  N   -2.06332556640376     -0.07106779547550     -0.50760886773473
  O   -2.06973322922156     -0.19932188117269     -1.72942047245246
  O   -2.89746129746986      0.50385080874516      0.16889602936006
  C   1.68135699509213     -0.50231692112033      0.19275344805585
  H   1.76313095973700     -1.55648627488865     -0.08838940769516
  H   2.52423602003927      0.03268037299841     -0.25156494797645
  H   1.76469708253976     -0.42872310029685      1.27861395249359
  N   0.15076145056026      1.50733242570000      0.06690746310193
  H   0.79070769860081      2.10847398751172     -0.43605462626742
  H   0.30639938304169      1.64349266403285      1.05917748731983
