15
Coordinates from ORCA-job run
  C   -0.81348347607900     -0.63756604528565      0.02813535728622
  C   0.46513185382324      0.18485516647863     -0.25102631932344
  Br  -1.19714914313754     -0.83972562224847      1.90333528099738
  H   0.47191412274958      0.29931340559603     -1.34372680790662
  H   -0.75653527955253     -1.63254815847706     -0.40963250700569
  N   -1.96047840998559      0.03298310572638     -0.67535108775201
  O   -2.46778035595976      1.02431943024119     -0.16211910498775
  O   -2.22918375169720     -0.42952462018159     -1.78261955455525
  C   1.69649273443980     -0.60926820570883      0.15864098215969
  H   1.72834758004167     -0.74558848426288      1.24213771998159
  H   1.71481645912401     -1.59427168999612     -0.31316560256516
  H   2.58594285033546     -0.05526527335716     -0.14279326732023
  N   0.51585243234277      1.50657816649259      0.32970947959436
  H   -0.29821251580497      2.05435518852128      0.07896413346455
  H   0.54432489936006      1.44235363646166      1.34051129793235
