15
Coordinates from ORCA-job run
  C   -0.92730267027922     -0.44327389250126     -0.60419288029966
  C   0.47533184797326      0.15825129463547     -0.48653908426286
  Br  -0.91370566764301     -2.29870141065056     -1.12929295489963
  H   0.91744027183119      0.02987513208311     -1.48736981545489
  H   -1.51410400717990      0.08794180398648     -1.35193571279579
  N   -1.69604737724318     -0.27207091879178      0.67603524457053
  O   -1.32861283500617     -0.91085847986980      1.65449430932830
  O   -2.62320593586534      0.53080285792703      0.63491131874065
  C   1.38774700290157     -0.50718482624537      0.53138367470426
  H   1.03099550405356     -0.31953574233718      1.54332340046158
  H   1.45279957266595     -1.58326313068051      0.37581536678522
  H   2.39270629252940     -0.08841279702856      0.42815981990445
  N   0.27162598263431      1.55211909931022     -0.10773484395871
  H   1.14114779697406      1.95947420534215      0.21193741364484
  H   -0.06581577834650      2.10283680482056     -0.88799525646829
