15
Coordinates from ORCA-job run
  C   -0.90089229881470     -0.41494096247403     -0.62037785584403
  C   0.53821610353027      0.15738632355755     -0.54470811860042
  Br  -0.95191659847259     -2.21489568981114     -1.30027772541980
  H   0.99343153821048     -0.10655617679847     -1.50473750585235
  H   -1.52917949218806      0.19610596449850     -1.26655479097271
  N   -1.52749857645617     -0.32968564433586      0.74579488429550
  O   -1.50427711733863     -1.29725113118817      1.49281009846452
  O   -1.94190572855539      0.79611999270909      1.02941684409547
  C   1.34275769932928     -0.47660802718277      0.57989558868805
  H   2.37726498773906     -0.14360968653424      0.49724204047881
  H   0.96501942671361     -0.15800038842169      1.55539465124932
  H   1.31020738947954     -1.56574749013889      0.54216150093214
  N   0.58457137815644      1.60124246544604     -0.42243898692489
  H   0.12868345425391      2.05030331199658     -1.20775929916963
  H   0.11451783441294      1.90513713867750      0.42213867458001
