15

C	-0.468499	0.008291	-1.433924
C	0.0	0.0	0.0
F	-0.054236	1.115873	-2.097857
H	1.095181	0.0	0.0
H	-0.340919	-0.934898	0.450957
N	0.09817	-1.213076	-2.17056
O	0.882719	-1.013693	-3.082421
O	-0.312131	-2.290705	-1.752504
C	-1.935665	-0.087508	-1.563026
N	-3.108133	-0.118696	-1.624152
C	-0.515291	1.213346	0.764185
H	-1.607103	1.234056	0.835915
H	-0.17272	2.134582	0.291052
H	-0.102517	1.192698	1.774218
Br	3.567904	0.0	0.0
