15

C	-0.551892	-0.017564	-1.40193
C	0.0	0.0	0.0
F	-1.914577	-0.187911	-1.386205
H	1.092026	0.0	0.0
H	-0.319485	-0.950446	0.442109
N	-0.301245	1.334012	-2.078656
O	-1.211332	2.151406	-2.022425
O	0.807459	1.487931	-2.569804
C	0.015231	-1.058653	-2.26764
N	0.366252	-1.9419	-2.957161
C	-0.516995	1.178811	0.818233
H	-0.207913	1.040674	1.855998
H	-1.604672	1.269718	0.781651
H	-0.074456	2.11527	0.47408
Br	3.548637	0.0	0.0
