15

C	-0.553587	-0.00986	-1.401085
C	0.0	0.0	0.0
F	-1.919051	-0.169681	-1.385128
H	1.092021	0.0	0.0
H	-0.319456	-0.953188	0.436159
N	-0.296039	1.340547	-2.078217
O	-1.191096	2.170308	-1.995108
O	0.799012	1.482235	-2.598978
C	0.008027	-1.0562	-2.26422
N	0.42035	-1.935914	-2.922849
C	-0.514159	1.173557	0.827362
H	-0.205323	1.025123	1.863717
H	-1.601518	1.267722	0.792096
H	-0.068921	2.111635	0.491477
Br	3.53695	0.0	0.0
