15

C	-0.4696	0.006824	-1.433464
C	0.0	0.0	0.0
F	-0.056897	1.114299	-2.09844
H	1.095112	0.0	0.0
H	-0.340716	-0.934427	0.452152
N	0.096865	-1.214756	-2.169962
O	-0.312725	-2.292182	-1.750825
O	0.880485	-1.015618	-3.082644
C	-1.936728	-0.089476	-1.563617
N	-3.107498	-0.113608	-1.653138
C	-0.515601	1.214145	0.762778
H	-1.607493	1.235297	0.833582
H	-0.103759	1.194433	1.773192
H	-0.172533	2.134852	0.289031
Br	3.567243	0.0	0.0
