15

C	-0.546273	-0.021884	-1.404064
C	0.0	0.0	0.0
F	-1.909831	-0.18522	-1.395431
H	1.092049	0.0	0.0
H	-0.320926	-0.949091	0.443778
N	-0.2868	1.326402	-2.083522
O	0.821676	1.473616	-2.57463
O	-1.19161	2.14962	-2.026567
C	0.02451	-1.06933	-2.259271
N	0.42872	-1.96257	-2.905207
C	-0.518213	1.182414	0.812109
H	-0.069553	2.116411	0.469137
H	-1.605168	1.276913	0.767756
H	-0.217191	1.044861	1.852122
Br	3.549683	0.0	0.0
