14

C	0.0	0.0	0.0
C	-0.471887	-0.01347	-1.446444
Br	1.970231	0.0	0.0
H	-0.131919	0.908994	-1.935294
H	-0.268418	-0.945849	0.475105
H	-1.567506	0.030798	-1.332162
N	-0.54746	1.057061	0.793304
H	-0.462724	1.920187	0.261825
H	-1.565468	0.820792	0.787689
C	-0.077581	-1.241025	-2.255739
H	1.003169	-1.320337	-2.393738
H	-0.426826	-2.147474	-1.752579
H	-0.548488	-1.214694	-3.243202
H	-3.124697	0.0	0.0
