13
Coordinates from ORCA-job run
  C   -0.42339060278302     -0.48383358851247      0.37764046727752
  C   0.92577103816851     -0.00996269016958     -0.20257589092019
  H   -0.25735036636835     -1.36600599750070      1.00538086806084
  H   1.34236523707643     -0.83745340215219     -0.78640266672161
  N   -1.31344687333005     -0.97405390298494     -0.76348170144035
  O   -2.51762439451885     -0.82145506879563     -0.63145337001178
  O   -0.72935887534744     -1.53704319112011     -1.68076729029468
  C   -1.09853214025691      0.55895773950452      1.13546845562837
  N   -1.60184163611667      1.41355698096579      1.76522813684437
  C   1.83939141013104      0.31793127354533      0.89532427871804
  N   2.56136800181896      0.55490593101288      1.79065639769579
  C   0.72651515292097      1.13660985813561     -1.09449051451291
  N   0.54613404860538      2.04884605807150     -1.81152717032343
