13
Coordinates from ORCA-job run
  C   -0.42584070886234     -0.26633534241061      0.60278290606049
  C   0.82499032198923      0.50214139850782      0.13504334953487
  H   -0.17303132069771     -0.90375768601097      1.45603573759592
  H   1.09687104463697      1.17518618548179      0.95975025392463
  N   -0.93607443298499     -1.22978019137709     -0.46556902574654
  O   -1.93837245297749     -1.85440953224362     -0.15251544051630
  O   -0.29470795596025     -1.30814080673868     -1.50420108085652
  C   -1.50444880845725      0.64455379747190      0.96497687235722
  N   -2.33950781985360      1.41293062267421      1.26912652884492
  C   0.54832152338186      1.33286832622224     -1.04096392351631
  N   0.32368667866804      2.04569310784947     -1.94634367879668
  C   1.95143370184258     -0.41099449723739     -0.08292632974157
  N   2.86468022927494     -1.13995538218908     -0.19519616914414
