13
Coordinates from ORCA-job run
  C   -0.50556445561411     -0.17205799863225      0.56739315528417
  C   0.85893506655015      0.43463655597024      0.18751343348641
  H   -0.40790185586620     -0.76021090787612      1.48549434399096
  H   1.11313728627560      1.14221169327625      0.98864205515660
  N   -0.99943632609533     -1.16543248458723     -0.48183809775019
  O   -2.08903974176800     -1.66275641962564     -0.24130932579638
  O   -0.26369395620261     -1.39023343850922     -1.43277629990417
  C   -1.51787123514035      0.86109265301107      0.74634094874653
  N   -2.31481112256584      1.70638301354153      0.92012914433117
  C   0.78699602984180      1.19061023990031     -1.06657557086901
  N   0.70197645009282      1.83335546793973     -2.04526069226963
  C   1.90151916414276     -0.59610567864422      0.16077101957782
  N   2.73475469634933     -1.42149269576444      0.21247588601571
