16

C	-0.380846	0.006027	-1.466706
C	0.0	0.0	0.0
Br	-2.366106	0.03582	-1.662542
H	1.097799	0.0	0.0
H	-0.102827	-0.958528	-1.89075
C	0.227562	1.161166	-2.226938
H	-0.124404	2.108037	-1.819665
H	1.312407	1.105781	-2.084873
H	-0.005246	1.10396	-3.292767
N	-0.423597	-1.251945	0.61875
H	-1.413513	-1.20425	0.847386
H	0.100644	-1.377719	1.479276
N	-0.409122	1.247638	0.638613
H	0.148178	1.380279	1.475433
H	-1.387466	1.194478	0.904911
Br	3.620033	0.0	0.0
