16

C	-0.485698	0.030244	-1.4567
C	0.0	0.0	0.0
Br	0.130126	-1.582248	-2.408034
H	1.101174	0.0	0.0
H	0.036203	0.84299	-1.967254
C	-1.99033	0.129537	-1.630694
H	-2.353495	1.080644	-1.230891
H	-2.265359	0.08739	-2.686378
H	-2.478329	-0.684109	-1.095125
N	-0.602044	-1.12863	0.707089
H	-0.185088	-1.981304	0.348224
H	-0.292361	-1.034768	1.668735
N	-0.377873	1.201972	0.73136
H	-1.354049	1.434288	0.594325
H	0.209559	1.97542	0.445193
Br	3.694179	0.0	0.0
