16

C	-0.497993	-0.012866	-1.455518
C	0.0	0.0	0.0
Br	0.223042	-1.578246	-2.391547
H	1.099792	0.0	0.0
H	-0.048993	0.836463	-1.977743
C	-2.007787	0.000345	-1.608991
H	-2.44576	-0.929186	-1.237358
H	-2.291023	0.098182	-2.658968
H	-2.410105	0.836992	-1.035579
N	-0.443721	-1.098032	0.832947
H	0.103959	-1.920713	0.614231
H	-1.4245	-1.30024	0.673075
N	-0.525315	1.241472	0.59933
H	0.057216	2.006111	0.268093
H	-0.326383	1.149215	1.590465
Br	3.697145	0.0	0.0
