16

C	-0.516273	-0.091226	-1.434341
C	0.0	0.0	0.0
Br	-0.314584	1.619828	-2.40616
H	1.101268	0.0	0.0
H	-1.597605	-0.254636	-1.411217
C	0.21472	-1.169037	-2.209841
H	1.285566	-0.955319	-2.216577
H	-0.152897	-1.240134	-3.235778
H	0.052921	-2.118861	-1.69754
N	-0.421652	-1.241203	0.652079
H	0.318056	-1.553771	1.269649
H	-1.246359	-1.029984	1.203781
N	-0.570982	1.143523	0.719388
H	-0.377112	1.98802	0.191624
H	-0.036994	1.229676	1.579787
Br	3.657881	0.0	0.0
