16

C	-0.453184	-0.058741	-1.473843
C	0.0	0.0	0.0
Br	-0.128237	1.655631	-2.398761
H	1.097327	0.0	0.0
H	-1.544737	-0.16459	-1.510892
C	0.248222	-1.154002	-2.256778
H	-0.03425	-2.130815	-1.858983
H	1.327531	-1.037061	-2.153245
H	-0.022239	-1.123564	-3.314096
N	-0.431677	-1.234527	0.657138
H	0.325964	-1.902241	0.650925
H	-1.231277	-1.647533	0.192755
N	-0.501404	1.121741	0.774165
H	-0.297171	1.989332	0.293119
H	-1.508619	1.032465	0.870069
Br	3.724972	0.0	0.0
