16

C	-0.328513	-0.03703	-1.4855
C	0.0	0.0	0.0
Br	-2.300575	0.054914	-1.771991
H	1.101176	0.0	0.0
H	-0.063952	-1.024259	-1.863542
C	0.347257	1.063867	-2.272009
H	1.423419	0.990515	-2.079695
H	-0.000518	2.04708	-1.949034
H	0.159648	0.963615	-3.342924
N	-0.47285	-1.215523	0.639359
H	-1.455361	-1.090439	0.866346
H	0.023184	-1.288276	1.520999
N	-0.40719	1.223839	0.689579
H	0.330332	1.91338	0.617554
H	-1.255463	1.60424	0.284661
Br	3.609613	0.0	0.0
