16

C	-0.553602	0.084681	-1.419126
C	0.0	0.0	0.0
Br	-0.017344	-1.487084	-2.48334
H	1.094135	0.0	0.0
H	-0.05558	0.921438	-1.90871
C	-2.063613	0.225379	-1.48028
H	-2.548926	-0.627592	-1.005028
H	-2.343744	1.136626	-0.946718
H	-2.407502	0.300177	-2.51419
N	-0.55413	-1.15935	0.711424
H	0.036311	-1.304272	1.526958
H	-0.417201	-1.983585	0.130798
N	-0.400746	1.240302	0.672465
H	0.366431	1.540534	1.26223
H	-1.195209	1.025012	1.263811
Br	3.647763	0.0	0.0
