18

C	-0.517975	0.019499	-1.407891
C	0.0	0.0	0.0
F	-1.897924	0.044183	-1.463485
H	1.094993	0.0	0.0
C	-0.030062	1.154433	-2.20465
N	0.282456	2.093383	-2.838712
N	-0.100429	-1.25757	-2.145429
O	0.99269	-1.235937	-2.693666
O	-0.875959	-2.203699	-2.076616
C	-0.443336	-1.248344	0.753827
H	-1.529373	-1.381515	0.759146
H	0.021691	-2.147216	0.343891
H	-0.092065	-1.154308	1.784639
C	-0.429807	1.275244	0.719136
H	-0.103315	2.168394	0.179554
H	-1.513072	1.327268	0.873331
H	0.069307	1.294806	1.692236
H	2.800941	0.0	0.0
