18

C	-0.488138	-0.020489	-1.429356
C	0.0	0.0	0.0
F	-0.095796	-1.151635	-2.078423
H	1.096848	0.0	0.0
C	-1.958439	0.076274	-1.542288
N	-3.133422	0.090237	-1.572465
N	0.084057	1.155407	-2.234684
O	-0.456485	2.240646	-2.036466
O	1.018212	0.923683	-2.9816
C	-0.451613	-1.280961	0.694808
H	-1.536901	-1.317852	0.851622
H	0.043914	-1.322575	1.668213
H	-0.138908	-2.164319	0.136201
C	-0.453997	1.233315	0.76949
H	-0.031111	2.147641	0.35316
H	-1.544925	1.334656	0.810624
H	-0.075471	1.13914	1.790698
H	2.820586	0.0	0.0
