18

C	-0.396584	-0.014238	-1.449656
C	0.0	0.0	0.0
F	0.084813	1.072648	-2.112288
H	1.097675	0.0	0.0
C	0.006551	-1.229305	-2.176619
N	0.313245	-2.19403	-2.771948
N	-1.926675	0.071641	-1.570709
O	-2.546643	-0.980465	-1.421993
O	-2.417157	1.187615	-1.706307
C	-0.43076	-1.249801	0.751897
H	0.047288	-1.222924	1.734891
H	-1.514979	-1.31855	0.887279
H	-0.082631	-2.157454	0.252639
C	-0.457611	1.278726	0.686625
H	0.087343	1.359794	1.631027
H	-0.210438	2.158067	0.08998
H	-1.533142	1.289321	0.899508
H	2.74857	0.0	0.0
