18

C	-0.516932	-0.004164	-1.407646
C	0.0	0.0	0.0
F	-1.897118	0.053806	-1.466443
H	1.107895	0.0	0.0
C	-0.005421	1.098153	-2.236161
N	0.310574	2.018272	-2.894356
N	-0.129855	-1.308768	-2.110817
O	0.973952	-1.335544	-2.637219
O	-0.937543	-2.228328	-2.039637
C	-0.446634	-1.234032	0.774131
H	0.020621	-2.140174	0.381636
H	-0.100138	-1.122048	1.80498
H	-1.532998	-1.36736	0.777142
C	-0.423974	1.29096	0.693819
H	-0.100717	2.171212	0.131433
H	-1.505595	1.348459	0.854719
H	0.083209	1.331899	1.661586
H	2.786119	0.0	0.0
