18

C	-0.392414	0.076746	-1.448813
C	0.0	0.0	0.0
F	0.031265	1.236171	-2.02406
H	1.098715	0.0	0.0
C	0.081383	-1.054341	-2.264387
N	0.454618	-1.935263	-2.945444
N	-1.924066	0.08667	-1.575042
O	-2.477101	1.181348	-1.608722
O	-2.484139	-1.008313	-1.533852
C	-0.418683	-1.305548	0.659509
H	0.067947	-1.350149	1.637526
H	-0.070095	-2.171159	0.090558
H	-1.501281	-1.391602	0.798165
C	-0.471994	1.221262	0.77371
H	-0.21149	2.14398	0.253252
H	0.051441	1.227115	1.733725
H	-1.55194	1.21719	0.963112
H	2.744849	0.0	0.0
