18

C	-0.501507	-0.056598	-1.411825
C	0.0	0.0	0.0
F	-1.840196	-0.389469	-1.500601
H	1.109068	0.0	0.0
C	-0.323746	1.19226	-2.169051
N	-0.289308	2.210118	-2.753607
N	0.255739	-1.14265	-2.176955
O	1.299608	-0.790145	-2.712985
O	-0.205485	-2.278988	-2.122989
C	-0.419993	-1.234592	0.790033
H	0.06179	-1.173094	1.770876
H	-1.504622	-1.299956	0.927744
H	-0.070353	-2.154619	0.31671
C	-0.439806	1.284599	0.690608
H	-0.024914	1.284298	1.702603
H	-1.530089	1.37622	0.759949
H	-0.038888	2.165968	0.183705
H	2.763609	0.0	0.0
