18

C	-0.509361	0.021966	-1.409941
C	0.0	0.0	0.0
F	-1.878779	-0.157027	-1.488736
H	1.108392	0.0	0.0
C	-0.198987	1.257301	-2.148397
N	-0.051351	2.263085	-2.737013
N	0.113802	-1.127218	-2.203928
O	-0.495708	-2.191332	-2.200421
O	1.199316	-0.897229	-2.721396
C	-0.430205	-1.265504	0.73283
H	-1.517319	-1.353227	0.825609
H	-0.045641	-2.164291	0.247661
H	0.010935	-1.229959	1.73297
C	-0.436217	1.257057	0.742767
H	-1.525284	1.339346	0.832264
H	-0.048024	2.158424	0.261386
H	-0.003367	1.223725	1.746235
H	2.774776	0.0	0.0
