13

C	-0.567019	0.04848	-1.400321
C	0.0	0.0	0.0
Br	0.134265	-1.532011	-2.442447
H	1.091008	0.0	0.0
H	-0.172371	0.910105	-1.934653
H	-0.340126	-0.931423	0.483901
N	-1.990471	0.076205	-1.385968
H	-2.362708	0.173326	-2.32206
H	-2.342687	-0.790477	-0.995994
N	-0.427547	1.226479	0.676163
H	-1.383452	1.14397	0.996915
H	0.183924	1.391137	1.466219
Cl	3.59753	0.0	0.0
