13

C	-0.545431	0.065953	-1.420709
C	0.0	0.0	0.0
Br	-0.175379	-1.640572	-2.338492
H	1.093716	0.0	0.0
H	0.035361	0.783556	-2.011514
H	-0.379598	-0.908365	0.472847
N	-1.964629	0.297607	-1.400735
H	-2.285045	0.630265	-2.301173
H	-2.102882	1.018052	-0.697703
N	-0.491401	1.191248	0.736345
H	0.281688	1.843371	0.805113
H	-0.715197	0.919394	1.684851
Cl	3.554256	0.0	0.0
