13

C	-0.445386	-0.118518	-1.44789
C	0.0	0.0	0.0
Br	-0.284829	1.634699	-2.356323
H	1.102144	0.0	0.0
H	-1.51017	-0.348774	-1.524862
H	-0.310956	-0.948507	0.461462
N	0.326219	-1.076981	-2.202105
H	0.081532	-2.006043	-1.875111
H	1.311213	-0.929626	-1.984918
N	-0.651819	1.086023	0.733974
H	-0.356125	1.00997	1.701396
H	-0.254505	1.955854	0.395577
Cl	3.550479	0.0	0.0
