13

C	-0.585775	0.028482	-1.394396
C	0.0	0.0	0.0
Br	-0.00571	-1.6724	-2.37759
H	1.095829	0.0	0.0
H	-0.123904	0.796932	-2.011464
H	-0.330918	0.938249	0.461483
N	-1.991471	0.155407	-1.341189
H	-2.337413	-0.522087	-0.670239
H	-2.425483	0.013052	-2.242294
N	-0.602815	-1.109026	0.758996
H	-0.416851	-0.945252	1.741634
H	-0.087448	-1.948467	0.514845
Cl	3.589494	0.0	0.0
