16

C	0.0	0.0	0.0
C	-0.398019	0.046164	-1.482066
F	1.377496	0.0	0.0
H	0.322876	0.721303	-1.949587
H	-0.18795	-0.960698	-1.864348
N	-0.315927	1.351201	0.654454
O	-0.60244	1.367038	1.84738
O	-0.164811	2.347604	-0.050468
C	-0.595162	-1.112297	0.800405
H	-0.244304	-1.089366	1.830768
H	-0.314418	-2.060337	0.336038
H	-1.684857	-1.0089	0.785177
N	-1.724974	0.444762	-1.860985
H	-1.875646	1.413624	-1.613665
H	-2.468387	-0.066165	-1.386832
Cl	-4.307202	0.0	0.0
