16

C	0.0	0.0	0.0
C	-0.507854	0.223032	-1.413674
F	1.372928	0.0	0.0
H	-0.339267	-0.722988	-1.939906
H	-1.588962	0.373641	-1.35263
N	-0.320872	1.20214	0.900737
O	0.039993	1.101195	2.071166
O	-0.849244	2.19489	0.408877
C	-0.539745	-1.237442	0.654003
H	-0.248336	-2.103703	0.056099
H	-1.631512	-1.16044	0.681049
H	-0.134111	-1.332826	1.660883
N	0.128403	1.29537	-2.168603
H	-0.19191	2.175818	-1.788152
H	1.130579	1.248146	-2.027815
Cl	-3.840031	0.0	0.0
