16

C	0.0	0.0	0.0
C	-0.496069	-0.226441	-1.417668
F	1.386078	0.0	0.0
H	-0.013807	0.511041	-2.060767
H	-1.574041	-0.045632	-1.416902
N	-0.317641	1.437406	0.425105
O	-0.353889	2.285953	-0.462474
O	-0.408243	1.669819	1.626715
C	-0.514104	-0.960094	1.026642
H	-0.102846	-0.717379	2.004663
H	-1.606307	-0.898393	1.045766
H	-0.204069	-1.968478	0.748118
N	-0.225224	-1.566323	-1.927804
H	0.717788	-1.846723	-1.68463
H	-0.872541	-2.224688	-1.51246
Cl	-3.766587	0.0	0.0
