16

C	0.0	0.0	0.0
C	-0.518818	0.270765	-1.404784
F	1.373005	0.0	0.0
H	0.003915	1.151652	-1.781658
H	-1.585365	0.495269	-1.314852
N	-0.320882	1.225247	0.865328
O	-0.755658	1.05471	1.999248
O	-0.047028	2.315868	0.366661
C	-0.526249	-1.240967	0.652909
H	-1.617743	-1.183024	0.683847
H	-0.128293	-1.332196	1.663158
H	-0.212366	-2.104477	0.063916
N	-0.343844	-0.840939	-2.331796
H	-1.035593	-1.552728	-2.132806
H	0.578302	-1.24673	-2.223607
Cl	-3.810158	0.0	0.0
