16

C	0.0	0.0	0.0
C	-0.393273	-0.151735	-1.477863
F	1.378393	0.0	0.0
H	0.31016	0.476306	-2.028981
H	-0.151701	-1.193121	-1.723766
N	-0.311592	1.419	0.484633
O	-0.310054	2.310502	-0.361089
O	-0.432579	1.593221	1.693381
C	-0.582832	-1.005537	0.941254
H	-1.67305	-0.915641	0.924216
H	-0.221347	-0.845064	1.955361
H	-0.298805	-2.003084	0.601017
N	-1.731881	0.150143	-1.907871
H	-2.454977	-0.313246	-1.36214
H	-1.914402	1.136757	-1.784703
Cl	-4.315854	0.0	0.0
