16

C	0.0	0.0	0.0
C	-0.521973	-0.328735	-1.390794
F	1.36931	0.0	0.0
H	-1.571622	-0.029189	-1.418826
H	0.041621	0.275426	-2.103928
N	-0.313292	1.474408	0.294979
O	-0.538561	1.801858	1.455317
O	-0.210805	2.25111	-0.652108
C	-0.52229	-0.863774	1.107053
H	-1.6138	-0.800727	1.112344
H	-0.208877	-1.892369	0.923776
H	-0.120783	-0.530325	2.062539
N	-0.431251	-1.737603	-1.753637
H	0.461685	-2.12238	-1.471033
H	-1.166617	-2.245431	-1.278758
Cl	-3.772968	0.0	0.0
