16

C	0.0	0.0	0.0
C	-0.384856	0.256311	-1.46301
F	1.366357	0.0	0.0
H	0.221714	-0.471465	-2.016502
H	0.006759	1.245233	-1.717145
N	-0.360202	1.19447	0.883946
O	0.0325	1.131823	2.047451
O	-0.974484	2.132962	0.385607
C	-0.591626	-1.230471	0.619015
H	-0.361601	-2.092496	-0.011422
H	-0.18165	-1.383409	1.616779
H	-1.678125	-1.108076	0.671907
N	-1.752813	0.148891	-1.885538
H	-2.380242	0.715585	-1.323826
H	-2.103878	-0.792005	-1.766328
Cl	-4.344948	0.0	0.0
