16

C	0.0	0.0	0.0
C	-0.405212	0.158568	-1.474295
F	1.375484	0.0	0.0
H	0.32867	0.847956	-1.899205
H	-0.219608	-0.824453	-1.924698
N	-0.311631	1.292024	0.762074
O	-0.202057	2.341693	0.13085
O	-0.544006	1.212169	1.964313
C	-0.58595	-1.174591	0.716882
H	-0.221198	-1.230927	1.741075
H	-0.311153	-2.0819	0.17503
H	-1.67604	-1.072629	0.723609
N	-1.724961	0.608722	-1.822703
H	-1.851363	1.565262	-1.520165
H	-2.477842	0.085363	-1.378259
Cl	-4.307087	0.0	0.0
