12

C	-0.495007	0.021938	-1.457101
C	0.0	0.0	0.0
Cl	0.192436	1.46676	-2.261595
H	1.09313	0.0	0.0
H	-0.336466	0.920917	0.484935
C	-0.079283	-1.177476	-2.191528
N	0.221638	-2.12882	-2.812109
C	-1.959336	0.124791	-1.518312
N	-3.130921	0.21555	-1.538972
C	-0.541058	-1.154928	0.703563
N	-1.00021	-2.080724	1.261779
Cl	3.231883	0.0	0.0
