12

C	-0.488011	0.073178	-1.45725
C	0.0	0.0	0.0
Cl	0.150886	1.54753	-2.244386
H	1.093114	0.0	0.0
H	-0.334653	-0.951264	0.426722
C	-0.028343	-1.104436	-2.200873
N	0.311612	-2.042807	-2.819431
C	-1.955094	0.115715	-1.528346
N	-3.129755	0.138992	-1.560078
C	-0.538569	1.100868	0.784429
N	-0.985321	1.980292	1.421246
Cl	3.232432	0.0	0.0
