12

C	-0.487759	-0.197286	-1.446201
C	0.0	0.0	0.0
Cl	0.145626	-1.737455	-2.100788
H	1.093137	0.0	0.0
H	-0.335192	0.984086	0.344157
C	-1.95476	-0.238991	-1.515196
N	-3.129635	-0.254946	-1.543186
C	-0.022731	0.910244	-2.288391
N	0.291361	1.80855	-2.976942
C	-0.539665	-1.030108	0.875195
N	-0.995237	-1.847551	1.584374
Cl	3.228746	0.0	0.0
