12

C	-0.494959	-0.022957	-1.457103
C	0.0	0.0	0.0
Cl	0.192169	-1.468584	-2.260384
H	1.093199	0.0	0.0
H	-0.336487	-0.920558	0.485587
C	-1.959305	-0.125559	-1.51828
N	-3.130879	-0.216401	-1.539018
C	-0.078973	1.175771	-2.192531
N	0.221889	2.126518	-2.814091
C	-0.541039	1.155432	0.702727
N	-0.999764	2.081597	1.260667
Cl	3.232251	0.0	0.0
