14
Coordinates from ORCA-job run
  C   1.17289698790204      0.26324676774240      0.00798240666257
  C   -0.34738573259794      0.28776835305467     -0.17452607306082
  Cl  1.89949928700817      1.82420726730234     -0.49465756459788
  H   -0.54212365077725      0.50153707445718     -1.23706611848940
  H   1.38892080700842      0.15226336061051      1.07322335981210
  C   1.80012943600153     -0.81502562707068     -0.74870833000662
  N   2.27470020929290     -1.69958720440988     -1.35809775291171
  N   -0.87906857762716      1.29568429010609      0.73392361401668
  H   -1.88989041545892      1.23524726251255      0.75035360427306
  H   -0.63450553380331      2.22528854969964      0.41433138369175
  C   -0.93950217074877     -1.06695837810541      0.18705598469608
  H   -0.71752828191294     -1.30624169476119      1.22987453246860
  H   -2.02613596408706     -1.03640418377844      0.07166187754983
  H   -0.55900640019974     -1.86202583735979     -0.45535092410424
