14
Coordinates from ORCA-job run
  C   1.13637073364565     -0.12418698492647     -0.39736319225372
  C   -0.34658699087225      0.18196082463277     -0.13160848925801
  Cl  1.74263201422467     -1.50621399166194      0.55255990753757
  H   -0.59806162373544      0.95524739171709     -0.87888763337599
  H   1.26334211208868     -0.39027524456066     -1.45015069043364
  C   1.94871688841214      1.05801402915142     -0.11841897931770
  N   2.57647002509992      2.03258731242142      0.06926263820557
  N   -0.50647920831557      0.63026301685640      1.23971531968894
  H   -0.16348409496761      1.57647261013077      1.35687223435027
  H   -1.48430689444053      0.61902000805730      1.49954794355770
  C   -1.22266407201906     -1.03295568374707     -0.38866611126403
  H   -2.27579507158841     -0.74128583641314     -0.36504525346394
  H   -1.05342219344964     -1.78691334668666      0.38049635525064
  H   -1.01773162408257     -1.47273410497125     -1.36731404922367
