14
Coordinates from ORCA-job run
  C   1.13002127753636     -0.30432719984430     -0.30649506329926
  C   -0.26560467154029      0.30912451753074     -0.13916054068451
  Cl  1.37258917282645     -1.69504669033103      0.79983159230060
  H   -0.27714739707536      1.16358000033943     -0.82757247519142
  H   1.24322319703219     -0.70354997842253     -1.31760262207120
  C   2.17323558963946      0.68924603938120     -0.07195193082581
  N   3.01426507830689      1.49677905586019      0.06293089341044
  N   -0.37926818779183      0.84686144792961      1.20600617478849
  H   -0.54627998496876      0.09980792804729      1.86981647528288
  H   -1.15640368330259      1.49232998773419      1.26088651810110
  C   -1.36308226104258     -0.66697456224521     -0.55790019852452
  H   -2.33402692505429     -0.16942298173104     -0.50126427148487
  H   -1.38657385028399     -1.53365318759009      0.10593156688283
  H   -1.22394735428167     -1.02175437665845     -1.58345611868475
