16

C	-0.638923	0.075502	-1.581593
C	0.244514	0.052833	-0.328413
Cl	-0.098285	-1.145308	-2.758776
H	1.29562	0.068576	-0.63219
H	0.046592	0.999131	0.200751
C	-2.098892	-0.143186	-1.278155
H	-2.44966	0.605055	-0.565038
H	-2.181168	-1.13546	-0.836933
H	-2.705278	-0.08163	-2.181411
N	-0.426829	1.434721	-2.236423
O	-1.385799	2.206442	-2.276751
O	0.706213	1.698096	-2.621842
N	-0.022979	-1.135434	0.452036
H	-0.639231	-0.901803	1.220408
H	0.865327	-1.412089	0.882812
Cl	2.882207	-1.200829	1.863526
