16

C	-0.503612	0.062798	-1.480936
C	-0.111582	0.209203	-0.020633
Cl	-0.408915	1.666765	-2.285773
H	0.930171	0.547122	0.001855
H	-0.751871	0.968911	0.429881
C	0.331784	-0.941457	-2.226403
H	0.179543	-1.921405	-1.776298
H	0.061461	-0.973105	-3.281037
H	1.382877	-0.681717	-2.097421
N	-1.984034	-0.318425	-1.53844
O	-2.746568	0.289482	-0.794734
O	-2.323802	-1.188381	-2.334712
N	-0.283403	-1.090091	0.613696
H	-0.645413	-0.964277	1.549172
H	0.649837	-1.499305	0.691345
Cl	2.965031	-1.378302	0.296552
