11
Coordinates from ORCA-job run
  C   -0.94613555810320     -0.72044613578446      0.34973042889611
  C   0.07034075754378      0.06142518283446     -0.46515572791886
  F   -0.50108231594124     -2.02070132906190      0.44604280927005
  H   0.25099715029348     -0.41812819562925     -1.42834934857277
  H   -1.91288067105179     -0.70884177076527     -0.15734094055371
  H   -1.02897463360564     -0.29526263742556      1.35013311529051
  N   1.40111813725053      0.04132375715073      0.26211519327384
  O   1.39080591695238      0.44559045435177      1.41766108866468
  O   2.36154994020336     -0.37997840649182     -0.36943748978587
  C   -0.35299964733244      1.44568178430212     -0.63613180599636
  N   -0.73373907620922      2.54833729651917     -0.76826732256763
