11
Coordinates from ORCA-job run
  C   -0.86480451040101     -0.81545111690479      0.29057710037435
  C   0.11062665799935      0.10362065095194     -0.44634857753553
  F   -2.03077968166841     -0.86502275919953     -0.43575857675484
  H   0.31694412565823     -0.29149704364871     -1.44182436465640
  H   -0.43788994530131     -1.81865196798639      0.35265380200219
  H   -1.07589210170925     -0.42015409552925      1.28549051561258
  N   1.41439631707097      0.05449049537892      0.31211033024657
  O   2.24279304687055     -0.74939967947139     -0.10241782532774
  O   1.50394277583774      0.76193645670768      1.30858525753522
  C   -0.37962252745542      1.47314412120043     -0.52432140291992
  N   -0.80071415690145      2.56598493850107     -0.59974625857648
