11
Coordinates from ORCA-job run
  C   -0.86920568676774     -0.87720225752766      0.15645402329119
  C   0.11063009506969      0.11268049484398     -0.45050496639326
  F   -1.19674746837458     -0.45572662558377      1.42455449433288
  H   0.41030167043688     -0.23486814565345     -1.44397844782047
  H   -0.40027059843402     -1.85930887963798      0.21827326119450
  H   -1.77557012963468     -0.91761635704939     -0.45107831955838
  N   1.38778943674078      0.09886903486792      0.37592154314137
  O   1.92449496843517     -0.99879631803605      0.46124918039734
  O   1.77303589205848      1.14910860497544      0.86809622277523
  C   -0.43528494186082      1.46180148700370     -0.52643547482464
  N   -0.92917323766914      2.52105896179726     -0.63255151653576
