18

C	-0.465554	0.010438	-1.457921
C	0.0	0.0	0.0
Cl	-2.276705	0.495443	-1.513458
H	1.089135	0.0	0.0
C	0.289777	1.066777	-2.245343
H	0.062343	2.067336	-1.890131
H	-0.004963	0.991618	-3.295795
H	1.360704	0.878054	-2.13169
N	-0.230809	-1.259564	-2.022623
H	-0.302556	-1.229417	-3.029401
H	-0.831069	-1.970885	-1.632038
N	-0.438757	-1.178421	0.809657
O	0.145003	-1.31322	1.87829
O	-1.336535	-1.909664	0.389301
N	-0.463244	1.208506	0.756184
O	-1.337889	1.06607	1.605616
O	0.071668	2.266474	0.444245
Br	3.376487	0.0	0.0
