18

C	-0.370336	-0.005417	-1.498561
C	0.0	0.0	0.0
Cl	-2.081484	-0.517484	-1.737024
H	1.09013	0.0	0.0
C	-0.194983	1.402904	-2.041172
H	-0.913185	2.093672	-1.600183
H	0.822821	1.744295	-1.829643
H	-0.348045	1.361362	-3.119368
N	0.468081	-0.899257	-2.259412
H	1.435882	-0.606109	-2.115114
H	0.390416	-1.829036	-1.862453
N	-0.423688	-1.214269	0.756477
O	-0.843126	-1.067667	1.899098
O	-0.257286	-2.291554	0.191208
N	-0.525074	1.189682	0.722825
O	0.302408	1.971299	1.185535
O	-1.746906	1.326829	0.766555
Br	3.372023	0.0	0.0
