16
Coordinates from ORCA-job run
  C   0.48508470097890      0.39410844399245     -0.02262754810424
  C   -0.83161766885623     -0.39753052382230      0.01505383267564
  Br  0.14503882778604      2.25694183617626      0.36630486334965
  H   -0.55920280651811     -1.42666985065838     -0.23990756397360
  C   1.54533602931894     -0.14947297286221      0.91456957673278
  H   1.72159695646570     -1.20347827841562      0.69104639322148
  H   1.21649507663636     -0.04443134696213      1.94887266418645
  H   2.47674018217031      0.40466330242477      0.78696907408505
  N   0.99709072109151      0.23660328871213     -1.45947586160272
  O   1.21676171631821      1.21908342183586     -2.14562699908307
  O   1.16885472540708     -0.93494249289450     -1.78426818209784
  N   -1.73452889339539      0.08370063592994     -1.00908934883719
  H   -2.47037157010025     -0.59076738492536     -1.17593145400649
  H   -2.15715928661800      0.96207384114825     -0.73375885849055
  C   -1.37211114799966     -0.39993904592342      1.38671798419862
  N   -1.84800756268541     -0.40994287375572      2.46115142774604
