16
Coordinates from ORCA-job run
  C   0.56569539597838      0.39807421235815      0.22141529451966
  C   -0.83592164544860     -0.17322509322264      0.49965714014949
  Br  0.92319798349183      1.84617939506288      1.46690732821274
  H   -0.75390495378667     -0.61672005801763      1.49826311987075
  C   1.64542021714779     -0.65688550245918      0.32308780394249
  H   2.62012887550230     -0.21372549152813      0.12949546035225
  H   1.44000603578231     -1.44456231687374     -0.40246812538245
  H   1.63949105402115     -1.08340172306332      1.32754556508382
  N   0.61402642829168      1.00667249698912     -1.17611565865255
  O   -0.45417098029858      1.14171585311482     -1.76904036572918
  O   1.71723733689981      1.31283839416787     -1.60599788333317
  N   -1.12699004640223     -1.24228345018278     -0.44187802313335
  H   -1.79881306422583     -1.88395437399067     -0.04068250197768
  H   -1.51835832113287     -0.85426120229341     -1.29094141071225
  C   -1.88444620764942      0.86043283416453      0.58568797457972
  N   -2.79159810817107      1.60110602577415      0.67706428220972
