16
Coordinates from ORCA-job run
  C   0.49594967116408      0.38168630371339      0.00229269340091
  C   -0.84106168116979     -0.37617252098188     -0.01863006626471
  Br  0.19311372024879      2.23951547304144      0.44189118100549
  H   -0.58821650026302     -1.40324576415451     -0.30035927457849
  C   1.51725889348788     -0.21878282158268      0.94790341301693
  H   2.46572110666259      0.31391361465612      0.86106807053111
  H   1.67177813820793     -1.26976506711081      0.69582024391140
  H   1.16475127140464     -0.13665273864305      1.97647669623155
  N   1.04072003108534      0.25628662486511     -1.42567392120771
  O   1.18980609207043     -0.90857268461395     -1.78417689305019
  O   1.30343188856335      1.25376810325079     -2.07384230009665
  N   -1.70531369588669      0.16111562855767     -1.04796456280716
  H   -2.44948471587279     -0.49096338388968     -1.26036268955814
  H   -2.11731985423904      1.03798487773255     -0.75269526976998
  C   -1.41663804957269     -0.40777990876773      1.33838344758232
  N   -1.92449631589104     -0.43233573607272      2.39786923165328
