16
Coordinates from ORCA-job run
  C   0.50847634530116      0.44224006092266      0.30836295283309
  C   -0.97749924874099      0.02448124317563      0.30033208923511
  Br  0.98480005587673      1.03377196489520      2.09308441740095
  H   -1.55273101401925      0.85594893983602      0.71044926780899
  C   1.44176250159922     -0.64778726125707     -0.15374610073624
  H   2.47222822152160     -0.29979356443686     -0.14050893272723
  H   1.34539069340491     -1.49874653739337      0.52105991656722
  H   1.18939227073709     -0.94741804082366     -1.17461027628581
  N   0.63849990363187      1.67596418097788     -0.58168216527258
  O   -0.28773027706778      2.47959963192723     -0.53557499402643
  O   1.65633473552057      1.78354704746071     -1.25480102651580
  N   -1.16911008221530     -1.15278626495580      1.12636533686045
  H   -2.10911354544539     -1.16928614829878      1.49859276379038
  H   -1.02735399783589     -2.00047352585899      0.59180002850925
  C   -1.39691340862893     -0.17180574677480     -1.10158287715042
  N   -1.71743315363963     -0.40745597939599     -2.20754040029088
