16
Coordinates from ORCA-job run
  C   0.52044157792684      0.36583612305389      0.28623299807336
  C   -0.97264018026405     -0.02721717155567      0.27527932591350
  Br  1.04642118540628      0.67609254299037      2.13848010201772
  H   -1.53487989225655      0.79433774130321      0.73194947734670
  C   1.42478369468029     -0.65173845235058     -0.35825928746275
  H   2.46656841552401     -0.35304226947813     -0.26634481130045
  H   1.26122832994122     -1.61269879879451      0.12663845307075
  H   1.17705432683385     -0.73706294394745     -1.41932022532232
  N   0.65746837179818      1.72198259013456     -0.40265590414153
  O   1.70247694161402      1.93885199584550     -1.00317102876715
  O   -0.28282408389207      2.50159349523183     -0.28230063625791
  N   -1.14182570727548     -1.31917954167295      0.93293140594897
  H   -1.14455363652776     -1.18294191190269      1.93672732014172
  H   -2.03131739710407     -1.72452000128579      0.66846216757902
  C   -1.40371746531727     -0.13725370394343     -1.12363403241723
  N   -1.74568448108747     -0.25203969362816     -2.24101532442242
