16
Coordinates from ORCA-job run
  C   0.45951345919787      0.42488939688494     -0.00677888467701
  C   -0.80429385177616     -0.44967326393206      0.00793210294652
  Br  0.01692398335385      2.23061606933215      0.52348749723241
  H   -0.47649632390680     -1.43915555843822     -0.32638371726599
  C   1.57884711047167     -0.11428538032568      0.86143208198199
  H   2.46976506221695      0.50621916961701      0.75144468973707
  H   1.81390121015753     -1.13635990605969      0.55803456086546
  H   1.27443592692281     -0.10361274652199      1.90845969941585
  N   0.93561799360123      0.40130726925848     -1.46426543880281
  O   1.17110245787805     -0.73113689770777     -1.87615000183825
  O   1.07058908360640      1.44125058201606     -2.08441235144290
  N   -1.76553679378724      0.04334378399029     -0.95568218567424
  H   -2.23450068910661      0.87065314341093     -0.60699647154499
  H   -2.46204627633096     -0.66397800877495     -1.15271170931712
  C   -1.30256213254482     -0.58173712330657      1.38912100435394
  N   -1.74526021995381     -0.69834052944291      2.47146912403009
