16
Coordinates from ORCA-job run
  C   0.51059491486793      0.37236915436205      0.00275637262752
  C   -0.87906609027649     -0.29264536808301      0.03879621929249
  Br  0.34335669681173      2.25066889506461      0.40478824903667
  H   -0.71210515500835     -1.35475382392301     -0.16815798319723
  C   1.52610710904536     -0.28321183002265      0.91844946037259
  H   1.63284176680441     -1.33774295174140      0.64713473553515
  H   1.19580040947373     -0.20751790287972      1.95519367114755
  H   2.49263822002550      0.21274151861729      0.82099207171763
  N   1.03222446039513      0.20056150899895     -1.42626000793831
  O   0.70060143818195     -0.84650615632883     -1.97952607931481
  O   1.80114600153312      1.03551990115770     -1.87377317740316
  N   -1.74872688229857      0.29572422629761     -0.96525554040720
  H   -1.98210065011648     -0.38354511826901     -1.67479874336726
  H   -2.59374913596521      0.68037665146186     -0.56900166330372
  C   -1.42703082713154     -0.19975307162808      1.39502380523841
  N   -1.89053227634225     -0.14128563308440      2.47263860996367
