16
Coordinates from ORCA-job run
  C   0.50128784414560      0.39085241200506      0.24337807796512
  C   -0.93145779292010     -0.12323309389228      0.54030416230085
  Br  0.95710120469087      1.74486036052991      1.55950596310681
  H   -0.87861216745258     -0.47982741086343      1.57597882875338
  C   1.53647348320669     -0.71605054186691      0.26547508296182
  H   1.34430196351137     -1.41989727320089     -0.54814855244211
  H   1.49274279015604     -1.24267005038147      1.22073768686912
  H   2.53310064686585     -0.29769009833618      0.13490183118017
  N   0.58026195881386      1.04725902066888     -1.13135842228343
  O   -0.43248745662509      1.01302288082022     -1.82807647897043
  O   1.66340073312623      1.50996405159699     -1.45992217899313
  N   -1.42176058530032     -1.21426299631280     -0.27007363503265
  H   -0.89421156401924     -2.06255155720648     -0.12150636169825
  H   -1.43888661194722     -0.96694658472578     -1.24937662935624
  C   -1.90625229210617      0.97775644797601      0.53000831256290
  N   -2.70400215414575      1.83841443318908      0.53817231307600
