16
Coordinates from ORCA-job run
  C   0.38654567273431      0.53635214450937      0.06598979244750
  C   -1.08708046259879      0.03683582808689      0.02853551492989
  Br  0.49952457063374      2.00760988877592      1.33604620766680
  H   -1.70401633538965      0.89349962661234     -0.25287900271037
  C   1.39700993147183     -0.52832154534710      0.40934733869688
  H   1.35410334659752     -1.33368313291697     -0.32731124524899
  H   2.40357335647646     -0.11513426338584      0.41199142918903
  H   1.18239784383377     -0.92567064536629      1.40199512403044
  N   0.68898624517987      1.14311201451635     -1.30350926787308
  O   1.76645641056242      0.86815614458007     -1.81890353277020
  O   -0.18161164567190      1.86199577231456     -1.78204867967217
  N   -1.61241279568594     -0.52963854045064      1.24785716526445
  H   -1.09201251762522     -1.34522027297272      1.54303375508689
  H   -1.61873524604415      0.15870533367789      1.98922020236409
  C   -1.18076736236356     -0.95915342148314     -1.04892820958784
  N   -1.20196101211067     -1.76744493115069     -1.90043659181330
