16
Coordinates from ORCA-job run
  C   0.51993395331683      0.40119573411728      0.27110471143474
  C   -0.90692861462096     -0.17694944625335      0.51165815550497
  Br  0.88151779565350      1.82103154279569      1.53779446791224
  H   -0.85178882378129     -0.67065582744524      1.48938054643327
  C   1.59249017606973     -0.65963121639759      0.39161373819448
  H   2.57203592067106     -0.23531474904265      0.17381035732470
  H   1.41735782961748     -1.47415989667443     -0.31015333351214
  H   1.59675688453217     -1.04426771641538      1.41287879018823
  N   0.51325883782274      0.99197079147354     -1.13254827840682
  O   1.10389690537444      0.34859831363719     -1.99847769848039
  O   -0.15099979910478      2.00441681113246     -1.31415181173732
  N   -1.35211488299859     -1.14801339502679     -0.46255028858988
  H   -1.47152984317064     -0.74427534425204     -1.38276813972307
  H   -0.73972431866555     -1.94970209899961     -0.51313244287876
  C   -1.92784754927877      0.87433945826138      0.61944944775606
  N   -2.79431447143744      1.66141703908956      0.70609177857970
