19

C	-0.581925	-0.013324	-1.412525
C	0.0	0.0	0.0
Cl	0.33875	-1.217848	-2.401745
H	1.093726	0.0	0.0
C	-2.037986	-0.469224	-1.458659
H	-2.393662	-0.492641	-2.493256
H	-2.657618	0.239561	-0.895375
H	-2.133965	-1.457993	-1.012986
N	-0.375712	1.277403	-2.067098
H	-1.018797	1.941723	-1.647481
H	-0.630767	1.18329	-3.045204
N	-0.385479	-1.24337	0.6968
H	0.476139	-1.610876	1.085448
H	-1.013598	-1.044182	1.468448
C	-0.414013	1.244374	0.77699
H	-1.502061	1.339566	0.923891
H	-0.029762	2.145933	0.295639
H	0.059287	1.18898	1.760897
F	2.673038	0.0	0.0
