19

C	-0.276294	-0.08751	-1.523128
C	0.0	0.0	0.0
Cl	-0.197482	1.571216	-2.267777
H	1.096639	0.0	0.0
C	0.852549	-0.89117	-2.164998
H	0.817311	-0.828776	-3.256755
H	1.806421	-0.541059	-1.743217
H	0.733981	-1.943553	-1.876007
N	-1.632336	-0.5697	-1.826669
H	-1.816497	-0.394501	-2.809557
H	-1.608877	-1.579612	-1.720808
N	-0.409504	-1.238617	0.672699
H	-1.340423	-1.529592	0.395337
H	0.260842	-1.968403	0.470558
C	-0.637494	1.184565	0.697517
H	-0.16014	2.120257	0.408155
H	-0.512562	1.046989	1.773289
H	-1.708878	1.252637	0.471585
F	2.77051	0.0	0.0
