19

C	-0.05406	0.007891	-1.527464
C	0.0	0.0	0.0
Cl	-1.785761	-0.168308	-2.137775
H	1.099117	0.0	0.0
C	0.53741	1.287942	-2.083258
H	1.520792	1.377539	-1.60851
H	-0.076415	2.161279	-1.859775
H	0.649366	1.18901	-3.16416
N	0.72301	-1.102862	-2.04576
H	1.647905	-0.924958	-1.623461
H	0.374376	-1.916984	-1.543319
N	-0.469284	-1.288394	0.507962
H	0.059781	-1.509034	1.342806
H	-1.451054	-1.228205	0.758503
C	-0.606355	1.199517	0.702759
H	-0.460792	1.097694	1.783534
H	-0.130922	2.134463	0.398972
H	-1.68449	1.276234	0.507491
F	2.732928	0.0	0.0
