16

C	0.0	0.0	0.0
C	-0.317645	0.103196	-1.502977
Cl	1.781785	0.0	0.0
H	0.228763	0.967295	-1.88226
H	-0.290823	-0.983466	0.379236
N	-0.561362	1.132443	0.68127
H	-0.36381	1.054696	1.672567
H	-1.577053	1.063763	0.582085
C	-1.76591	0.138502	-1.935755
H	-1.79255	0.167062	-3.029186
H	-2.324534	-0.721117	-1.57488
H	-2.277701	1.018108	-1.55458
N	0.307747	-1.067706	-2.203524
O	0.083083	-2.187813	-1.750454
O	0.962638	-0.835365	-3.218788
Br	-4.496161	0.0	0.0
