16

C	0.0	0.0	0.0
C	-0.537714	0.016582	-1.43126
Cl	1.795004	0.0	0.0
H	-1.616109	0.187375	-1.334191
H	-0.279086	-0.975443	0.414853
N	-0.469383	1.135475	0.737404
H	-0.277689	0.991257	1.722458
H	-1.486035	1.160127	0.625695
C	-0.265335	-1.265497	-2.185315
H	-0.811766	-2.072052	-1.691108
H	-0.631002	-1.186693	-3.209783
H	0.79864	-1.498549	-2.212702
N	-0.000359	1.196954	-2.177587
O	-0.556122	2.278189	-1.997472
O	0.962786	1.01963	-2.928522
Br	-3.741134	0.0	0.0
