16

C	0.0	0.0	0.0
C	-0.322747	-0.090033	-1.510067
Cl	1.793034	0.0	0.0
H	0.200367	0.725345	-2.016939
H	-0.309263	-0.922534	0.491141
N	-0.565866	1.117479	0.680166
H	-1.558448	0.933851	0.830506
H	-0.478643	1.962439	0.126998
C	-1.787445	-0.129628	-1.873143
H	-2.311944	-0.929427	-1.355325
H	-1.88929	-0.261136	-2.954049
H	-2.294547	0.787548	-1.580784
N	0.310359	-1.328091	-2.072067
O	0.06051	-2.391009	-1.507734
O	1.004905	-1.208558	-3.079935
Br	-4.570365	0.0	0.0
