16

C	0.0	0.0	0.0
C	-0.387191	0.161435	-1.508579
Cl	1.785676	0.0	0.0
H	0.512804	0.030803	-2.11433
H	-0.305448	-0.994283	0.314814
N	-0.513514	0.945302	0.938249
H	-0.364361	1.891257	0.607107
H	-1.524062	0.782292	0.990064
C	-1.029609	1.484166	-1.863166
H	-0.341862	2.295723	-1.60293
H	-1.220474	1.530089	-2.934353
H	-1.973351	1.593719	-1.329199
N	-1.213476	-1.012244	-1.996527
O	-1.037544	-2.096722	-1.45042
O	-1.884762	-0.837229	-3.006903
Br	-3.72221	0.0	0.0
