15

C	0.0	0.0	0.0
C	-0.630414	0.043684	-1.377206
Br	1.945219	0.0	0.0
H	-1.725446	0.141124	-1.102565
H	-0.30074	-0.945597	0.458054
C	-0.493885	1.158006	0.846498
H	-0.110963	1.08543	1.866943
H	-1.591101	1.089306	0.847456
H	-0.171325	2.111441	0.419546
N	-0.361937	-1.188677	-2.137538
H	-0.764133	-1.071919	-3.06315
H	-0.928947	-1.903955	-1.685853
C	-0.203775	1.210483	-2.139318
N	0.10288	2.147002	-2.780805
H	-3.163111	0.0	0.0
