15

C	0.0	0.0	0.0
C	-0.628074	0.064472	-1.382085
Br	1.954416	0.0	0.0
H	-1.730572	0.094371	-1.091262
H	-0.291018	-0.961644	0.429429
C	-0.490566	1.130436	0.879097
H	-0.112007	1.030959	1.899194
H	-0.178068	2.097205	0.478772
H	-1.587169	1.050572	0.872777
N	-0.413609	-1.087374	-2.244976
H	0.557474	-1.377438	-2.185247
H	-0.995175	-1.838833	-1.888742
C	-0.270407	1.295239	-2.082895
N	0.017539	2.2894	-2.640708
H	-3.110134	0.0	0.0
