15

C	0.0	0.0	0.0
C	-0.41825	-0.091722	-1.491216
Br	1.95273	0.0	0.0
H	0.326028	0.472222	-2.068462
H	-0.300217	-0.901658	0.534313
C	-0.539692	1.233798	0.689412
H	-0.278517	2.136979	0.135039
H	-0.138491	1.302226	1.704204
H	-1.630968	1.137672	0.727924
N	-1.720926	0.493399	-1.721131
H	-2.054586	0.219175	-2.64017
H	-2.464886	0.197955	-1.012522
C	-0.26459	-1.500252	-1.941275
N	-0.157572	-2.593287	-2.362528
H	-3.569706	0.0	0.0
