15

C	0.0	0.0	0.0
C	-0.415071	-0.259582	-1.485222
Br	1.953049	0.0	0.0
H	0.28653	0.317273	-2.100754
H	-0.301707	-0.835714	0.632406
C	-0.554669	1.300418	0.532252
H	-0.175801	1.499716	1.537579
H	-0.27979	2.138029	-0.11582
H	-1.646429	1.192362	0.564165
N	-1.758778	0.090228	-1.883358
H	-2.48205	-0.104862	-1.132661
H	-1.79517	1.097044	-2.00838
C	-0.147945	-1.677485	-1.806288
N	0.079701	-2.795631	-2.084373
H	-3.54699	0.0	0.0
