15

C	0.0	0.0	0.0
C	-0.598349	0.002354	-1.388304
Br	1.957185	0.0	0.0
H	-1.701804	-0.025646	-1.130258
H	-0.287139	-0.95307	0.447328
C	-0.50645	1.161815	0.825495
H	-0.184927	2.116921	0.40003
H	-1.605388	1.078517	0.800548
H	-0.147534	1.095043	1.85504
N	-0.238352	-1.197218	-2.136196
H	-0.836299	-1.266447	-2.953537
H	0.723928	-1.121958	-2.455491
C	-0.299041	1.247281	-2.112139
N	-0.080603	2.210837	-2.751693
H	-3.158343	0.0	0.0
