14

C	0.0	0.0	0.0
C	-0.281543	-0.236105	-1.515704
Cl	1.796455	0.0	0.0
H	-0.041635	0.707472	-2.017177
H	0.4623	-0.961329	-1.854922
C	-0.543739	1.305518	0.536426
H	-0.163781	2.129583	-0.072427
H	-0.231717	1.448482	1.572694
H	-1.637137	1.255091	0.478879
C	-0.403697	-1.156452	0.802517
N	-0.611882	-2.108502	1.458823
C	-1.544025	-0.743812	-2.061805
N	-2.273402	-1.248923	-2.834054
Br	-3.80038	0.0	0.0
