14

C	0.0	0.0	0.0
C	-0.523213	-0.277137	-1.411879
Cl	1.793115	0.0	0.0
H	-1.624556	-0.255796	-1.345826
H	-0.185942	0.533065	-2.06616
C	-0.483094	1.359063	0.486637
H	-0.124364	2.128868	-0.201682
H	-0.085382	1.563053	1.48206
H	-1.576466	1.346734	0.508678
C	-0.399427	-1.070692	0.919325
N	-0.649343	-1.950722	1.656387
C	-0.063584	-1.550178	-1.955506
N	0.312459	-2.565041	-2.410015
Br	-3.793605	0.0	0.0
