14

C	0.0	0.0	0.0
C	-0.257463	-0.163728	-1.5234
Cl	1.796338	0.0	0.0
H	0.351246	0.614925	-1.993671
H	0.191139	-1.116191	-1.819999
C	-0.523563	1.296254	0.580619
H	-0.183889	1.40827	1.612419
H	-0.149806	2.135123	-0.012293
H	-1.618538	1.25994	0.550493
C	-0.419434	-1.178071	0.76165
N	-0.631159	-2.157433	1.374874
C	-1.560269	-0.076631	-2.192429
N	-2.294696	-0.013895	-3.110291
Br	-3.770763	0.0	0.0
