14

C	0.0	0.0	0.0
C	-0.545185	0.028597	-1.433989
Cl	1.785551	0.0	0.0
H	-0.205839	-0.854259	-1.982421
H	-1.644957	-0.002712	-1.34249
C	-0.497896	1.18103	0.818817
H	-0.122521	1.1109	1.84096
H	-0.138444	2.10888	0.368748
H	-1.591585	1.156002	0.816738
C	-0.390142	-1.275681	0.615527
N	-0.598599	-2.321145	1.109398
C	-0.135469	1.231057	-2.150885
N	0.186067	2.195213	-2.739702
Br	-3.817609	0.0	0.0
