14

C	0.0	0.0	0.0
C	-0.546563	0.127561	-1.42707
Cl	1.793841	0.0	0.0
H	-0.214484	-0.718831	-2.034474
H	-1.647484	0.096345	-1.336342
C	-0.493005	1.127012	0.89581
H	-0.13047	2.080916	0.506616
H	-1.587239	1.106046	0.8918
H	-0.118622	0.988057	1.911214
C	-0.393192	-1.308201	0.535269
N	-0.619125	-2.369706	0.984695
C	-0.126013	1.371577	-2.061987
N	0.21309	2.366289	-2.585751
Br	-3.821036	0.0	0.0
