14

C	0.0	0.0	0.0
C	-0.54739	0.022538	-1.43158
Cl	1.799374	0.0	0.0
H	-1.64757	0.000126	-1.33342
H	-0.218689	-0.866075	-1.976342
C	-0.489959	1.1874	0.81444
H	-0.100059	1.129036	1.83195
H	-1.583287	1.159132	0.827088
H	-0.140247	2.112167	0.350411
C	-0.385526	-1.269827	0.627904
N	-0.590448	-2.307523	1.138761
C	-0.127382	1.216976	-2.155252
N	0.214872	2.174112	-2.743075
Br	-3.812784	0.0	0.0
