14

C	0.0	0.0	0.0
C	-0.488748	0.019152	-1.457433
Cl	1.784202	0.0	0.0
H	0.018193	-0.774185	-2.014294
H	-1.574656	-0.160884	-1.441065
C	-0.452302	1.212891	0.799022
H	-0.102792	1.124133	1.829173
H	-1.542166	1.277442	0.771422
H	-0.002553	2.104582	0.355692
C	-0.404082	-1.270686	0.609977
N	-0.606094	-2.326156	1.084198
C	-0.21001	1.294958	-2.109306
N	0.02527	2.309141	-2.651345
Br	-3.724877	0.0	0.0
