14

C	0.0	0.0	0.0
C	-0.313546	-0.027129	-1.517479
Cl	1.771542	0.0	0.0
H	0.244051	-0.850139	-1.966748
H	0.128635	0.896196	-1.90841
N	-0.516808	1.035085	0.792631
H	-1.560568	0.850136	0.655429
H	-0.2489	1.916836	0.369349
N	-0.424601	-1.34345	0.615895
O	-0.585926	-1.385901	1.823582
O	-0.484752	-2.298682	-0.150531
C	-1.682717	-0.107411	-2.042772
N	-2.504814	-0.171222	-2.88427
F	-2.620725	0.0	0.0
