14

C	0.0	0.0	0.0
C	-0.339936	-0.254782	-1.483491
Cl	1.776544	0.0	0.0
H	0.362076	-0.999857	-1.859391
H	-0.098582	0.69252	-1.974678
N	-0.559955	1.150463	0.522973
H	-1.613626	0.895905	0.382237
H	-0.346101	1.192138	1.514159
N	-0.347091	-1.290211	0.813326
O	-0.368651	-2.357738	0.212151
O	-0.510394	-1.143459	2.017633
C	-1.664549	-0.693707	-1.9373
N	-2.470035	-1.127086	-2.677533
F	-2.673001	0.0	0.0
