14

C	0.0	0.0	0.0
C	-0.525569	-0.024887	-1.442249
Cl	1.76039	0.0	0.0
H	-0.143042	-0.880821	-1.996768
H	-1.62701	-0.090988	-1.259959
N	-0.535728	1.002591	0.830365
H	-1.571271	0.833776	0.700092
H	-0.272764	1.905683	0.449782
N	-0.391471	-1.370193	0.618856
O	-0.357431	-2.336716	-0.137888
O	-0.629768	-1.410364	1.813212
C	-0.183089	1.214361	-2.117408
N	0.089143	2.219926	-2.661314
F	-2.760954	0.0	0.0
