14

C	0.0	0.0	0.0
C	-0.341695	-0.183486	-1.492137
Cl	1.776325	0.0	0.0
H	-0.064961	0.773247	-1.945649
H	0.336431	-0.937215	-1.893073
N	-0.549855	1.132083	0.574923
H	-0.325862	1.137599	1.563916
H	-1.602271	0.895017	0.434904
N	-0.351993	-1.320163	0.75914
O	-0.393489	-2.360544	0.114195
O	-0.499253	-1.222087	1.970884
C	-1.677455	-0.55303	-1.974594
N	-2.480624	-0.932468	-2.747202
F	-2.660202	0.0	0.0
