14

C	0.0	0.0	0.0
C	-0.311272	-0.027918	-1.517945
Cl	1.771735	0.0	0.0
H	0.249093	-0.850652	-1.966223
H	0.130034	0.896155	-1.9085
N	-0.515883	1.034649	0.791942
H	-1.560991	0.850861	0.65707
H	-0.2494	1.91744	0.370833
N	-0.426147	-1.344229	0.616545
O	-0.590134	-1.385886	1.824041
O	-0.488037	-2.298534	-0.150361
C	-1.679551	-0.113168	-2.045345
N	-2.501638	-0.185169	-2.88619
F	-2.619263	0.0	0.0
