14

C	0.0	0.0	0.0
C	-0.547331	-0.098382	-1.419344
Cl	1.766691	0.0	0.0
H	-0.406363	0.894312	-1.854198
H	-1.636477	-0.253385	-1.244103
N	-0.569512	1.103287	0.637156
H	-0.328073	1.068434	1.621168
H	-1.607625	0.890416	0.511748
N	-0.344492	-1.331554	0.757174
O	-0.315366	-1.265422	1.981964
O	-0.587988	-2.335803	0.102949
C	0.06439	-1.088485	-2.288861
N	0.521177	-1.844886	-3.062409
F	-2.798133	0.0	0.0
