14
Coordinates from ORCA-job run
  C   -0.48630953572565      0.47316474626270     -0.31698267921728
  C   0.96396064103705      0.10535870704166     -0.63544420909472
  Br  -1.21671512259052      1.14277128716653     -2.02120333378601
  H   1.00575067202096     -0.57450713161335     -1.48400767793796
  H   1.56466928896864      0.99527876753999     -0.83095562024251
  C   -1.30575086647989     -0.73082872882019      0.13283300879272
  H   -0.93934379988574     -1.08167831959944      1.10035761662689
  H   -1.22303732431842     -1.53333970528946     -0.60294610197635
  H   -2.35480956350642     -0.45473305348414      0.23849663405833
  C   -0.59107652797288      1.57191010399862      0.63869190457363
  N   -0.71890907843159      2.45747247513717      1.40086970167663
  N   1.60455391331203     -0.61395550603794      0.51104310526951
  O   1.47261142185885     -0.11570221074371      1.62567054999601
  O   2.22340588171356     -1.64021143155842      0.24357710126112
