14
Coordinates from ORCA-job run
  C   -0.46947119562055      0.47316035740186     -0.34111718045837
  C   0.99833900650560      0.11403081606741     -0.58148774100053
  Br  -1.10990840046388      1.14846387222171     -2.07936582134899
  H   1.60442314152928      1.00817191380424     -0.73642752995943
  H   1.09026781319969     -0.55969877836920     -1.43097014319967
  C   -1.30577957329794     -0.73674005171024      0.05730607901343
  H   -1.17879362797970     -1.53488400932650     -0.67682282390832
  H   -0.99140636141785     -1.09134224718555      1.04165907823219
  H   -2.36040352225010     -0.46616129109866      0.10654867294908
  C   -0.63009212119954      1.56693539067674      0.61250523813269
  N   -0.80276729101214      2.44683407691590      1.37234595481413
  N   1.57351912231789     -0.61154056004543      0.59464869305792
  O   1.39779971600238     -0.10669433531751      1.70024979145975
  O   2.18427329368686     -1.65053515403478      0.35992773221613
