14
Coordinates from ORCA-job run
  C   -0.45052482331614      0.44006540015509     -0.21088711328797
  C   0.94787811168333      0.36134884999385      0.41644174400274
  Br  -0.27189648770616      0.89970460412561     -2.11205560054424
  H   1.47677943962949      1.30536155353096      0.30128865604910
  H   0.85132599435866      0.09089797599011      1.47034143411704
  C   -1.28883227433280     -0.82802140737146     -0.07902353286368
  H   -0.82595607943580     -1.65168613948058     -0.61854420023029
  H   -1.37248229593898     -1.10074360039963      0.97636790775681
  H   -2.28593781000331     -0.64760880769187     -0.48136412495831
  C   -1.12686371926214      1.55849564054372      0.44409053558238
  N   -1.66367465682678      2.43409053702577      1.01617179241541
  N   1.79283251455761     -0.68968407200618     -0.21949569467376
  O   2.72431381211837     -0.31245623876112     -0.92428679032817
  O   1.49103827447466     -1.85776429565427      0.01995498696293
