14
Coordinates from ORCA-job run
  C   -0.44524521482668      0.45929460939762     -0.17788681646789
  C   0.95827545877338      0.31940015430855      0.42712265265266
  Br  -0.27949257184584      1.03372344367997     -2.04841214275850
  H   1.50110672839375      1.26055273848129      0.36565021015771
  H   0.86877493053974     -0.01561479655400      1.46298094277379
  C   -1.30299864528432     -0.80115574223734     -0.11517163657875
  H   -2.30196257283232     -0.57993574165432     -0.49164642484251
  H   -0.86088794137809     -1.59596361900882     -0.71226555660186
  H   -1.37769645208228     -1.13926644490859      0.92176398209768
  C   -1.09586092193205      1.54519308932851      0.55368152906514
  N   -1.61375175736602      2.39086593170138      1.18512554498151
  N   1.77951488998669     -0.70220073778243     -0.28357954527168
  O   1.46153463953284     -1.87839831618465     -0.11457859344461
  O   2.70868943032120     -0.29549456856714     -0.97478414576270
