14
Coordinates from ORCA-job run
  C   -0.45302232584120      0.47173687869506     -0.35184777701762
  C   1.01182083475896      0.08724381090874     -0.58549949110384
  Br  -1.04662065306462      1.27273071232784     -2.04841212428280
  H   1.07679964460388     -0.63641045412815     -1.39650401099205
  H   1.62043402260456      0.96786458553040     -0.78422959684739
  C   -1.34218299102119     -0.72353868191087     -0.02853264076430
  H   -2.38371415744531     -0.40711684597682      0.03055092117971
  H   -1.05106024948715     -1.15729052066818      0.93035012365619
  H   -1.24093030311385     -1.48331387050788     -0.80495368306716
  C   -0.57105660842875      1.50014777935245      0.67813197610537
  N   -0.69142856786334      2.30484710901791      1.52662961117165
  N   1.56338259289592     -0.57002435309499      0.63762353966093
  O   2.03656341538411      0.16843071678527      1.49855557552838
  O   1.47201534601797     -1.79530686633079      0.69913757677292
