14
Coordinates from ORCA-job run
  C   -0.41119730475017      0.29023495114874     -0.19569175334353
  C   0.77495040589709     -0.60750400941038      0.14080252923010
  Br  -0.23296871716767      0.88796131818806     -2.05663864128298
  H   0.74945983885499     -1.50730748378691     -0.47135126659003
  H   0.75250291666869     -0.86177029199097      1.20434458176457
  C   -1.70345904526243     -0.51665981822313     -0.06354716632747
  H   -2.56152287856868      0.10452657513725     -0.31991047052056
  H   -1.81554441386101     -0.86071347139059      0.96861416989172
  H   -1.67762996592071     -1.37764603564561     -0.73353307366621
  C   -0.49041350044007      1.47352203186915      0.65673665707304
  N   -0.66155347619608      2.38962020404693      1.37300635438151
  N   2.09677632545742      0.03939534033948     -0.11198713713602
  O   2.28050709348332      1.13779922411794      0.40196555318651
  O   2.89909272180529     -0.59145853439996     -0.79381033666065
