14
Coordinates from ORCA-job run
  C   -0.45013505378275      0.44776632106333     -0.19274598793389
  C   0.96650422619105      0.34397363997372      0.38881849839342
  Br  -0.32625445741186      0.91893522656401     -2.09513448095288
  H   0.90007936698258      0.06542745709685      1.44296233937090
  H   1.50446965714284      1.28174063184125      0.26500689978856
  C   -1.30236098815456     -0.80912490846958     -0.04242892034652
  H   -1.35391184088331     -1.08964201427916      1.01296386050398
  H   -2.30984395332226     -0.61085102126809     -0.40875943713121
  H   -0.87025040339163     -1.63448113853059     -0.60421580456765
  C   -1.08895398936679      1.57093616942864      0.49136559886432
  N   -1.59990064547477      2.44804171593077      1.08447554790436
  N   1.77597001866337     -0.71236866755473     -0.28351863794829
  O   2.68853815411428     -0.34072765194694     -1.01551005673772
  O   1.46604990869381     -1.87862575984949     -0.04527941920738
