14
Coordinates from ORCA-job run
  C   -0.43654268435053      0.46581088801491     -0.18217170120980
  C   0.93846756460849      0.30267316619886      0.47997924186657
  Br  -0.18693201626615      1.10129985771084     -2.02353605838393
  H   0.80228638645874     -0.06611263944461      1.49909251719393
  H   1.48423070439501      1.24405734970594      0.47393260468243
  C   -1.29719075886409     -0.79403799860964     -0.19959940686333
  H   -0.82920418012052     -1.56975886796502     -0.80194263706920
  H   -1.41884902389240     -1.16592251716697      0.82122919238693
  H   -2.27796879813951     -0.55819539292091     -0.61308441040836
  C   -1.11816400918009      1.52854562152631      0.55507476473796
  N   -1.66225040317607      2.35418538080862      1.19095295299235
  N   1.78973971720187     -0.69661707214289     -0.22719485641074
  O   1.46423327169205     -1.87710082501733     -0.11107847862202
  O   2.74814422963322     -0.26882695069813     -0.86365372489278
