13
Coordinates from ORCA-job run
  C   1.08866308597342     -0.28119279541027      0.04229092570892
  C   -0.35063361974569      0.24176409034555      0.21605871793286
  H   1.19266541833399     -0.75921505476836     -0.93621507662839
  H   -0.41403644521532      0.76551739563607      1.17602285831581
  H   1.28503619241136     -1.04234777719095      0.80329794929423
  C   2.08441433357239      0.78128204805389      0.16800015959682
  N   2.87127791115417      1.64359958451068      0.28716887867186
  C   -1.35545881466883     -0.91382710532536      0.19818884752972
  H   -2.37380938393790     -0.54260139093962      0.32165193680361
  H   -1.14014063107559     -1.60870151265010      1.01308908298058
  H   -1.30107735826185     -1.45585627637081     -0.74843857576060
  C   -0.66220355570055      1.21087762285282     -0.83828357338974
  N   -0.92469713283962      1.96070117125646     -1.70283213105568
