13
Coordinates from ORCA-job run
  C   1.05101058247690      0.23153307452937      0.63498159649904
  C   -0.46595718265994      0.34972805187795      0.38225285895748
  H   1.22241027946669     -0.50144186382469      1.42924538092547
  H   -0.92835271228428      0.63995614905046      1.33270304869486
  H   1.45714179492512      1.18827062161246      0.97428286697703
  C   1.77000458314649     -0.19625735158095     -0.56410651395227
  N   2.32469926978354     -0.55340786150446     -1.53455076026555
  C   -1.07612487741507     -0.97038658115672     -0.09557991586724
  H   -0.88209380417385     -1.75622123354150      0.63845987636516
  H   -0.64476404621772     -1.27102128801286     -1.05192079422769
  H   -2.15552492435618     -0.87173235667390     -0.21936671545994
  C   -0.73146216460919      1.42623812771865     -0.57679703615697
  N   -0.94198679808250      2.28474251150619     -1.34960389248938
