13
Coordinates from ORCA-job run
  C   1.08079827684636     -0.30756098133302      0.04040923375287
  C   -0.34563640954562      0.24774089031812      0.21905214470922
  H   1.17372699159768     -0.77775757462816     -0.94305679906031
  H   -0.39806517700331      0.76079643003890      1.18549559673000
  H   1.25833375611543     -1.08126753753315      0.79343002459087
  C   2.10287234651068      0.72815732073417      0.17713319900763
  N   2.91397454619769      1.56683669089550      0.30313053673283
  C   -1.37729028339426     -0.88365505990025      0.18565303439384
  H   -1.33332299724474     -1.41579080629406     -0.76696105547571
  H   -1.18018957204974     -1.59272441270894      0.99273737409809
  H   -2.38696610562206     -0.49042472927195      0.31134888551452
  C   -0.63280502437331      1.23775072805099     -0.82269779109365
  N   -0.87643034803479      2.00789904163184     -1.67467438390020
