13
Coordinates from ORCA-job run
  C   1.14290422777117      0.25501498948979     -0.24364180291998
  C   -0.35313255095524      0.47612504676546      0.06666607664813
  H   1.64707317036644      1.21315755842683     -0.39604759615929
  H   -0.43119118808367      1.06139803609928      0.98960549690120
  H   1.24683384315544     -0.32101430859266     -1.16808051911891
  C   1.79930371020240     -0.46204809699143      0.84791126641867
  N   2.29627626937987     -1.03198068046771      1.74538604867223
  C   -1.11056975762471     -0.84341561252309      0.23627427661392
  H   -2.16386953037226     -0.65609523916584      0.44986863001697
  H   -1.04595633129323     -1.44075699102494     -0.67590629162297
  H   -0.68555009016421     -1.41596073881772      1.06266487553775
  C   -0.93838899088053      1.27333479657516     -1.01482273479357
  N   -1.40173278150146      1.89024124022687     -1.89987772619415
