13
Coordinates from ORCA-job run
  C   1.14116336841339      0.30200128080709     -0.18490856851952
  C   -0.37583737800058      0.46263335694313      0.05179906227047
  H   1.31245361232187     -0.25807008633414     -1.10913312122103
  H   -0.52293031047698      1.04013128802110      0.97122676478427
  H   1.61492221939341      1.28041454647680     -0.30215514304988
  C   1.77149718259282     -0.40336427910768      0.92921806314734
  N   2.24847906626049     -0.96893076161779      1.84009836369363
  C   -1.08835443555514     -0.88612051936632      0.18029861891556
  H   -0.68540643661400     -1.44274086986907      1.02840466600086
  H   -0.95110363058018     -1.47900252015117     -0.72669346100136
  H   -2.15817381500247     -0.74155501439522      0.33754144728140
  C   -0.93505416593619      1.24328217322122     -1.05535290767429
  N   -1.37065527681644      1.85132140537205     -1.96034378462744
