17

C	0.0	0.0	0.0
C	-0.272859	0.174519	-1.533846
Br	2.030925	0.0	0.0
H	0.475525	-0.417546	-2.074143
N	-0.512285	1.058219	0.733009
H	-1.018482	0.855024	1.574715
H	-0.103578	1.970185	0.639388
C	-0.551436	-1.313982	0.500032
H	-0.246601	-2.137488	-0.144817
H	-0.201321	-1.499043	1.519346
H	-1.644529	-1.18877	0.470367
C	0.006532	1.591898	-1.880118
N	0.174904	2.709939	-2.202949
N	-1.599142	-0.269883	-1.872992
H	-1.875886	0.130185	-2.760629
H	-2.336236	-0.042532	-1.115252
F	-3.275457	0.0	0.0
