17

C	0.0	0.0	0.0
C	-0.316627	-0.130337	-1.537326
Br	1.95901	0.0	0.0
H	0.524577	-0.660743	-1.993253
N	-0.583938	1.201566	0.51613
H	-1.602834	1.019682	0.373877
H	-0.431524	1.220191	1.521072
C	-0.437639	-1.261088	0.738371
H	-0.067801	-2.169864	0.260067
H	-1.530434	-1.236131	0.723957
H	-0.069752	-1.21949	1.769061
C	-0.296672	1.219654	-2.159242
N	-0.30758	2.209796	-2.794162
N	-1.5138	-0.90198	-1.820707
H	-1.740086	-0.78581	-2.802241
H	-2.294926	-0.543473	-1.220016
F	-3.051217	0.0	0.0
