17

C	0.0	0.0	0.0
C	-0.295367	-0.274556	-1.512377
Br	2.007877	0.0	0.0
H	0.445857	-1.006207	-1.860446
N	-0.512545	1.245535	0.384694
H	-0.005852	2.050519	0.053222
H	-0.802049	1.306366	1.346859
C	-0.569472	-1.097121	0.86783
H	-0.284772	-2.080928	0.496086
H	-0.215973	-0.981253	1.897172
H	-1.660887	-0.963706	0.805376
C	-0.012453	0.976521	-2.262536
N	0.136147	1.952248	-2.903188
N	-1.630018	-0.78204	-1.707625
H	-2.363679	-0.35914	-1.023442
H	-1.915248	-0.600874	-2.662984
F	-3.305281	0.0	0.0
