17

C	0.0	0.0	0.0
C	-0.282138	-0.00821	-1.557278
Br	2.001284	0.0	0.0
H	0.489567	-0.648495	-1.995654
N	-0.585876	1.150428	0.604663
H	-1.604609	0.982481	0.438814
H	-0.444481	1.096269	1.609945
C	-0.439075	-1.32213	0.613475
H	-1.533763	-1.292412	0.579914
H	-0.043142	-2.185262	0.069538
H	-0.100249	-1.381858	1.651892
C	-0.034193	1.344109	-2.097384
N	0.145165	2.397311	-2.584771
N	-1.564567	-0.490893	-2.031065
H	-2.30476	-0.207073	-1.346362
H	-1.531955	-1.503702	-1.992173
F	-3.047918	0.0	0.0
