17

C	0.0	0.0	0.0
C	-0.521066	-0.130869	-1.443092
Br	1.955047	0.0	0.0
H	-1.61104	-0.225252	-1.245764
N	-0.54977	1.23849	0.496699
H	-0.298776	1.328785	1.476449
H	-1.576676	1.023688	0.437765
C	-0.427279	-1.218956	0.815444
H	-0.027403	-2.14863	0.403576
H	-0.068098	-1.112314	1.843584
H	-1.521846	-1.200944	0.785833
C	-0.032598	-1.344466	-2.102857
N	0.307141	-2.318697	-2.665107
N	-0.173117	1.051078	-2.245399
H	-0.161072	1.816137	-1.574042
H	-0.954681	1.22958	-2.867337
F	-2.901915	0.0	0.0
