10
Coordinates from ORCA-job run
  C   0.19421597443352     -0.02145141506865      0.38425414852714
  C   -0.70576184849471     -0.61664779699284     -0.69989057379477
  Cl  0.31464986421585     -1.17636408258035      1.75528265609867
  H   -0.78360426141628      0.08221253301082     -1.53468788051167
  H   -0.27639214340004     -1.55600014639734     -1.04855544601974
  H   -1.69647234255182     -0.80134220051514     -0.28433853507514
  C   1.54374974664224      0.21781549516692     -0.13628091523122
  N   2.61270956975404      0.39242226117115     -0.59101938499960
  C   -0.36342419221579      1.23685247580595      0.88910503881444
  N   -0.83867036696702      2.24250287639949      1.26713089219189
