10
Coordinates from ORCA-job run
  C   0.15528358319056      0.00026822593544      0.40194862065744
  C   -0.65170284175879     -0.64646412610135     -0.72503751453896
  Cl  0.10011056269636     -1.05718933938407      1.85344806185517
  H   -0.61998874893550     -0.00838877493105     -1.60999607682174
  H   -0.22360837833249     -1.62068484633985     -0.96144830231846
  H   -1.68517491302163     -0.77178804444785     -0.40177041759377
  C   1.55703410614101      0.16795791775210      0.00678734520459
  N   2.67127914905470      0.28882294692543     -0.34530880030654
  C   -0.40924414705740      1.30485265909978      0.76086894692498
  N   -0.89298837197682      2.34361338149144      1.01950813693729
