10
Coordinates from ORCA-job run
  C   0.17926919787888     -0.00400705154661      0.39420668441006
  C   -0.67989153085530     -0.64674196292785     -0.69609141161437
  Cl  0.23263911078361     -1.08932575236994      1.82500017894076
  H   -1.68925843840771     -0.80195094057889     -0.31446529940110
  H   -0.24556457720877     -1.60603601377222     -0.97831348167480
  H   -0.71516447831311      0.00964783611677     -1.56773029842654
  C   1.55083785927515      0.20080743096921     -0.08112114468286
  N   2.63705121932507      0.34926118801698     -0.50315752251016
  C   -0.38990481443261      1.28121466533454      0.81058854903750
  N   -0.87901354804522      2.30613060075800      1.11108374592152
