17

C	0.0	0.0	0.0
C	-0.409876	0.006499	-1.514555
Cl	1.80769	0.0	0.0
H	0.1685	0.834532	-1.955405
C	-0.382329	1.287628	0.582367
N	-0.659303	2.338054	1.030502
C	-0.567916	-1.160747	0.788695
H	-0.206947	-1.135946	1.818386
H	-1.66031	-1.073894	0.793421
H	-0.280451	-2.092984	0.306099
N	-1.79021	0.253962	-1.791547
H	-2.436545	-0.365984	-1.306256
H	-2.073077	1.186699	-1.51819
N	-0.070782	-1.292635	-2.079184
H	0.924958	-1.358357	-2.248496
H	-0.559917	-1.347051	-2.964215
Br	-4.567018	0.0	0.0
