17

C	0.0	0.0	0.0
C	-0.591991	0.127545	-1.413554
Cl	1.796014	0.0	0.0
H	-1.637917	0.411371	-1.233228
C	-0.351473	1.21759	0.749018
N	-0.580366	2.189152	1.367184
C	-0.50751	-1.232584	0.728521
H	-0.160533	-1.231013	1.76312
H	-1.601741	-1.201702	0.707615
H	-0.130245	-2.123549	0.224587
N	-0.497504	-1.169446	-2.099391
H	-1.256976	-1.750801	-1.751053
H	-0.719244	-0.994396	-3.074238
N	0.057965	1.196448	-2.130014
H	0.943805	0.870273	-2.500235
H	-0.531415	1.505376	-2.892534
Br	-3.951088	0.0	0.0
