17

C	0.0	0.0	0.0
C	-0.470804	-0.156137	-1.507896
Cl	1.795735	0.0	0.0
H	0.396706	0.144338	-2.10377
C	-0.345576	1.351685	0.456761
N	-0.578997	2.447112	0.81117
C	-0.555632	-1.035309	0.959172
H	-1.650208	-0.979694	0.931766
H	-0.219498	-2.023817	0.650772
H	-0.217617	-0.826245	1.975885
N	-1.578256	0.663726	-1.930575
H	-2.428042	0.46153	-1.395616
H	-1.369013	1.648575	-1.812365
N	-0.710286	-1.570094	-1.749225
H	-0.868069	-1.655839	-2.748365
H	-1.605604	-1.798387	-1.319085
Br	-4.26742	0.0	0.0
