17

C	0.0	0.0	0.0
C	-0.414955	0.206804	-1.490977
Cl	1.809542	0.0	0.0
H	0.057332	-0.638162	-2.020015
C	-0.400912	1.145127	0.81825
N	-0.661013	2.043336	1.529086
C	-0.536517	-1.29699	0.570455
H	-1.62592	-1.225719	0.640824
H	-0.124424	-1.482883	1.563491
H	-0.261538	-2.127409	-0.086272
N	0.062539	1.509845	-1.927965
H	-0.404512	1.702889	-2.804942
H	1.063065	1.506884	-2.074331
N	-1.818039	0.172415	-1.764383
H	-2.351981	0.834362	-1.20618
H	-2.250687	-0.724707	-1.585787
Br	-4.619976	0.0	0.0
