16

C	0.0	0.0	0.0
C	-0.5544	-0.082985	-1.40379
F	1.368941	0.0	0.0
H	-0.207441	0.782825	-1.974859
H	-1.646743	-0.02855	-1.225957
N	-0.341115	1.380139	0.579164
O	-0.400901	2.32845	-0.200909
O	-0.425019	1.485906	1.799156
C	-0.533037	-1.065035	0.907825
H	-0.099922	-0.967683	1.903224
H	-1.625092	-0.915324	0.893081
H	-0.26417	-2.025281	0.465677
N	-0.15776	-1.364488	-2.003832
H	0.635962	-1.233569	-2.616073
H	-0.927502	-1.713869	-2.559542
F	-2.93592	0.0	0.0
