16

C	0.0	0.0	0.0
C	-0.354149	0.007147	-1.512713
F	1.377496	0.0	0.0
H	0.461339	0.570085	-1.977684
H	-0.223316	-1.042173	-1.814844
N	-0.326487	1.359993	0.615227
O	-0.61331	1.413549	1.806447
O	-0.174334	2.340214	-0.112885
C	-0.607122	-1.094118	0.811405
H	-0.269524	-1.052165	1.847292
H	-0.319976	-2.050761	0.36764
H	-1.699027	-0.935273	0.733886
N	-1.623731	0.494313	-1.988998
H	-1.604157	1.50615	-1.908224
H	-2.369362	0.19511	-1.306771
F	-3.152499	0.0	0.0
