16

C	0.0	0.0	0.0
C	-0.561919	-0.149842	-1.394144
F	1.370191	0.0	0.0
H	-1.653604	-0.064129	-1.236125
H	-0.318725	-1.178482	-1.684949
N	-0.342896	1.386834	0.562816
O	-0.05285	1.578221	1.742426
O	-0.810492	2.242753	-0.181283
C	-0.56197	-1.028161	0.940342
H	-0.247672	-2.017654	0.595395
H	-1.658867	-0.89964	0.859081
H	-0.185842	-0.857435	1.949017
N	0.054845	0.753669	-2.38093
H	-0.44125	1.63427	-2.321908
H	-0.142082	0.370681	-3.298408
F	-2.970076	0.0	0.0
