16

C	0.0	0.0	0.0
C	-0.56112	0.069475	-1.402701
F	1.361875	0.0	0.0
H	-1.651362	0.146028	-1.237056
H	-0.334131	-0.908031	-1.843725
N	-0.344138	1.286859	0.768101
O	-0.081918	1.288775	1.969349
O	-0.77407	2.258274	0.154244
C	-0.567838	-1.158644	0.769159
H	-0.251761	-2.084282	0.279098
H	-1.664626	-1.016294	0.702711
H	-0.198292	-1.1443	1.794401
N	0.07707	1.099115	-2.240911
H	-0.129703	0.870537	-3.205802
H	-0.393853	1.97252	-2.040289
F	-2.969704	0.0	0.0
