16

C	0.0	0.0	0.0
C	-0.557833	-0.075344	-1.402807
F	1.369039	0.0	0.0
H	-0.193554	0.780832	-1.976841
H	-1.648429	-0.000349	-1.224039
N	-0.337556	1.379402	0.5832
O	-0.404745	2.329566	-0.196408
O	-0.404027	1.483141	1.80464
C	-0.533968	-1.067151	0.904535
H	-0.105272	-0.969181	1.901833
H	-0.260295	-2.026349	0.4635
H	-1.626151	-0.919403	0.886604
N	-0.185294	-1.364323	-2.003097
H	0.564148	-1.239057	-2.669955
H	-0.985575	-1.734352	-2.496162
F	-2.939928	0.0	0.0
