20

C	0.0	0.0	0.0
C	-0.493077	-0.168434	-1.447045
Br	1.983851	0.0	0.0
H	-1.581693	-0.066797	-1.345049
N	-0.45698	1.284235	0.480805
H	-0.260882	1.352626	1.474738
H	-1.476089	1.26085	0.377529
C	-0.424514	-1.155704	0.897448
H	-1.516866	-1.207271	0.851462
H	-0.119395	-0.9506	1.927822
H	0.014627	-2.107699	0.594998
C	-0.21706	-1.545593	-2.040951
H	-0.76042	-2.331689	-1.513481
H	-0.553423	-1.561802	-3.082409
H	0.852301	-1.779492	-2.027164
C	0.008609	0.934389	-2.376749
H	-0.06402	1.908618	-1.893629
H	-0.600147	0.946665	-3.286442
H	1.050354	0.76407	-2.664005
Cl	-3.758207	0.0	0.0
