20

C	0.0	0.0	0.0
C	-0.47038	-0.002801	-1.46088
Br	2.062489	0.0	0.0
H	-1.56091	-0.101135	-1.343416
N	-0.459755	1.141336	0.66245
H	-0.328314	1.115307	1.662232
H	-0.150695	2.015081	0.266696
C	-0.434598	-1.234149	0.76466
H	-1.529455	-1.259484	0.714748
H	-0.003834	-2.143531	0.348784
H	-0.118867	-1.160392	1.809268
C	0.055936	-1.173681	-2.285908
H	-0.455411	-1.18652	-3.252799
H	1.130004	-1.082604	-2.466591
H	-0.132565	-2.136187	-1.807825
C	-0.194463	1.317114	-2.177778
H	-0.779962	2.133	-1.749096
H	0.869997	1.571314	-2.146843
H	-0.491115	1.233003	-3.226722
Cl	-3.975601	0.0	0.0
