15

C	-0.336491	-0.022458	-1.495767
C	0.0	0.0	0.0
F	-1.729276	-0.06738	-1.641907
H	1.093814	0.0	0.0
H	-0.365416	0.91302	0.477578
C	0.179232	1.235608	-2.158127
H	-0.318167	2.111381	-1.734248
H	-0.029674	1.181056	-3.227422
H	1.255593	1.321334	-1.99022
N	0.1898	-1.182081	-2.175438
H	-0.124644	-2.015764	-1.688345
H	1.203138	-1.154271	-2.087244
C	-0.530378	-1.168323	0.686733
N	-0.956388	-2.128394	1.211566
Cl	3.357165	0.0	0.0
