15

C	-0.482962	-0.093556	-1.444825
C	0.0	0.0	0.0
F	-0.153851	1.134212	-2.066775
H	1.092391	0.0	0.0
H	-0.324969	-0.900395	0.52904
C	0.271163	-1.17048	-2.191843
H	0.040895	-2.150901	-1.771284
H	1.34242	-0.981448	-2.103864
H	-0.01791	-1.156186	-3.246673
N	-1.8983	-0.29819	-1.502532
H	-2.192482	-0.286525	-2.472564
H	-2.364519	0.468548	-1.028554
C	-0.560726	1.166749	0.668339
N	-1.066292	2.102475	1.165463
Cl	3.416202	0.0	0.0
