15

C	-0.461814	0.008182	-1.48565
C	0.0	0.0	0.0
Br	0.063267	-1.649524	-2.388492
H	1.090783	0.0	0.0
C	-1.909069	0.179584	-1.641629
N	-3.054666	0.397002	-1.79525
C	0.187738	1.134368	-2.15857
N	0.631916	2.074674	-2.707398
N	-0.540503	-1.248621	0.641643
O	0.247686	-2.062272	1.102498
O	-1.770358	-1.332257	0.677042
N	-0.456738	1.117782	0.746023
H	-1.386739	1.440592	0.519075
H	0.231295	1.856626	0.747605
Br	3.388957	0.0	0.0
