15

C	-0.535399	0.008879	-1.453876
C	0.0	0.0	0.0
Br	-0.006349	1.71174	-2.277652
H	1.094504	0.0	0.0
C	-0.005991	-1.039544	-2.326063
N	0.373413	-1.827018	-3.111868
C	-1.99905	-0.03229	-1.434474
N	-3.171894	-0.045767	-1.349368
N	-0.410395	-1.320149	0.644561
O	-0.439951	-1.338256	1.871413
O	-0.656081	-2.278437	-0.088359
N	-0.46141	1.11452	0.741929
H	-1.318776	0.923283	1.24274
H	0.256194	1.399353	1.394758
Br	3.326267	0.0	0.0
