15

C	-0.544072	0.027619	-1.437351
C	0.0	0.0	0.0
Br	0.170572	1.657813	-2.294076
H	1.095126	0.0	0.0
C	-0.097453	-1.096749	-2.258905
N	0.224966	-1.963154	-2.985036
C	-2.003581	0.131864	-1.46995
N	-3.171238	0.221346	-1.567943
N	-0.463792	-1.250762	0.683208
O	-0.188655	-1.336644	1.875101
O	-1.06719	-2.099245	0.026639
N	-0.554261	1.104539	0.767045
H	-0.230757	0.96196	1.719163
H	-0.086773	1.945684	0.443399
Br	3.363462	0.0	0.0
