15

C	-0.533409	-0.007589	-1.459781
C	0.0	0.0	0.0
Br	-0.044823	1.702562	-2.29173
H	1.09308	0.0	0.0
C	0.012024	-1.045379	-2.334035
N	0.41971	-1.825145	-3.113078
C	-1.995459	-0.083468	-1.437293
N	-3.167516	-0.141182	-1.36226
N	-0.422481	-1.312569	0.649176
O	-0.446721	-2.315688	-0.058901
O	-0.684067	-1.28506	1.848663
N	-0.467505	1.124032	0.722367
H	0.264536	1.449902	1.33666
H	-1.294904	0.916164	1.263435
Br	3.32578	0.0	0.0
