13

C	0.0	0.0	0.0
C	-0.392116	-0.001588	-1.473556
F	1.385957	0.0	0.0
H	-1.473278	-0.001616	-1.604685
H	0.03122	0.888246	-1.933731
H	0.031147	-0.89235	-1.931865
N	-0.403458	1.23819	0.625949
H	-1.418646	1.251042	0.588869
H	-0.151507	1.189907	1.609848
N	-0.404104	-1.236541	0.628314
H	-1.418452	-1.249644	0.591453
H	-0.151266	-1.186524	1.612761
Br	-3.913643	0.0	0.0
