17

C	-0.501481	0.015209	-1.438781
C	0.0	0.0	0.0
Cl	-0.250056	1.509628	-2.346754
H	1.090232	0.0	0.0
N	0.332485	-1.08926	-2.135765
O	1.468541	-0.782482	-2.468396
O	-0.17245	-2.214251	-2.137094
C	-1.916484	-0.342179	-1.546294
N	-3.071559	-0.563421	-1.582507
C	-0.439662	-1.241448	0.746221
H	-0.030344	-2.124817	0.25518
H	-1.522475	-1.335418	0.834344
H	-0.008614	-1.187325	1.746939
N	-0.38705	1.211863	0.727999
O	0.151539	2.270794	0.38315
O	-1.146109	1.103272	1.706518
H	2.503677	0.0	0.0
