17

C	-0.520505	0.021761	-1.433741
C	0.0	0.0	0.0
Cl	0.040889	1.355054	-2.444069
H	1.090036	0.0	0.0
N	0.001684	-1.288707	-2.087819
O	-0.770522	-2.243749	-2.059846
O	1.149028	-1.280947	-2.498436
C	-1.982706	-0.022837	-1.484819
N	-3.158897	-0.01066	-1.470357
C	-0.41803	-1.250251	0.746174
H	-1.498063	-1.404304	0.783023
H	-0.041818	-1.157102	1.764654
H	0.067667	-2.118757	0.299576
N	-0.414111	1.205774	0.717342
O	0.005612	2.290533	0.289355
O	-1.056234	1.080724	1.775109
H	2.503958	0.0	0.0
