17

C	-0.554797	-0.045596	-1.399616
C	0.0	0.0	0.0
Cl	-2.34615	0.12548	-1.447172
H	1.093123	0.0	0.0
N	0.07212	1.027147	-2.346733
O	1.265961	0.840113	-2.531586
O	-0.6315	1.89519	-2.826121
C	-0.227473	-1.319416	-2.037893
N	-0.010063	-2.35045	-2.559481
C	-0.368763	-1.204882	0.834935
H	-0.042024	-2.11419	0.326531
H	0.180317	-1.134955	1.77354
H	-1.438714	-1.258429	1.047148
N	-0.348622	1.241216	0.642422
O	-0.28954	2.272852	-0.05146
O	-0.525127	1.241093	1.872827
H	2.404717	0.0	0.0
