17

C	-0.440347	-0.017972	-1.447451
C	0.0	0.0	0.0
Cl	-2.198487	0.297831	-1.656697
H	1.093265	0.0	0.0
N	0.355987	0.99832	-2.321192
O	-0.208094	1.975858	-2.778139
O	1.529511	0.674047	-2.449839
C	-0.15366	-1.318131	-2.049402
N	0.041819	-2.369999	-2.537023
C	-0.508894	-1.1748	0.794956
H	-0.124569	-2.103279	0.36863
H	-0.132286	-1.086782	1.813758
H	-1.600683	-1.204401	0.830502
N	-0.356486	1.265814	0.596134
O	0.017078	2.281249	-0.016516
O	-0.888002	1.284968	1.720966
H	2.415254	0.0	0.0
