17

C	-0.521282	-0.029395	-1.414951
C	0.0	0.0	0.0
Cl	-2.297167	0.233419	-1.511991
H	1.093237	0.0	0.0
N	0.184151	1.006426	-2.346173
O	1.348628	0.711802	-2.56888
O	-0.440005	1.962286	-2.765766
C	-0.241474	-1.322805	-2.035396
N	-0.068738	-2.37057	-2.539567
C	-0.41264	-1.200325	0.817511
H	-1.494184	-1.27077	0.950828
H	0.058673	-1.112821	1.795698
H	-0.032123	-2.108084	0.344743
N	-0.34891	1.250585	0.635207
O	-0.1172	2.283553	-0.016775
O	-0.719531	1.242581	1.822255
H	2.42472	0.0	0.0
