17

C	-0.491497	-0.002355	-1.440115
C	0.0	0.0	0.0
Cl	-0.261563	1.489002	-2.356942
H	1.090186	0.0	0.0
N	0.374569	-1.08921	-2.11018
O	-0.105569	-2.228948	-2.107531
O	1.52681	-0.76374	-2.383161
C	-1.896234	-0.389127	-1.552374
N	-3.045311	-0.635141	-1.59972
C	-0.436868	-1.236055	0.758185
H	-0.022558	-2.121955	0.274521
H	-1.519669	-1.332682	0.841977
H	-0.011268	-1.175079	1.761664
N	-0.38679	1.219814	0.711602
O	0.164969	2.270866	0.363131
O	-1.171185	1.132671	1.671144
H	2.501351	0.0	0.0
