17

C	-0.415295	0.041287	-1.449924
C	0.0	0.0	0.0
Cl	-0.077766	-1.520659	-2.251523
H	1.092707	0.0	0.0
N	-1.938109	0.256984	-1.638107
O	-2.305096	0.943254	-2.581484
O	-2.656671	-0.336797	-0.845813
C	0.283612	1.068541	-2.222983
N	0.870494	1.830778	-2.897893
C	-0.311287	-1.209298	0.856943
H	-0.102401	-2.124556	0.30533
H	0.372567	-1.17164	1.706891
H	-1.342548	-1.216905	1.209565
N	-0.432437	1.211802	0.631941
O	-0.814145	2.156719	-0.094052
O	-0.311499	1.293566	1.863902
H	2.397978	0.0	0.0
