17

C	-0.439752	-0.017578	-1.447838
C	0.0	0.0	0.0
Cl	-2.197312	0.300155	-1.657727
H	1.093275	0.0	0.0
N	0.358394	0.997412	-2.32189
O	-0.205363	1.972339	-2.784765
O	1.53278	0.674149	-2.445022
C	-0.154219	-1.317869	-2.050043
N	0.040822	-2.369342	-2.538684
C	-0.509255	-1.174955	0.794377
H	-0.135015	-1.08613	1.813935
H	-1.601139	-1.205543	0.827532
H	-0.123212	-2.10321	0.369111
N	-0.356884	1.265631	0.595406
O	-0.883622	1.285438	1.722542
O	0.01189	2.281109	-0.020301
H	2.413622	0.0	0.0
