17

C	-0.414786	0.033612	-1.451546
C	0.0	0.0	0.0
Cl	-0.07163	-1.53	-2.244088
H	1.091938	0.0	0.0
N	-1.93664	0.246182	-1.637664
O	-2.30828	0.960904	-2.555871
O	-2.653565	-0.372122	-0.86426
C	0.281769	1.061175	-2.2302
N	0.880882	1.784417	-2.936908
C	-0.32046	-1.200108	0.86519
H	-1.351656	-1.194993	1.218763
H	0.363953	-1.163748	1.715277
H	-0.124157	-2.121059	0.318465
N	-0.418785	1.218237	0.625916
O	-0.797566	2.162206	-0.105434
O	-0.282352	1.308573	1.856665
H	2.396374	0.0	0.0
