15

C	-0.565471	-0.134195	-1.416984
C	0.0	0.0	0.0
Br	0.046799	-1.838697	-2.204909
H	1.09801	0.0	0.0
H	-0.341965	0.976291	0.365606
C	-2.090519	-0.132595	-1.434634
H	-2.445803	-0.933136	-0.787489
H	-2.444476	0.826193	-1.041729
H	-2.471604	-0.263015	-2.448895
C	-0.064243	0.93491	-2.278263
N	0.239079	1.838905	-2.96591
N	-0.560413	-1.048202	0.864654
H	-0.446152	-0.735981	1.822386
H	0.043987	-1.858057	0.771254
Cl	3.4833	0.0	0.0
