15

C	-0.579802	0.038922	-1.416154
C	0.0	0.0	0.0
Br	0.047551	-1.539873	-2.423491
H	1.098022	0.0	0.0
H	-0.342042	0.922131	0.486592
C	-2.105236	0.018275	-1.417344
H	-2.496144	0.012029	-2.435892
H	-2.440725	-0.862768	-0.873748
H	-2.468158	0.91318	-0.901474
C	-0.108518	1.218894	-2.137576
N	0.165388	2.207595	-2.71131
N	-0.551195	-1.148703	0.734447
H	-0.419337	-0.959978	1.721667
H	0.049891	-1.940739	0.529843
Cl	3.483342	0.0	0.0
