15

C	-0.587917	0.006687	-1.414963
C	0.0	0.0	0.0
Br	0.187365	-1.494682	-2.417466
H	1.097227	0.0	0.0
H	-0.345934	-0.92269	0.477588
C	-2.105421	-0.148929	-1.405923
H	-2.363602	-1.103695	-0.94215
H	-2.525101	0.665966	-0.814001
H	-2.510366	-0.126155	-2.41905
C	-0.235073	1.238888	-2.119447
N	-0.031434	2.256588	-2.672227
N	-0.547563	1.162362	0.7206
H	-0.545238	0.948543	1.71087
H	0.115045	1.923603	0.603703
Cl	3.494521	0.0	0.0
