15

C	-0.400217	0.009329	-1.473469
C	0.0	0.0	0.0
Br	-2.324975	0.473211	-1.657483
H	1.101994	0.0	0.0
H	-0.336431	0.947006	0.431485
C	0.43314	1.023201	-2.2458
H	0.171874	1.026359	-3.305033
H	0.260997	2.019009	-1.831658
H	1.489216	0.77028	-2.109187
C	-0.26413	-1.326947	-2.050192
N	-0.13983	-2.403106	-2.506112
N	-0.597451	-1.119383	0.721419
H	-0.659469	-0.877413	1.702204
H	0.042841	-1.904236	0.663896
Cl	3.475923	0.0	0.0
