15

C	-0.479415	-0.068042	-1.422723
C	0.0	0.0	0.0
Br	-2.521904	-0.155187	-1.542967
H	1.108439	0.0	0.0
C	-0.105825	1.127716	-2.168073
N	0.21187	2.027513	-2.855118
C	-0.013356	-1.267517	-2.116188
N	0.349385	-2.254018	-2.644618
N	-0.465898	-1.155065	0.774992
H	0.236111	-1.270446	1.506619
H	-0.39394	-1.996561	0.208362
N	-0.400972	1.252149	0.587617
H	-1.209391	1.097012	1.17882
H	0.373825	1.593192	1.147352
H	2.643777	0.0	0.0
