15

C	-0.520629	0.002418	-1.415522
C	0.0	0.0	0.0
Br	-2.561305	-0.003774	-1.424154
H	1.096742	0.0	0.0
C	-0.142773	1.206697	-2.148694
N	0.150805	2.153303	-2.780657
C	-0.130062	-1.193544	-2.157261
N	0.176333	-2.130598	-2.798486
N	-0.356803	-1.253923	0.630503
H	-1.209733	-1.173746	1.171784
H	0.412567	-1.517164	1.240151
N	-0.361577	1.249001	0.637766
H	0.412142	1.517291	1.240713
H	-1.208631	1.159172	1.18792
H	2.635582	0.0	0.0
