15

C	-0.521562	-0.007186	-1.41698
C	0.0	0.0	0.0
Br	-2.559052	-0.011549	-1.424537
H	1.096268	0.0	0.0
C	-0.138077	1.190927	-2.158635
N	0.156137	2.135213	-2.793652
C	-0.133271	-1.209157	-2.14848
N	0.167371	-2.153358	-2.780076
N	-0.359557	-1.248846	0.638256
H	0.41037	-1.512161	1.247558
H	-1.211623	-1.163447	1.180863
N	-0.361029	1.253811	0.628309
H	-1.209762	1.170508	1.175912
H	0.410136	1.524287	1.231987
H	2.640097	0.0	0.0
