15

C	-0.538737	-0.041108	-1.449354
C	0.0	0.0	0.0
Br	0.137113	1.498076	-2.460302
H	1.111311	0.0	0.0
C	-0.115588	-1.253444	-2.153046
N	0.181396	-2.245808	-2.708737
C	-2.000327	0.028425	-1.451788
N	-3.173938	0.088319	-1.428441
N	-0.495671	-1.226774	0.65492
H	-0.141302	-1.163142	1.607019
H	0.02017	-2.009243	0.253416
N	-0.488064	1.180622	0.653199
H	-1.294499	0.965736	1.226876
H	0.258373	1.569553	1.217009
H	2.787739	0.0	0.0
