15

C	-0.125394	-0.02952	-1.530409
C	0.0	0.0	0.0
Br	-1.981876	-0.494229	-2.121803
H	1.094861	0.0	0.0
C	0.141575	1.258451	-2.192027
N	0.400479	2.170208	-2.890887
N	0.788439	-1.056197	-1.93385
H	1.673208	-0.858754	-1.42823
H	0.931764	-1.029902	-2.935663
C	-0.503338	-1.215359	0.600479
N	-0.876883	-2.202885	1.115998
N	-0.551512	1.199131	0.659672
O	-0.224889	2.28767	0.189401
O	-1.255347	1.043741	1.658781
F	2.507355	0.0	0.0
