15

C	-0.090214	-0.00966	-1.533896
C	0.0	0.0	0.0
Br	-1.954752	-0.231899	-2.165011
H	1.095194	0.0	0.0
C	0.416485	1.23017	-2.135237
N	0.822475	2.15617	-2.732972
N	0.721393	-1.094227	-2.050742
H	1.631869	-0.950734	-1.5876
H	0.335326	-1.969919	-1.708285
C	-0.490074	-1.236548	0.563133
N	-0.835998	-2.284591	0.968798
N	-0.568049	1.159693	0.708756
O	-0.689644	2.211218	0.082618
O	-0.84351	1.009542	1.899025
F	2.473626	0.0	0.0
