15

C	-0.129437	-0.048759	-1.528345
C	0.0	0.0	0.0
Br	-1.990081	-0.511363	-2.109868
H	1.094889	0.0	0.0
C	0.142933	1.228174	-2.208555
N	0.392356	2.123064	-2.931322
N	0.779598	-1.08659	-1.920642
H	1.666272	-0.883013	-1.422943
H	0.916566	-1.077543	-2.924333
C	-0.501755	-1.208054	0.616816
N	-0.873901	-2.190447	1.143464
N	-0.545058	1.207236	0.651721
O	-0.247121	2.289008	0.150732
O	-1.208179	1.063467	1.67965
F	2.50521	0.0	0.0
