15

C	-0.127906	-0.023378	-1.525748
C	0.0	0.0	0.0
Br	-2.000392	-0.412789	-2.109471
H	1.094896	0.0	0.0
C	0.189644	1.252804	-2.187989
N	0.455373	2.135857	-2.919811
N	0.748312	-1.084674	-1.932813
H	0.883092	-1.063312	-2.935421
H	1.644058	-0.900832	-1.443358
C	-0.50841	-1.212824	0.600723
N	-0.889154	-2.199719	1.11248
N	-0.538657	1.200267	0.668686
O	-1.147176	1.049166	1.727135
O	-0.285994	2.285519	0.149161
F	2.498195	0.0	0.0
