16

C	0.0	0.0	0.0
C	-0.49941	0.010291	-1.444546
Br	1.950084	0.0	0.0
H	-1.591382	-0.106823	-1.360834
H	-0.266038	-0.960875	0.44647
N	-0.498058	1.16023	0.685942
H	-0.228848	1.100336	1.662625
H	-1.519853	1.085517	0.643963
N	-0.023096	-1.244805	-2.113784
O	-0.255131	-2.304364	-1.534523
O	0.552195	-1.158395	-3.197757
C	-0.128696	1.241174	-2.236176
H	-0.459081	2.113586	-1.673336
H	0.948576	1.302203	-2.392065
H	-0.620187	1.228812	-3.209186
Br	-3.711186	0.0	0.0
