16

C	0.0	0.0	0.0
C	-0.32346	-0.11982	-1.504788
Br	2.006801	0.0	0.0
H	0.211106	-0.981913	-1.904094
H	-0.25407	-0.960513	0.451185
N	-0.572754	1.041904	0.76228
H	-0.592089	1.903982	0.232735
H	-1.523012	0.785691	1.017928
N	0.240058	1.032947	-2.278773
O	0.860033	0.777709	-3.310317
O	0.00022	2.169472	-1.866277
C	-1.800538	-0.202438	-1.81469
H	-2.35811	0.658573	-1.454266
H	-1.938479	-0.29675	-2.895908
H	-2.254475	-1.065696	-1.331786
Br	-4.650075	0.0	0.0
