16

C	0.0	0.0	0.0
C	-0.504567	-0.094313	-1.449535
Br	1.957683	0.0	0.0
H	-1.583357	-0.282057	-1.333211
H	-0.28445	-0.920794	0.506639
N	-0.496911	1.110389	0.751053
H	-0.31901	1.978604	0.260609
H	-1.511051	0.977356	0.818531
N	0.05189	-1.33585	-2.076385
O	0.636937	-1.25053	-3.157389
O	-0.118186	-2.386049	-1.458185
C	-0.263988	1.120245	-2.313283
H	-0.635872	0.941622	-3.321449
H	-0.82499	1.959599	-1.898176
H	0.796199	1.372832	-2.373486
Br	-3.69958	0.0	0.0
