16

C	0.0	0.0	0.0
C	-0.527154	0.019049	-1.432203
Br	1.950026	0.0	0.0
H	-1.609825	-0.155356	-1.324754
H	-0.249704	-0.967586	0.440065
N	-0.508004	1.14551	0.703552
H	-1.530243	1.086571	0.619933
H	-0.287637	1.043153	1.68824
N	-0.010553	-1.188619	-2.156052
O	-0.12235	-2.271217	-1.58342
O	0.468284	-1.043702	-3.28083
C	-0.258765	1.291583	-2.19809
H	0.810284	1.453126	-2.340233
H	-0.741782	1.25205	-3.174094
H	-0.673399	2.120943	-1.626152
Br	-3.726946	0.0	0.0
