16

C	0.0	0.0	0.0
C	-0.439877	-0.12085	-1.454291
Br	2.032773	0.0	0.0
H	0.009937	-1.018529	-1.87939
H	-0.218685	-0.948959	0.488735
N	-0.582708	1.048611	0.698574
H	-0.414776	1.034945	1.691827
H	-0.429973	1.953448	0.279942
N	0.125913	0.989273	-2.28794
O	0.609575	0.687431	-3.375792
O	0.028196	2.138784	-1.85621
C	-1.952831	-0.117529	-1.603541
H	-2.400014	0.808703	-1.251862
H	-2.413382	-0.903502	-1.004604
H	-2.216622	-0.281008	-2.650996
Br	-5.149083	0.0	0.0
