16

C	0.0	0.0	0.0
C	-0.536267	0.086492	-1.421136
Br	2.013679	0.0	0.0
H	-1.612291	-0.132259	-1.287298
H	-0.265544	-0.966961	0.41919
N	-0.512598	1.043307	0.780353
H	-0.614486	0.818633	1.755648
H	-0.065423	1.934333	0.63633
N	0.027088	-1.04462	-2.224606
O	0.493729	-0.810188	-3.339368
O	-0.032382	-2.16264	-1.715731
C	-0.348111	1.41849	-2.102376
H	-0.919136	2.160735	-1.542755
H	-0.747114	1.381166	-3.114925
H	0.70499	1.703249	-2.154295
Br	-3.825655	0.0	0.0
