12

C	-0.413692	0.140436	-1.473721
C	0.0	0.0	0.0
Br	-0.317745	-1.602217	-2.375756
H	1.093856	0.0	0.0
H	-1.459099	0.438727	-1.575705
H	-0.291973	0.93631	0.494356
N	0.423853	1.071559	-2.185818
H	1.397261	0.863651	-1.962803
H	0.230371	2.006745	-1.841303
C	-0.600175	-1.103288	0.731205
N	-1.129851	-1.971908	1.317672
Cl	3.356062	0.0	0.0
