17

C	0.0	0.0	0.0
C	-0.501602	-0.017486	-1.439728
Cl	1.80084	0.0	0.0
H	-0.142006	-0.90461	-1.95855
H	-1.596982	0.02597	-1.403076
C	-0.47083	1.216952	0.777554
H	-0.065044	2.138848	0.363258
H	-0.147213	1.124376	1.817125
H	-1.562734	1.245591	0.734712
C	-0.475923	-1.282068	0.665244
H	-0.112031	-2.161294	0.127429
H	-0.101254	-1.322302	1.690484
H	-1.569764	-1.274431	0.676166
N	-0.022342	1.137247	-2.242922
O	-0.521888	2.239278	-2.017688
O	0.849822	0.921575	-3.08785
Br	-3.939514	0.0	0.0
