17

C	0.0	0.0	0.0
C	-0.512681	-0.06718	-1.43293
Cl	1.800833	0.0	0.0
H	-1.603773	-0.172754	-1.3804
H	-0.219994	0.822392	-1.988098
C	-0.481603	1.321796	0.579116
H	-0.106242	2.166668	-0.00444
H	-1.575661	1.316891	0.56973
H	-0.128748	1.423217	1.608193
C	-0.47209	-1.158948	0.860959
H	-0.123633	-1.007619	1.885794
H	-0.093883	-2.111545	0.493653
H	-1.565203	-1.168098	0.845906
N	0.027915	-1.21252	-2.212924
O	-0.322132	-2.347462	-1.890119
O	0.7933	-0.952686	-3.14407
Br	-3.960573	0.0	0.0
