17

C	0.0	0.0	0.0
C	-0.184024	-0.016664	-1.535885
Cl	1.806698	0.0	0.0
H	0.290177	0.87085	-1.952803
H	0.289606	-0.913272	-1.933307
C	-0.542578	1.261982	0.630661
H	-0.273588	1.299704	1.689308
H	-1.634896	1.237229	0.54188
H	-0.153854	2.152707	0.132258
C	-0.541894	-1.25033	0.65479
H	-0.156938	-2.149905	0.169683
H	-0.268321	-1.270891	1.712857
H	-1.634674	-1.225464	0.569547
N	-1.562841	-0.021968	-2.104033
O	-2.051217	-1.120478	-2.355192
O	-2.05792	1.073547	-2.355759
Br	-4.213609	0.0	0.0
