17

C	0.0	0.0	0.0
C	-0.521541	-0.022335	-1.431545
Cl	1.800906	0.0	0.0
H	-0.244367	-0.950511	-1.928254
H	-1.612096	0.097636	-1.381148
C	-0.464641	1.214812	0.787879
H	-1.558242	1.228755	0.783061
H	-0.088078	2.140064	0.354802
H	-0.10577	1.132074	1.816848
C	-0.478714	-1.281618	0.666452
H	-0.101989	-2.161905	0.139068
H	-1.573196	-1.282995	0.661072
H	-0.122558	-1.316034	1.698529
N	0.027542	1.0618	-2.28767
O	0.78344	0.733277	-3.204025
O	-0.305141	2.21908	-2.037384
Br	-3.965147	0.0	0.0
