17

C	0.0	0.0	0.0
C	-0.195059	0.048234	-1.534909
Cl	1.80659	0.0	0.0
H	0.412223	-0.737015	-1.982681
H	0.127898	1.020722	-1.904935
C	-0.545816	1.23236	0.683826
H	-0.142284	2.143894	0.236693
H	-0.295749	1.218627	1.747629
H	-1.637405	1.216299	0.576924
C	-0.524412	-1.278311	0.616026
H	-1.618219	-1.258182	0.558019
H	-0.221681	-1.334648	1.66495
H	-0.14974	-2.156845	0.08745
N	-1.551575	-0.182511	-2.114013
O	-2.128796	0.789624	-2.591724
O	-1.927936	-1.350246	-2.1622
Br	-4.174457	0.0	0.0
