17

C	0.0	0.0	0.0
C	-0.18858	0.050075	-1.535173
Cl	1.806592	0.0	0.0
H	0.337034	0.922685	-1.920571
H	0.229547	-0.857205	-1.969556
C	-0.535907	1.236232	0.685936
H	-0.251394	1.233856	1.741164
H	-1.629312	1.218827	0.610331
H	-0.154663	2.145854	0.216673
C	-0.545296	-1.275089	0.600532
H	-0.148302	-2.154971	0.088956
H	-0.287404	-1.335287	1.660755
H	-1.637396	-1.25309	0.502467
N	-1.565911	0.161693	-2.09648
O	-2.096745	-0.878847	-2.474302
O	-2.017049	1.297706	-2.215653
Br	-4.214105	0.0	0.0
