16
Coordinates from ORCA-job run
  C   -0.77886933897779     -0.44034685697481     -0.13447410544397
  C   0.75424656830107     -0.49175844066952     -0.12903661012336
  Br  -1.52873929669402     -2.15773310621315     -0.63623219420621
  H   1.04362991709098     -1.30996792397084      0.53538364340032
  N   -1.29030523257895      0.55599361738927     -0.97725812805228
  H   -2.30114388684704      0.53815822826029     -1.01455479868652
  H   -0.98563397815615      1.47719555803569     -0.68762017057712
  N   -1.19148912164231     -0.25168265659318      1.36857145005333
  O   -1.98888886455471      0.65006568255765      1.60022135800286
  O   -0.67009683137706     -0.99290888920762      2.19045385255152
  C   1.37524999324511      0.81613087552234      0.38057675159445
  H   2.45712403761461      0.69467384575117      0.45037550301544
  H   1.18239764386126      1.64385610359328     -0.30414249099607
  H   1.00167231603780      1.06690282191612      1.37519979554770
  C   1.23873601277217     -0.79209353701519     -1.47550974859185
  N   1.68311006190502     -1.00548532238151     -2.54095410748824
