16
Coordinates from ORCA-job run
  C   -0.69933372933239     -0.25442661358519      0.25581375930124
  C   0.66103528824670      0.32118293452428     -0.17805065196079
  Br  -0.57478516851092     -1.25217107102602      1.89733981261949
  H   0.45454360274750      0.86813997556036     -1.10720031756497
  N   -1.22880320270195     -1.07855476735267     -0.76758413146380
  H   -2.06309120566522     -1.56398565265974     -0.46178804923597
  H   -1.44019569605501     -0.51457580762067     -1.58414078612591
  N   -1.60808122738810      1.00358927089318      0.50070401797876
  O   -1.91903804660951      1.34772069380195      1.62813109811021
  O   -1.90815427804733      1.57048610884612     -0.54927855856510
  C   1.70879300484074     -0.75982677969819     -0.44935906963997
  H   2.59581090447002     -0.30035034841581     -0.88920342328717
  H   1.30285044582734     -1.49722503744802     -1.14060977833351
  H   1.99897395840434     -1.25747609082499      0.47544919526830
  C   1.14691178095523      1.29580458761289      0.79914405732005
  N   1.57356356881855      2.07166859739252      1.57063282557915
