16
Coordinates from ORCA-job run
  C   -0.78487466733771     -0.26554397526463      0.09423973140916
  C   0.64993235855260     -0.21903800861042     -0.46017680383019
  Br  -0.97506646145274     -1.88921531781751      1.26815797768170
  H   0.67356910812291     -1.03197446401656     -1.19851553152354
  N   -1.72196988387552     -0.19526421317565     -0.93871180093316
  H   -2.67124160682943     -0.13830419948203     -0.59159054520671
  H   -1.61952829379027     -0.94540474407340     -1.60844665172304
  N   -1.10247424493851      0.89741549158861      1.03536010808590
  O   -0.16109004118624      1.51997311534286      1.50748426706035
  O   -2.29061860651915      1.10196773284451      1.24419521409258
  C   1.82639825786305     -0.43469565577707      0.49758934164564
  H   1.86355380349079      0.34180752720689      1.25640101688192
  H   2.74963544776924     -0.40269326303032     -0.08430143487086
  H   1.75532748010147     -1.40999369220545      0.97588775915989
  C   0.81101831072086      1.03676752842307     -1.20200424768112
  N   0.99442903930863      2.03419613804712     -1.79356840024854
