16
Coordinates from ORCA-job run
  C   -0.72129968668476     -0.22826335648044      0.21522227284527
  C   0.68005748128304      0.29706845128704     -0.14545957094767
  Br  -0.74115764756962     -1.13648537388835      1.91223253886039
  H   0.55539384779548      0.79282163946491     -1.11712727697739
  N   -1.19296377540376     -1.09664376304223     -0.79964907447739
  H   -1.33087861679274     -0.57460584605379     -1.65864473796566
  H   -2.05786455557354     -1.54929441398598     -0.53138401123474
  N   -1.61729230286794      1.05810981282929      0.32402994062483
  O   -1.82138185164431      1.57484483997490     -0.77369652893018
  O   -2.00534527376356      1.46713781082316      1.40479328190258
  C   1.72139819397619     -0.81578387483724     -0.27410463868715
  H   2.64680624306541     -0.39969020967201     -0.67641810898791
  H   1.93498124456695     -1.25958486494094      0.69776627958463
  H   1.35008047171955     -1.58803562075202     -0.94655082156006
  C   1.11053647009937      1.32039464481135      0.80745919806249
  N   1.48992975779426      2.13701012446236      1.56153125788797
