13

C	-0.577899	-0.064571	-1.392157
C	0.0	0.0	0.0
Cl	0.032601	1.385742	-2.360686
H	1.091344	0.0	0.0
H	-0.17994	-0.932358	-1.914813
H	-0.341219	0.93257	0.481671
N	-2.007826	-0.109018	-1.379666
H	-2.370032	-0.168282	-2.323747
H	-2.35602	0.750795	-0.970585
N	-0.392536	-1.222954	0.70282
H	0.330183	-1.426853	1.382616
H	-1.279858	-1.114206	1.173565
H	3.038867	0.0	0.0
