13

C	-0.590484	-0.021071	-1.390814
C	0.0	0.0	0.0
Cl	-0.074807	1.530409	-2.290236
H	1.096224	0.0	0.0
H	-0.139675	-0.809405	-1.992967
H	-0.335162	-0.933079	0.468721
N	-2.006098	-0.143497	-1.331708
H	-2.431683	0.033758	-2.231424
H	-2.331852	0.540483	-0.656759
N	-0.585294	1.126756	0.756149
H	-0.418235	0.943784	1.7393
H	-0.01812	1.939192	0.535223
H	3.083441	0.0	0.0
