13

C	-0.45097	0.11986	-1.448057
C	0.0	0.0	0.0
Cl	-0.310882	-1.489637	-2.26012
H	1.093764	0.0	0.0
H	-1.511449	0.382149	-1.512598
H	-0.384745	-0.908756	0.477159
N	0.316418	1.092942	-2.194813
H	1.298663	0.871421	-2.021194
H	0.149127	1.970559	-1.708132
N	-0.411185	1.241057	0.681055
H	-1.18644	1.06909	1.307545
H	0.375732	1.55419	1.238277
H	3.033594	0.0	0.0
