13

C	-0.345821	-0.120553	-1.496932
C	0.0	0.0	0.0
Cl	-0.490459	-1.890315	-1.972555
H	1.092269	0.0	0.0
H	-1.336765	0.275552	-1.741148
H	-0.309558	1.017627	0.279736
N	0.640282	0.512078	-2.318664
H	1.554664	0.435023	-1.861596
H	0.411449	1.488354	-2.44869
N	-0.536767	-0.953557	0.953045
H	0.018297	-1.797364	0.88638
H	-1.486987	-1.205371	0.707183
H	3.047727	0.0	0.0
