17

C	-0.555284	0.005784	-1.412678
C	0.0	0.0	0.0
F	0.153027	0.871183	-2.187988
H	1.086162	0.0	0.0
N	-0.236026	-1.359186	-2.096702
O	0.670848	-2.040565	-1.649799
O	-0.868442	-1.570492	-3.144849
N	-1.914151	0.34208	-1.51119
H	-2.224014	0.213701	-2.466543
H	-2.447426	-0.259979	-0.896321
N	-0.512642	-1.131905	0.793763
O	0.025305	-1.329069	1.875637
O	-1.427188	-1.826327	0.32466
N	-0.471181	1.241942	0.667509
O	-1.342441	1.156797	1.534813
O	0.036513	2.28392	0.264648
F	2.434826	0.0	0.0
