17

C	-0.676303	-0.085005	-1.356359
C	0.0	0.0	0.0
F	-2.021341	0.230876	-1.214024
H	1.087266	0.0	0.0
N	-0.113973	1.009127	-2.293941
O	1.080094	0.948417	-2.523503
O	-0.923337	1.790841	-2.782184
N	-0.465512	-1.293355	-2.038471
H	-0.81107	-2.056358	-1.473625
H	-0.941471	-1.269278	-2.931177
N	-0.382381	-1.117646	0.902143
O	-1.18497	-1.980771	0.521402
O	0.173088	-1.125772	1.993716
N	-0.449611	1.266484	0.645092
O	-1.08501	1.239257	1.695254
O	-0.131589	2.283407	0.033359
F	2.431554	0.0	0.0
