17

C	-0.238256	-0.222397	-1.49697
C	0.0	0.0	0.0
F	-1.48591	-0.659632	-1.800253
H	1.088465	0.0	0.0
N	-0.116231	1.1696	-2.15941
O	0.99724	1.513563	-2.519801
O	-1.154586	1.814944	-2.25478
N	0.754039	-1.05562	-2.067185
H	1.63915	-0.783057	-1.616664
H	0.539105	-2.002221	-1.772224
N	-0.388352	-1.16796	0.822983
O	-0.343188	-1.00688	2.038943
O	-0.630424	-2.23593	0.262537
N	-0.652778	1.209937	0.541013
O	-1.783357	1.101476	1.012779
O	-0.018661	2.257224	0.431906
F	2.502891	0.0	0.0
