17

C	-0.608723	-0.009733	-1.414805
C	0.0	0.0	0.0
Cl	0.162686	-1.324834	-2.367099
H	1.098998	0.0	0.0
C	-2.113291	-0.2447	-1.400952
H	-2.585909	0.543343	-0.810939
H	-2.520063	-0.249183	-2.414274
H	-2.291074	-1.210725	-0.928281
C	-0.322554	1.247728	-2.11064
N	-0.165243	2.277695	-2.654768
N	-0.433466	-1.193793	0.706892
H	0.374529	-1.554668	1.198821
H	-1.157394	-0.95098	1.373949
N	-0.518672	1.203971	0.700292
H	-0.181715	2.018699	0.190372
H	0.020834	1.224247	1.563199
F	2.655012	0.0	0.0
