17

C	-0.364923	-0.028122	-1.498551
C	0.0	0.0	0.0
Cl	-0.05549	1.578519	-2.251434
H	1.099499	0.0	0.0
C	0.545071	-1.046631	-2.179541
H	0.471459	-0.980595	-3.266932
H	1.556998	-0.818577	-1.823973
H	0.267961	-2.045335	-1.841504
C	-1.790481	-0.312507	-1.682691
N	-2.937429	-0.557606	-1.773854
N	-0.386083	-1.312154	0.531892
H	0.306539	-1.573806	1.223692
H	-1.297885	-1.273893	0.97575
N	-0.529367	1.161043	0.683163
H	-1.43083	0.961615	1.103876
H	0.121179	1.419602	1.414013
F	2.674608	0.0	0.0
