17

C	-0.344991	-0.047181	-1.500241
C	0.0	0.0	0.0
Cl	-0.054088	1.575131	-2.26625
H	1.101159	0.0	0.0
C	0.614306	-1.038211	-2.1518
H	0.357389	-2.039248	-1.803262
H	1.61314	-0.777773	-1.778625
H	0.55271	-0.993185	-3.241213
C	-1.753948	-0.367412	-1.738
N	-2.878032	-0.655802	-1.926308
N	-0.434669	-1.268137	0.563993
H	-1.324323	-1.137588	1.033521
H	0.265294	-1.575047	1.22719
N	-0.656961	1.117341	0.689017
H	-0.222931	1.151516	1.607431
H	-0.373036	1.977207	0.230562
F	2.710073	0.0	0.0
