17

C	-0.320672	0.065177	-1.48687
C	0.0	0.0	0.0
Cl	-2.099153	0.427023	-1.77043
H	1.096444	0.0	0.0
C	0.539162	1.138016	-2.133628
H	0.448603	1.127377	-3.222089
H	0.237723	2.10421	-1.73296
H	1.561955	0.924091	-1.800344
C	-0.080031	-1.230556	-2.126916
N	0.154036	-2.23294	-2.69364
N	-0.511595	-1.221443	0.590946
H	-1.460151	-1.093766	0.926686
H	0.080996	-1.471096	1.372349
N	-0.372012	1.26864	0.621759
H	0.298644	1.447732	1.35956
H	-1.30182	1.218189	1.023488
F	2.659628	0.0	0.0
