17

C	-0.291985	-0.086751	-1.524344
C	0.0	0.0	0.0
Cl	0.006137	1.526027	-2.297853
H	1.095556	0.0	0.0
C	0.687146	-1.084175	-2.13219
H	0.428392	-2.079325	-1.769271
H	0.65568	-1.060227	-3.223646
H	1.673509	-0.807568	-1.735981
C	-1.695741	-0.407909	-1.788332
N	-2.83225	-0.663096	-1.9514
N	-0.455547	-1.271794	0.555627
H	-1.352603	-1.129428	1.01037
H	0.212939	-1.519393	1.277055
N	-0.535212	1.15364	0.695745
H	-1.41821	1.453946	0.292819
H	0.124384	1.914732	0.594016
F	2.692945	0.0	0.0
