17

C	-0.24315	0.036365	-1.513975
C	0.0	0.0	0.0
Cl	-2.014325	0.318558	-1.906214
H	1.097057	0.0	0.0
C	0.62177	1.120049	-2.133947
H	0.277532	2.08271	-1.757475
H	0.584031	1.097924	-3.225384
H	1.632663	0.925424	-1.749262
C	0.074649	-1.270867	-2.094386
N	0.313385	-2.322493	-2.561047
N	-0.51559	-1.181982	0.672678
H	0.183476	-1.912783	0.611437
H	-1.366415	-1.518485	0.232837
N	-0.453285	1.255788	0.575566
H	-1.385026	1.122586	0.955424
H	0.166183	1.441444	1.356401
F	2.670338	0.0	0.0
