17

C	-0.266306	-0.071107	-1.528558
C	0.0	0.0	0.0
Cl	0.031366	1.553404	-2.270337
H	1.102666	0.0	0.0
C	0.746031	-1.04149	-2.134557
H	0.485392	-2.063326	-1.848583
H	1.717151	-0.778336	-1.687766
H	0.756965	-0.973656	-3.223785
C	-1.651413	-0.423924	-1.835495
N	-2.746984	-0.788643	-2.057021
N	-0.417301	-1.217708	0.670792
H	-1.286213	-1.594649	0.310532
H	0.321144	-1.900667	0.594613
N	-0.712966	1.121048	0.604454
H	-0.162209	1.959243	0.453566
H	-0.695377	0.92935	1.59943
F	2.723935	0.0	0.0
