12

C	0.0	0.0	0.0
C	-0.48823	-0.308065	-1.414466
F	1.375732	0.0	0.0
H	-1.589752	-0.33877	-1.378761
H	-0.173095	0.513569	-2.063383
C	-0.422475	1.346351	0.423449
N	-0.561148	2.458632	0.77472
C	-0.411178	-1.015569	0.990227
N	-0.497967	-1.872048	1.789819
C	0.080824	-1.557116	-1.902423
N	0.550967	-2.55147	-2.312639
Br	-3.473967	0.0	0.0
