12

C	0.0	0.0	0.0
C	-0.475311	0.286368	-1.425916
F	1.375553	0.0	0.0
H	-1.577247	0.317748	-1.400127
H	-0.149829	-0.542496	-2.061137
C	-0.425692	1.034223	0.962006
N	-0.549517	1.890842	1.757086
C	-0.415255	-1.345065	0.4434
N	-0.502676	-2.464293	0.7895
C	0.094685	1.532189	-1.924616
N	0.554414	2.52312	-2.354576
Br	-3.455076	0.0	0.0
