14

C	0.0	0.0	0.0
C	-0.426424	-0.307066	-1.468099
Cl	1.782092	0.0	0.0
H	0.468172	-0.656889	-1.997825
H	-0.353564	0.979714	0.297551
C	-0.45013	-0.991704	0.972934
N	-0.571867	-1.843734	1.773637
C	-0.926729	0.973886	-2.134666
H	-1.131214	0.803657	-3.195561
H	-0.165906	1.758467	-2.048596
H	-1.836722	1.236259	-1.600287
C	-1.407347	-1.384622	-1.612826
N	-2.005349	-2.329393	-1.976704
F	-2.372989	0.0	0.0
