14

C	0.0	0.0	0.0
C	-0.427303	-0.402583	-1.445478
Cl	1.781978	0.0	0.0
H	0.468397	-0.780403	-1.954367
H	-0.354381	0.997021	0.232265
C	-0.448246	-0.928521	1.034945
N	-0.56458	-1.737337	1.880205
C	-0.943595	0.825288	-2.194106
H	-0.188174	1.617758	-2.177187
H	-1.164699	0.579888	-3.23638
H	-1.847674	1.124429	-1.667357
C	-1.39887	-1.497531	-1.517908
N	-1.999622	-2.461918	-1.82012
F	-2.37379	0.0	0.0
