14

C	0.0	0.0	0.0
C	-0.458891	0.141277	-1.467945
Cl	1.782655	0.0	0.0
H	-1.5651	0.217325	-1.287388
H	-0.372131	0.841006	0.576482
C	-0.476576	-1.246483	0.617165
N	-0.659827	-2.247291	1.201707
C	-0.092229	-1.066026	-2.32684
H	-0.546942	-1.961695	-1.898663
H	0.989191	-1.215671	-2.393988
H	-0.480663	-0.937748	-3.340019
C	0.076541	1.366311	-2.050436
N	0.486638	2.34117	-2.564696
F	-2.520426	0.0	0.0
