14

C	0.0	0.0	0.0
C	-0.427009	-0.337435	-1.462083
Cl	1.781949	0.0	0.0
H	0.470616	-0.684876	-1.989099
H	-0.354714	0.985853	0.275498
C	-0.448706	-0.972229	0.994168
N	-0.565199	-1.810742	1.809957
C	-0.949307	0.92256	-2.151056
H	-0.187952	1.709023	-2.120843
H	-1.838889	1.207265	-1.593044
H	-1.196671	0.720768	-3.196535
C	-1.387622	-1.435592	-1.582424
N	-1.981097	-2.407271	-1.875976
F	-2.37341	0.0	0.0
