15
Coordinates from ORCA-job run
  C   1.00793999752375      0.57483314467074      0.07399346958398
  C   -0.48255418693089      0.29028172900204      0.26080900992325
  Cl  1.56009475425757      1.91204366819270      1.07279128272159
  H   -0.65435382943454      0.24593026976998      1.34019541492199
  H   1.24853836906536      0.79443579827450     -0.96499087398165
  N   1.78368462813004     -0.66456478492135      0.42115088441383
  O   2.32022444573845     -1.24976949555724     -0.51741315417493
  O   1.75489313332899     -1.03533370650788      1.58883820290154
  C   -0.87425695914987     -1.04387482304377     -0.37335665931640
  H   -0.38964721134196     -1.89613346104835      0.10621849147623
  H   -1.95415231338104     -1.17617486868863     -0.28024416709653
  H   -0.61823825848579     -1.05864122154913     -1.43741976971920
  N   -1.20081577455615      1.43570529650246     -0.28189278469204
  H   -2.04970679215805      1.60564617623853      0.23892977020231
  H   -1.45465000260586      1.26561627866540     -1.24760911716397
