15
Coordinates from ORCA-job run
  C   0.96234846517795     -0.26940386579128      0.45964410122247
  C   -0.42249917090914      0.24040081215681      0.07289164790224
  Cl  1.34692863046285     -1.82551700489123     -0.26475527593328
  H   -0.52071916069838      1.19197151266400      0.60434320652913
  H   1.06886283195601     -0.35894483888886      1.54047783922089
  N   1.96974275836728      0.78842028384401      0.04751471595888
  O   1.86365901428267      1.82398763325614      0.69851526907016
  O   2.75590840357149      0.57181618314960     -0.85728310718681
  C   -1.51984872849404     -0.70877670844851      0.54677051852043
  H   -1.44372562966323     -0.91653119320838      1.61823613230634
  H   -1.47441085065144     -1.65784921015167      0.00925849044923
  H   -2.49618506956971     -0.25645921052093      0.35793546366470
  N   -0.41208767853368      0.54559074361508     -1.34833440032862
  H   -1.19897145611365      1.13499431966840     -1.58623122827864
  H   -0.47800235918498     -0.30369945645318     -1.89698337311711
