15
Coordinates from ORCA-job run
  C   0.89461783688849      0.49700849665535      0.62250386710894
  C   -0.57547902459742      0.31091895033645      0.24429627762970
  Cl  1.26333034103535     -0.12324254888271      2.23085319970912
  H   -1.13128858413260      0.85527539257323      1.02463943387607
  H   1.16848886119642      1.55084842125568      0.60359188144480
  N   1.79274758935093     -0.14327200032063     -0.40201759183786
  O   2.39069143705658      0.63129847601856     -1.14178768108584
  O   1.83270718320552     -1.36688958955194     -0.43919537748818
  C   -1.05501212631282     -1.13174856142374      0.23136063557575
  H   -2.14044807245736     -1.14044635886083      0.09947553949749
  H   -0.59714072455706     -1.67757727623111     -0.59271694779107
  H   -0.82445475951575     -1.64513177521254      1.16391368651392
  N   -0.72400096302669      0.87746240635300     -1.09018618025354
  H   -0.67587288372463      1.88911967345394     -1.07147820840599
  H   -1.61788611040899      0.61337629383727     -1.48425253449333
