15
Coordinates from ORCA-job run
  C   0.97211957494546      0.55263045020400      0.00733752464596
  C   -0.50338349667739      0.23378900955580      0.20491329886481
  Cl  1.45082769237969      2.01374815280426      0.87829488010458
  H   -0.67421343840590      0.17032277790360      1.28913990335517
  H   1.20953834661535      0.68221589664790     -1.04611991372247
  N   1.79198692703914     -0.60660272057312      0.49563692416829
  O   1.74340889720858     -0.86581860282572      1.69244809254339
  O   2.38749581040443     -1.24734701198497     -0.36785896519365
  C   -0.84582727458815     -1.10084291476753     -0.44238646353860
  H   -0.31675000722492     -1.93052188364862      0.02797342844352
  H   -0.60706784527289     -1.08093954565395     -1.50799013980568
  H   -1.91620933432048     -1.29332292909746     -0.33375773226849
  N   -1.25365831926919      1.29558682989477     -0.45564229525807
  H   -2.22714710185096      1.02711938529707     -0.52758555670580
  H   -1.21112043098278      2.14998310624398      0.08659701436704
