15
Coordinates from ORCA-job run
  C   1.00137164904911     -0.35305387882480      0.28492254687549
  C   -0.41250032064767      0.20753514720820      0.16852493582790
  Cl  1.30680439614868     -1.68004084592181     -0.82895063597228
  H   -0.45320382939412      1.00131825265251      0.92079335060690
  H   1.21320108790669     -0.69967283554109      1.29614546820704
  N   1.96813970711478      0.79259350780858      0.04736722445547
  O   2.66183940405889      0.81590219759833     -0.95364039453567
  O   1.93053694014327      1.63787201939221      0.93705583679590
  C   -1.46204229875143     -0.84865485946611      0.50377275778782
  H   -1.47155817505675     -1.64224120623651     -0.24579116453347
  H   -2.45059620359089     -0.38389001329494      0.52061752735466
  H   -1.28407749290845     -1.30252994047434      1.48322503241561
  N   -0.54091464494869      0.84565880958969     -1.13131646805530
  H   -0.66269223230927      0.15161621798527     -1.85947601581923
  H   -1.34630798681414      1.45758742752480     -1.14325000141084
