15
Coordinates from ORCA-job run
  C   0.85226942263940      0.48674761811971      0.64595371064982
  C   -0.64589643485630      0.33798603456105      0.28286644837676
  Cl  1.19583110986485     -0.03315660524088      2.28993664597489
  H   -1.17816539405321      0.75493715349070      1.14425865518113
  H   1.17916881089068      1.51976480600332      0.53594266854950
  N   1.66868530646209     -0.29702578730456     -0.34975207552976
  O   1.80665577843001      0.27115505716680     -1.43395934572595
  O   2.06043833161404     -1.42003932679914     -0.06776195042034
  C   -1.03881749640446     -1.12204315155539      0.11673914666332
  H   -0.59158596485709     -1.54393215590564     -0.78757735295597
  H   -2.12203993431857     -1.18152623374757      0.01297714919071
  H   -0.72436882112873     -1.72918448709424      0.96609981543080
  N   -1.05064574966437      1.09037491977281     -0.88704341362769
  H   -0.53634727006398      0.78440394316384     -1.70452620306967
  H   -0.87518169455435      2.08053821536918     -0.76515389868757
