15
Coordinates from ORCA-job run
  C   0.92158146126044      0.50851209025066     -0.16883206669128
  C   -0.52479767101911      0.27167389228577      0.28670650268873
  Cl  1.53476548617056      2.07371003279296      0.37261830685778
  H   -0.52936304947599      0.39790374199287      1.37390941892684
  H   1.02431537509102      0.45552789236890     -1.25201229315983
  N   1.79336646983554     -0.58479477732427      0.37876442268350
  O   2.23872708896338     -1.38310493931056     -0.44323383135707
  O   1.93191625045891     -0.63491860801365      1.59525510150382
  C   -0.96275041620910     -1.14424526729127     -0.06425897937236
  H   -0.38619143641647     -1.89942467979857      0.47097946014094
  H   -2.01333162179654     -1.25355542299190      0.20546512657990
  H   -0.86038323311282     -1.33429570729179     -1.13731678846245
  N   -1.46270584171922      1.22179113220241     -0.27929874530751
  H   -1.49941843255378      1.13134463970970     -1.28825404136958
  H   -1.20573042947684      2.17387598041875     -0.05149159366140
