15
Coordinates from ORCA-job run
  C   1.01457820882987      0.53548399404729      0.19113750612922
  C   -0.48968189877946      0.27228860257135      0.26627853453663
  Cl  1.53838532121994      1.73692441904456      1.36277617727632
  H   -0.72127043520044      0.11328946778984      1.32347281456246
  H   1.31668390655832      0.86348535292331     -0.80219124009910
  N   1.74403870907096     -0.75560701634022      0.43576797611528
  O   2.31749036979121     -1.24679634959723     -0.53432584307404
  O   1.64443501847216     -1.25345609464320      1.55106024138139
  C   -0.87424621183553     -0.97188784884933     -0.53335845777499
  H   -0.56086249310201     -0.87499104868442     -1.57758683104615
  H   -1.96018171943700     -1.08431270357392     -0.51189357806654
  H   -0.43477513728025     -1.88525473908045     -0.12863135296508
  N   -1.15236932143390      1.49001049313988     -0.18128711438563
  H   -2.02451747914610      1.62470431062005      0.31060938972835
  H   -1.35670683772777      1.43511916063249     -1.17182822231815
