15
Coordinates from ORCA-job run
  C   0.97882284113628      0.52489357492606      0.12429174926897
  C   -0.51082463872898      0.22037828107374      0.20247042445097
  Cl  1.43324425816747      1.86435177655227      1.18359235453592
  H   -0.74376837252753      0.03483641403420      1.26090614999005
  H   1.27799125664116      0.76998013778134     -0.89234962234545
  N   1.74899789266835     -0.70189935365625      0.51789856089172
  O   1.62600362572697     -1.09738296618093      1.67146515547644
  O   2.38238175888531     -1.25259459047493     -0.38008488306590
  C   -0.83720307912361     -1.02231411284211     -0.61455638115584
  H   -0.35389406003795     -1.91338245227295     -0.21208151081498
  H   -1.91562795275826     -1.19881501212396     -0.59332307149809
  H   -0.53253675969137     -0.88649918461200     -1.65453723050206
  N   -1.20532855960708      1.36785944733723     -0.36897073303935
  H   -1.16755961256852      2.15659950137642      0.26541939874272
  H   -2.18069859818228      1.13598853908190     -0.51014036093510
