15
Coordinates from ORCA-job run
  C   0.95303362971660     -0.16385243460849      0.38757960849230
  C   -0.53061950935461      0.14343131765493      0.09306582905635
  Cl  1.58423461139248     -1.48606705573225     -0.58325904985674
  H   -0.76160790038705      1.00898521472623      0.72587102776313
  H   1.11281224133010     -0.39518747671655      1.43947820282879
  N   1.73162542821018      1.10379856897017      0.14276010170619
  O   1.73781218021484      1.87951721473303      1.09613101026705
  O   2.20177402967534      1.31286812652385     -0.96855938246865
  C   -1.40288849376074     -1.02481123030733      0.52750078333366
  H   -1.22044205594452     -1.90203185465173     -0.09691320735699
  H   -1.21595992156886     -1.29935172845535      1.56836779228068
  H   -2.44932815369115     -0.73949347556429      0.41828833071068
  N   -0.82973344434059      0.50193828903802     -1.27471314718271
  H   -0.31477282157306      1.32015473213469     -1.57496573876817
  H   -0.59793981991897     -0.25989820774496     -1.90063216080554
