16
Coordinates from ORCA-job run
  C   0.89868974559452     -0.24520378882040     -0.45761156904742
  C   -0.62162310466550      0.03177042007027     -0.44385298830099
  Br  1.37343788169739     -1.32661951430563     -2.03831629585958
  H   -0.93856983327550      0.24590361188755     -1.46467864380650
  C   1.59104704931799      1.03962704853233     -0.65410739898543
  N   2.15497762511911      2.06861895144235     -0.74199218155871
  N   1.30541758302814     -0.97664286301496      0.70323523153202
  H   0.91957799342099     -0.58384007957182      1.55329540697426
  H   2.31350299605576     -1.03717100010538      0.76863517165276
  C   -1.03220079972699      1.14834252489886      0.50135275951435
  H   -2.12071201565068      1.22631350475890      0.51503276260210
  H   -0.70202558812429      0.96767101496476      1.52375760962991
  H   -0.62374384690129      2.09780986142761      0.15379168420148
  N   -1.33078929273229     -1.23958028775590     -0.06633710332545
  O   -1.48891371045538     -1.45428576150222      1.13302306136188
  O   -1.69907268270196     -1.96371364290632     -0.98622750658468
