16
Coordinates from ORCA-job run
  C   0.92953303140157     -0.00383674521486     -0.27001593823139
  C   -0.60557894222435     -0.07869380713609     -0.34453007188404
  Br  1.47773663603386      1.08780588166177     -1.90646394955435
  H   -0.87275948398141     -0.51765649925835     -1.30754061963366
  C   1.40258891115696      0.77887739926577      0.86957247956719
  N   1.79783224555584      1.40979041824860      1.77900354232724
  N   1.48863565210970     -1.29304234984835     -0.24472135447601
  H   2.49705118074416     -1.28948985437382     -0.16664490218119
  H   1.18956482122901     -1.86584186266564     -1.02448873354668
  C   -1.33560667836657      1.22171139883356     -0.08584948676598
  H   -2.41255889274256      1.04586827531238     -0.12274650872750
  H   -1.08127168522137      1.61398181113247      0.89882992826307
  H   -1.07930980385855      1.95705593419430     -0.84760549082312
  N   -1.03061611265391     -1.10283023171675      0.67542088210777
  O   -1.39705277463711     -2.19290005756036      0.24347322120844
  O   -0.96818810454526     -0.77079971087460      1.85430700235020
