16
Coordinates from ORCA-job run
  C   0.94418889048758     -0.11696357530738     -0.31889081046751
  C   -0.58211462311106      0.04854023103168     -0.42965622021225
  Br  1.46627165080735     -1.50659706113390     -1.72064506005518
  H   -0.82024219419965      0.34731618381874     -1.45052812832822
  C   1.56543090432378      1.11749100865008     -0.79984986321783
  N   2.04215983425963      2.12969962332637     -1.16003216525687
  N   1.38970073425291     -0.40522833844979      0.98136093638058
  H   0.95117801915674     -1.24039233500041      1.34873462013986
  H   2.39783480040039     -0.45588191816976      1.04409047219906
  C   -1.13962179775677      1.02816117818833      0.59035869261333
  H   -0.95138133773660      0.67610552438515      1.60333152330377
  H   -2.21415502035058      1.14248094053781      0.43292718838228
  H   -0.66528636361186      2.00265565319131      0.46326606617855
  N   -1.27631199355728     -1.26872413301035     -0.24919850496919
  O   -0.96841965440005     -1.94036234135894      0.73506207334190
  O   -2.14023184896451     -1.55630064069895     -1.06933082003228
