16
Coordinates from ORCA-job run
  C   0.89122654140041     -0.24085902573144     -0.09249258277236
  C   -0.56563994115194      0.26810518225512     -0.06782647881243
  Br  1.04840402723231     -2.04072659458152      0.65690417588699
  H   -0.52471611669680      1.29456688267300     -0.44525379726129
  C   1.40095511591757     -0.32127813577710     -1.47010168009144
  N   1.87537280220303     -0.31642244884077     -2.54682401353417
  N   1.66879681820275      0.64798917470161      0.74898745677750
  H   2.60585100930054      0.27885880638890      0.86780060179744
  H   1.74213027867153      1.55532546587701      0.29630011504554
  C   -1.23185607271753      0.20366178214648      1.28747135870957
  H   -0.59343904728142      0.69135580833998      2.02316942103556
  H   -2.19293907578543      0.72023690665601      1.24456509762868
  H   -1.40557228960256     -0.82873756175942      1.58253915111659
  N   -1.37715010310880     -0.45962575437352     -1.10276644365337
  O   -1.43905954887397      0.06443842699139     -2.21452603895049
  O   -1.90436439770968     -1.51788891496572     -0.77194634292230
