16
Coordinates from ORCA-job run
  C   0.91060975071383     -0.17659060021403     -0.03995905544972
  C   -0.58140292282664      0.21174895215026     -0.11281200271425
  Br  1.18145692369875     -1.85989714735022      0.91870525766519
  H   -0.60699534280317      1.18863758757114     -0.60552625032908
  C   1.47233128163188     -0.37199433823000     -1.38539995338759
  N   1.97586516199285     -0.44713524947651     -2.44617914166218
  N   1.58665901468851      0.86303700204285      0.71150633832697
  H   1.60665789812532      1.71519401476952      0.15750302297204
  H   2.54413688586864      0.58664462555592      0.89912524097712
  C   -1.28826994081181      0.24700154105977      1.22289463625579
  H   -2.28398894017724      0.67676791398213      1.09572890838307
  H   -0.71550401086799      0.86402160469219      1.91420090456842
  H   -1.39218113910633     -0.75641289346283      1.62965100979442
  N   -1.29709168883993     -0.69195530351872     -1.07755085481459
  O   -1.74856011871970     -1.74688027330052     -0.64099838332533
  O   -1.36372281256697     -0.30218743627093     -2.24288967726027
