16
Coordinates from ORCA-job run
  C   0.94865228666789      0.01602483916896     -0.19180749164376
  C   -0.56862669589683     -0.15731286796122     -0.37932170925922
  Br  1.58504959437083      0.91673448294088     -1.91109542775461
  H   -0.72979995731810     -0.73005697989134     -1.29443708025820
  C   1.28309853954633      0.96659792860720      0.86626992446294
  N   1.56852052827267      1.73237882816194      1.71103421672578
  N   1.56386046295928     -1.22364796666340      0.05095165980108
  H   2.55997648139848     -1.15218866888685      0.21042134999592
  H   1.36002975857164     -1.91049104446148     -0.66460077066481
  C   -1.37924621706574      1.12064810312747     -0.35318794545760
  H   -1.23528070530940      1.64476935600513      0.59156496897040
  H   -2.43890903764476      0.87984045145684     -0.45966090177116
  H   -1.08797206811767      1.77007691218016     -1.17780871074561
  N   -1.03270569635540     -1.06628028903396      0.72907532759734
  O   -1.08744863084524     -0.58445297486929      1.85547405835669
  O   -1.30919864323399     -2.22164010988105      0.41612853164483
