16
Coordinates from ORCA-job run
  C   0.94381953233387     -0.01630467417367     -0.21458126223669
  C   -0.58510727877357     -0.07094638852984     -0.37991138625457
  Br  1.60241163742009      1.06481796014171     -1.81631703038222
  H   -0.80061520150542     -0.50641360456979     -1.35736356703414
  C   1.35901279242468      0.76225029358683      0.95018680036438
  N   1.70889273037274      1.39015402239563      1.88010651355692
  N   1.48296108126647     -1.31274209624772     -0.15460368862311
  H   2.48476527698620     -1.32325611372273     -0.01641251963380
  H   1.22178075998661     -1.88390793359959     -0.94889446860010
  C   -1.31174368780714      1.23927607852142     -0.16471146121790
  H   -1.11255621164783      1.62780122851781      0.83410366594809
  H   -2.38674919739661      1.07814036773018     -0.26755743668089
  H   -0.99943142629420      1.97115624024935     -0.90884345138524
  N   -1.08353317217244     -1.08877513558632      0.61256219897003
  O   -1.43831074180867     -2.17397935518548      0.15906662498319
  O   -1.08659689338477     -0.75727088952779      1.79317046822604
