16
Coordinates from ORCA-job run
  C   0.91745211439600     -0.01310768423513     -0.18785951662637
  C   -0.61540816909480      0.16599901990096     -0.19967933552048
  Br  1.34532078700543     -1.89627698353643      0.40948036635947
  H   -0.79962482364442      1.08015968202912     -0.77146412426188
  C   1.50556266093664      0.10504999726000     -1.52253320377665
  N   2.04951749650941      0.25877400493658     -2.55299849388610
  N   1.49048258969408      0.98135429102794      0.64868012959669
  H   1.25703405336839      0.82526595245513      1.62150707772444
  H   2.49819589452475      1.00949278524221      0.55017653360432
  C   -1.24085514059448      0.24484886051062      1.17467419586252
  H   -0.92848986140381      1.16768446414204      1.66528228782367
  H   -0.97496511569209     -0.61844341170273      1.78434950767903
  H   -2.32636178693688      0.26726836867794      1.08145174406672
  N   -1.24313486395913     -0.92747370570213     -1.02358404038658
  O   -1.00993179327756     -0.88573791230591     -2.22935808113553
  O   -1.92679404183152     -1.76785772870009     -0.44812504712327
