16
Coordinates from ORCA-job run
  C   0.94193584593686     -0.10998610846827     -0.32498740059299
  C   -0.58538319607225      0.05322288137559     -0.42754141519364
  Br  1.46204218696418     -1.47876441033972     -1.74615889431729
  H   -0.82815382502041      0.36513615464940     -1.44340213303285
  C   1.55851047155393      1.13313025029793     -0.78976286236725
  N   2.04875967777286      2.14537516725757     -1.13113834787534
  N   1.39249749248748     -0.41485054984174      0.97007137944510
  H   0.95790365035412     -1.25682010136061      1.32678924663038
  H   2.40105900467370     -0.46423093230584      1.02797529492942
  C   -1.14065941639877      1.01739766629517      0.60813791519527
  H   -0.94571501520802      0.65257756011642      1.61528398861898
  H   -0.67023852466057      1.99517380191985      0.49141005763601
  H   -2.21649570952288      1.13023263010322      0.45819170317280
  N   -1.27467688397961     -1.26856269335922     -0.26261173620449
  O   -0.97267676235827     -1.94369870652353      0.72152251298392
  O   -2.12870899652236     -1.55633260981624     -1.09277930902803
