16
Coordinates from ORCA-job run
  C   0.96603632098631     -0.20377886469701     -0.42627664066205
  C   -0.56849189278195      0.03255226039832     -0.44421131275228
  Br  1.34834319862855     -1.54955061727270     -1.83753044201671
  H   -0.86187842357200      0.36857276766541     -1.43939590847894
  C   1.58106530231858      1.04764794273615     -0.87348645550660
  N   2.03026913215765      2.08544344449487     -1.19416683627562
  N   1.57381280406269     -0.61814084834823      0.79326141150303
  H   1.77965826501388      0.15991945364325      1.40519205441975
  H   1.01830905852605     -1.32416719836695      1.25870068906004
  C   -1.01513653623666      1.00232326183516      0.63559893239075
  H   -2.09537272413515      1.14943680278332      0.57442131311776
  H   -0.53127504934742      1.97064535124197      0.49406899134306
  H   -0.77111212623547      0.61561439578023      1.62521316737939
  N   -1.29641459207891     -1.26157215859104     -0.24837202290502
  O   -2.14553856505174     -1.55994526806386     -1.08059917940967
  O   -1.01327417225443     -1.91600072523888      0.75558223879311
