16
Coordinates from ORCA-job run
  C   0.89797314341109     -0.11470807301162     -0.23986894529425
  C   -0.59422407567222      0.26797337422441     -0.14618383126138
  Br  1.08479130573807     -2.09225090674458      0.13599035739227
  H   -0.67368331505336      1.25559655479322     -0.60964220115826
  C   1.44011930967416      0.06889586117326     -1.58653336404343
  N   1.95602321494497      0.25899392874654     -2.62535154046522
  N   1.63844593476848      0.69667200941099      0.66033376334163
  H   2.63522498914600      0.60070489955649      0.50815853040791
  H   1.42670464901803      0.46814285936559      1.62374601561342
  C   -1.14396255972213      0.27837886581984      1.26232832896492
  H   -0.97367395173832     -0.67399942511297      1.76405953484613
  H   -2.21898236969028      0.45444195865499      1.23421910955793
  H   -0.68648179186503      1.09216508371633      1.82658964531089
  N   -1.40218681400397     -0.63473419783046     -1.04110957479238
  O   -1.21831288468796     -0.49090598512760     -2.24757516976389
  O   -2.16977478426755     -1.43536680763445     -0.51716065865630
