16
Coordinates from ORCA-job run
  C   0.95368202065062     -0.21738520442685     -0.24582134291221
  C   -0.52895721701033      0.23068834468439     -0.10946326307856
  Br  1.10417421563090     -2.13544712142933      0.15375047461524
  H   -0.56507686593087      1.25228523951614     -0.50138740252357
  C   1.42959417787596     -0.01730809227222     -1.61789509189655
  N   1.83543097738853      0.20545201379399     -2.69811931729173
  N   1.85906033898230      0.47516077249133      0.63559776649381
  H   1.61243434301642      0.33133423101800      1.60639629136909
  H   1.89017545688880      1.46548757099308      0.41830838313751
  C   -1.07916379600619      0.16534752385012      1.29820959287439
  H   -0.98413261135787     -0.83500940082217      1.71726722869928
  H   -2.13747762356310      0.42868932233766      1.28805259483402
  H   -0.56484077196205      0.88568466462223      1.93584158039167
  N   -1.39940865576143     -0.55284418438577     -1.05497533737127
  O   -1.36277018500833     -0.20650688305156     -2.23463059911626
  O   -2.06372380383335     -1.47562879691906     -0.59213155822485
