16
Coordinates from ORCA-job run
  C   0.94663283356823     -0.05718107221069     -0.19152284127131
  C   -0.57937228175459     -0.08459414171453     -0.38635000959192
  Br  1.66776340695571      0.88254809714608     -1.85545001318475
  H   -0.78681017378266     -0.59018044222177     -1.33123131035115
  C   1.36003789591070      0.79503302999974      0.92125077201180
  N   1.71061952568959      1.47811939676551      1.81116303773408
  N   1.44878958118530     -1.35896668745599     -0.02303895522614
  H   2.44623141068033     -1.38454239051252      0.14212004331632
  H   1.19185647347640     -1.98033428931959     -0.78027391853139
  C   -1.27397188891470      1.25670310458469     -0.29000283742487
  H   -2.35026411780118      1.11653024735801     -0.41077384380402
  H   -0.92165699771353      1.92189788090213     -1.07759192606768
  H   -1.08960196807953      1.71343022162462      0.68253873361819
  N   -1.12567723588761     -1.00833121644902      0.67119690330961
  O   -1.50106431215651     -2.11615924287074      0.29586907078619
  O   -1.14351215137594     -0.58497249562591      1.82209709467703
