16
Coordinates from ORCA-job run
  C   0.90795408565380     -0.23524424009105     -0.44421215479332
  C   -0.61663760518427      0.01626656626461     -0.45129916025863
  Br  1.41880012428916     -1.32805185735922     -2.00556976501199
  H   -0.92532406544041      0.21341459730243     -1.47807301955735
  C   1.58123393660567      1.05850070683947     -0.64833564919503
  N   2.12949006342019      2.09540430052485     -0.74261008052810
  N   1.31341774949090     -0.94605381382868      0.72996466416396
  H   0.91300457235370     -0.54846977931532      1.57102775414420
  H   2.32161558582556     -0.99013574437704      0.80611675609439
  C   -1.05701405741176      1.13673593903622      0.47589364077680
  H   -0.65940894183609      2.08876695900435      0.12290789756343
  H   -2.14672618805332      1.19716380698903      0.47476447268097
  H   -0.73738849721441      0.97244142576323      1.50437272195428
  N   -1.30929083880385     -1.26203542850500     -0.06707213625022
  O   -1.47740195722556     -1.46573336668841      1.13283388606165
  O   -1.65632396646932     -2.00197007155947     -0.98270982784503
