16
Coordinates from ORCA-job run
  C   0.89707933395460     -0.09311284219724     -0.44022370410364
  C   -0.62795952489911      0.09639201709499     -0.34997003704620
  Br  1.22043307971712     -1.34201898599796     -2.02225550047565
  H   -0.97950038901990      0.49651436008340     -1.30101351500163
  C   1.48180515523980      1.17767670698360     -0.86982694121865
  N   1.93070607218216      2.21732806555874     -1.18458848077481
  N   1.48697813717518     -0.51292260933881      0.76293738072354
  H   1.07708189347251     -1.37565630920639      1.09851891967868
  H   2.49413044396189     -0.57923617626490      0.69981394100166
  C   -1.03969512738779      0.97481222796487      0.82009209707525
  H   -0.56530451444424      1.95362796528808      0.73123778569355
  H   -0.73797479375937      0.52326199433318      1.76376992070750
  H   -2.12303187241746      1.11226692939392      0.80638621426312
  N   -1.32089997060048     -1.22726903121182     -0.21690095074200
  O   -0.92356511786318     -1.98595883689332      0.66748347865832
  O   -2.26828280531171     -1.43570547559033     -0.96546060843905
