16
Coordinates from ORCA-job run
  C   0.98130709125292      0.01243562660404     -0.34231285088010
  C   -0.55746225912219     -0.16655717452451     -0.37535040188659
  Br  1.46708515259283      0.61449028918217     -2.16991767009773
  H   -0.79774966464880     -0.81498184791461     -1.21951879039298
  C   1.38075450456378      1.08158947310019      0.57285453730914
  N   1.69727157219737      1.94225131754325      1.30782736856087
  N   1.73327561155209     -1.16791560189490     -0.04890969830811
  H   1.38498618558338     -1.97366444918333     -0.55411496205923
  H   1.76359134721598     -1.35342489509521      0.94637054227892
  C   -1.37101003435221      1.11055009422695     -0.37986079590183
  H   -2.43583906489994      0.86930138037139     -0.39835669895927
  H   -1.13554296383257      1.69884601118745     -1.26667081211126
  H   -1.15923830703856      1.70172511266878      0.51131064329345
  N   -0.90827029138570     -0.97923267564589      0.83710480316263
  O   -0.73766596245653     -0.44646751153737      1.93167708351626
  O   -1.30449291722186     -2.12794514908841      0.64786770247581
