16
Coordinates from ORCA-job run
  C   1.00698363499604     -0.01668554466351     -0.29464475594526
  C   -0.53515083853107     -0.03097362682636     -0.40814593489869
  Br  1.62206651062443      0.93901078911474     -1.91886488935470
  H   -0.79786787019143     -0.43052089733433     -1.38956040632531
  C   1.46083028318006      0.77071230668264      0.85244151831959
  N   1.81816148482582      1.41922022736445      1.76459407262655
  N   1.65131522910127     -1.29598597835304     -0.28122435031473
  H   1.31664342364039     -1.88957831185845     -1.03080218697316
  H   1.53353115538746     -1.74915577090974      0.61699657432095
  C   -1.22962648036035      1.29083781868760     -0.13499732951851
  H   -2.30762610167477      1.16800819935445     -0.25676883291446
  H   -1.02117367659155      1.62726249866684      0.88217790899985
  H   -0.88475316304131      2.04827388727359     -0.83847969016638
  N   -1.07155005941798     -1.03951140583295      0.56805294873543
  O   -1.97708429887575     -1.76690959270014      0.16987947534724
  O   -0.58669923307127     -1.04300459866580      1.69834587806158
