16
Coordinates from ORCA-job run
  C   0.94940967871985      0.03787434689537     -0.29480745223534
  C   -0.57661816520805     -0.05640478332949     -0.44331013795908
  Br  1.56767722832638      1.17965984928534     -1.77329757603344
  H   -0.78066288879148     -0.39541853836503     -1.46002106065593
  C   1.34595212000426      0.72687377618919      0.94184088017736
  N   1.69140764109681      1.25709102648169      1.93325799624238
  N   1.55151063889813     -1.26070428867515     -0.49123144498909
  H   1.40519496585415     -1.81795780799270      0.34465094773986
  H   2.54900833537064     -1.16311983611701     -0.64088602839311
  C   -1.34497627322400      1.20491990783921     -0.08892776084339
  H   -1.18550934243238      1.47041079965044      0.95835176496066
  H   -1.02134189635458      2.03436616440089     -0.71717398039725
  H   -2.40965390651064      1.03622562189208     -0.25591999895689
  N   -1.10368877483088     -1.15737504018787      0.43832098487821
  O   -0.48575467925299     -1.41828583638665      1.47083473684390
  O   -2.15195468166523     -1.67915536158031      0.07831812962115
