16
Coordinates from ORCA-job run
  C   0.96872483646572     -0.19534334815755     -0.41685219843440
  C   -0.56627826048336      0.03450585729158     -0.45288477379120
  Br  1.37595604680611     -1.52642194195066     -1.83582956307810
  H   -0.84897438466406      0.37550766649069     -1.44950522906531
  C   1.58755766211942      1.06172724817830     -0.84254159371792
  N   2.07333293564822      2.09259387712333     -1.13031708697155
  N   1.56099258940148     -0.61865003323272      0.80678268457171
  H   1.76284280727844      0.15422129933352      1.42648667986792
  H   1.00010483684743     -1.32765034515493      1.26101912127939
  C   -1.02987981159478      0.99505677695859      0.62790008967546
  H   -0.54995360206725      1.96692299879262      0.49736488030849
  H   -0.79389655009534      0.60363046748725      1.61748109635697
  H   -2.11025459721093      1.13654682975742      0.55686213657357
  N   -1.28956277119781     -1.26468051164914     -0.27467478311768
  O   -2.11237440675414     -1.57283003416522     -1.12941611799846
  O   -1.02833733049917     -1.91513680710311      0.73812465754112
