16
Coordinates from ORCA-job run
  C   0.93249188064444     -0.18174003267414     -0.32213233427264
  C   -0.58267931612076      0.06850081948877     -0.42688730867937
  Br  1.36019569000989     -1.64499797034820     -1.68023155514915
  H   -0.81298747598311      0.34617677435156     -1.45547975970153
  C   1.61992837539101      0.99797114511765     -0.84832724968231
  N   2.15146845163593      1.96819717497581     -1.24553813012095
  N   1.37232087090701     -0.45352200794302      0.98362645982624
  H   2.37619897419669     -0.56331919694554      1.03971139342319
  H   0.88806682126919     -1.24814261506106      1.38245055368342
  C   -1.07263808860495      1.11213061059994      0.56379301613382
  H   -2.14093854966503      1.28129556386698      0.41326383062759
  H   -0.54612735952819      2.05346778615759      0.39789578635022
  H   -0.89256647560286      0.78483860970130      1.58644592184325
  N   -1.34879041409747     -1.20022222496371     -0.19662644092384
  O   -2.22269367560966     -1.47623016411783     -1.00984599009739
  O   -1.08324970884213     -1.84340427220610      0.81888180673947
