16
Coordinates from ORCA-job run
  C   0.91388852987612     -0.16144535858122     -0.00074121491150
  C   -0.58250202552290      0.18655225381541     -0.14854366511055
  Br  1.18988094875405     -1.72829413280056      1.13711100840188
  H   -0.61334627895135      1.10443548267234     -0.74376001679265
  C   1.51300609860634     -0.48725828542003     -1.30425031237981
  N   2.05059473861786     -0.66848893057372     -2.33503347521046
  N   1.55250596507916      0.96535487946218      0.65143009133601
  H   2.51052915016253      0.72998023025385      0.88658022519355
  H   1.57000270196680      1.75431273929320      0.01043744879684
  C   -1.32226388225107      0.35151501468041      1.15936737978217
  H   -0.77885144800835      1.05286503593219      1.79140089305810
  H   -1.41685416275562     -0.60337548997805      1.67153809645673
  H   -2.32279000787679      0.74269288697708      0.96367130497151
  N   -1.25789955904660     -0.82985355093829     -1.02555735357949
  O   -1.70513376544405     -1.83876855305635     -0.48759951601772
  O   -1.29876700320614     -0.57122422173844     -2.22805089399460
