16
Coordinates from ORCA-job run
  C   0.89389280270020     -0.24366096633573     -0.05023543208782
  C   -0.56458612829109      0.25918531846989     -0.10355860269849
  Br  1.03429420683305     -1.98286618447387      0.83296549089050
  H   -0.51509203721130      1.25441673081112     -0.55619982044860
  C   1.44300093217105     -0.42153688646583     -1.40322353722846
  N   1.94801611001366     -0.49140396648792     -2.46366861246881
  N   1.64525037165393      0.70843602491675      0.74530747195001
  H   2.57885167146637      0.35217085743095      0.91841096376869
  H   1.73114536285693      1.57925628801860      0.22768715986702
  C   -1.26716632465076      0.29587100360184      1.23421476831848
  H   -1.43818758182141     -0.71096271015061      1.60844011239653
  H   -2.23223352775904      0.79464292003249      1.12332726915076
  H   -0.65469984230416      0.85056717851653      1.94402054952981
  N   -1.34541748044572     -0.54921852471500     -1.10117109623096
  O   -1.88344804413372     -1.57843182395968     -0.70285229736830
  O   -1.37362049107800     -0.11546525920954     -2.25246438734036
