16
Coordinates from ORCA-job run
  C   0.89594631479830     -0.18156155308904     -0.20433450139419
  C   -0.58066348828865      0.26696335405011     -0.19366012040030
  Br  0.99680804726566     -2.09284514532072      0.44751920886407
  H   -0.61356252190345      1.18242306586626     -0.79153422554064
  C   1.46388534768255     -0.20941758701322     -1.55258722194054
  N   2.00101676473892     -0.18603916729942     -2.59775168536605
  N   1.65626468224807      0.71875878552834      0.58814343816477
  H   1.42336077298700      0.63521828699220      1.56995850306556
  H   2.65035255814866      0.56623790636461      0.46870743961070
  C   -1.14877931121765      0.49594915694349      1.18878604855680
  H   -0.66539794594907      1.36189649074011      1.64312218388905
  H   -1.02568956280664     -0.38285314885364      1.82150873661319
  H   -2.21495991385498      0.70898470440200      1.11522668751444
  N   -1.41236701645214     -0.72055306702085     -0.96924931735483
  O   -2.22082463045931     -1.40796695962702     -0.35400679188878
  O   -1.20439009693727     -0.75619512266321     -2.17984838239328
