16
Coordinates from ORCA-job run
  C   0.92854111220173     -0.06317112072180     -0.26757761508773
  C   -0.60830313746642     -0.04571791878303     -0.34578936906540
  Br  1.54322291677416      0.97284692268043     -1.91891453806375
  H   -0.89915993826654     -0.47660199136312     -1.30555489405909
  C   1.44564211278661      0.70738962037468      0.86082853558029
  N   1.87487067907679      1.32992919959224      1.76075835628519
  N   1.40969061597976     -1.38176152146265     -0.22322142647949
  H   1.07163576515428     -1.95153182742712     -0.98873639312030
  H   2.41620798830591     -1.43968387893892     -0.14441886566938
  C   -1.25830995493010      1.29885429028317     -0.10043037560340
  H   -0.95405919464430      2.01129814413860     -0.86643794774612
  H   -2.34396303258245      1.18903657229942     -0.14085677398854
  H   -0.98451931970594      1.68216020349034      0.88256532849472
  N   -1.09657281645128     -1.03360967082642      0.68185697579279
  O   -1.51322575514422     -2.10913020123447      0.25841365201046
  O   -1.02969804108799     -0.69130682210136      1.85751535071976
