16
Coordinates from ORCA-job run
  C   0.89617429634444     -0.22608634104183     -0.08077520340501
  C   -0.57321471715301      0.24624107686819     -0.08537400919445
  Br  1.10784592971070     -1.94325823626588      0.83108927635396
  H   -0.56319075192540      1.23309668194320     -0.55843049712111
  C   1.39371989622835     -0.42218320425855     -1.45134708015382
  N   1.86021099086333     -0.50831229476495     -2.52817446397703
  N   1.65894310369660      0.75692231196489      0.66388351833146
  H   1.70339920063451      1.61961941587703      0.12785720292388
  H   2.60665920441723      0.42435478261189      0.80418622727667
  C   -1.22326615259742      0.29351536946804      1.27846000243442
  H   -0.59082842632772      0.86538062048886      1.95645936797971
  H   -1.36553575675984     -0.71039716574913      1.67215379627889
  H   -2.19847419102410      0.77835968447187      1.19941655320353
  N   -1.37627675227874     -0.59630904470775     -1.03645899026419
  O   -1.87593947354155     -1.62913505880870     -0.59949798734526
  O   -1.46122640028739     -0.18280859809717     -2.19244771332165
