16
Coordinates from ORCA-job run
  C   0.98409417038039     -0.15128037704526     -0.15004379190427
  C   -0.54242917663109      0.14262168419802     -0.18029657845947
  Br  1.29850977111768     -1.92377951475650      0.63809704228302
  H   -0.65518652414497      1.05500885818923     -0.77485375868608
  C   1.53470564703012     -0.17236929304156     -1.50864164528563
  N   2.00865612727288     -0.12329623010811     -2.58295274914053
  N   1.74965500344408      0.79935608815954      0.61515726645479
  H   1.70022265307856      1.72365331000895      0.20051488714308
  H   1.44970672638608      0.82490330602463      1.58117229368236
  C   -1.18125451185348      0.29599376886183      1.18234402522199
  H   -1.01558767597099     -0.58417053711120      1.80138500345274
  H   -0.78853869850642      1.18178572013661      1.68342286926818
  H   -2.25731240675488      0.43067477492729      1.06686630223444
  N   -1.25837108985288     -0.90793696905720     -0.98625843466414
  O   -1.16263865249193     -0.80779786444684     -2.20837773404914
  O   -1.86523136250314     -1.78436672493945     -0.37753499755135
