16
Coordinates from ORCA-job run
  C   0.96417959991684     -0.03425328282906     -0.24043622229578
  C   -0.57192061258724     -0.14194195622505     -0.39384486612004
  Br  1.67104436997880      1.12808239378346     -1.67054770244723
  H   -0.74844818350413     -0.84279717058754     -1.21669619762150
  C   1.27535265274413      0.65722513592844      1.02252438462879
  N   1.51726850655803      1.16591550047644      2.05555168673524
  N   1.60979726348889     -1.30567097415396     -0.42870146868273
  H   1.27999626684983     -1.95297408838213      0.27725750477376
  H   2.61543900097648     -1.20289990563569     -0.35905561537498
  C   -1.30900795452978      1.16760178012065     -0.58446094571134
  H   -1.03629588649229      1.61183095727326     -1.53846262607828
  H   -1.07406738470144      1.86866233901556      0.21896116032986
  H   -2.38189457695619      0.98869612388729     -0.57717723630542
  N   -1.12870889622068     -0.84992394097942      0.84389707048181
  O   -0.49079580205078     -1.80518506758626      1.28449430617991
  O   -2.19093836347047     -0.45236784410599      1.30469676750794
