16
Coordinates from ORCA-job run
  C   0.93600458559324     -0.11543503209316     -0.34168012747867
  C   -0.59283584001363      0.04810380693932     -0.41679428371367
  Br  1.42842829343948     -1.50024209759633     -1.75675022086985
  H   -0.85511980494922      0.34642634455357     -1.43186614130450
  C   1.54410664449002      1.12253556897583     -0.83075028676419
  N   2.01005455561420      2.13878248554046     -1.19314084491527
  N   1.41143866182332     -0.40656661464031      0.94811654628983
  H   0.98511963903817     -1.24598532119598      1.32058261660900
  H   2.42103862611344     -0.45538821845221      0.98572249233778
  C   -1.12719993731614      1.02658331396664      0.61645023091431
  H   -0.90944983724477      0.67682392255695      1.62428904398339
  H   -2.20623853928806      1.13587077925253      0.48846603579106
  H   -0.66123440294431      2.00323344736138      0.47475452598725
  N   -1.27902523074104     -1.27107034056352     -0.22114130168742
  O   -0.95774880266765     -1.93420812312359      0.76488466538555
  O   -2.14733861094709     -1.57046392148155     -1.03214295056446
