16
Coordinates from ORCA-job run
  C   0.96469298019763     -0.19700835693957     -0.43258199366203
  C   -0.56961936129311      0.04255484625782     -0.44310358150861
  Br  1.34299892691700     -1.51524328465093     -1.86962914830643
  H   -0.86424722092626      0.39744185526428     -1.43139326497193
  C   1.58232914239254      1.06185387357239     -0.85427548497837
  N   2.03451160776040      2.10537861158565     -1.15108209064412
  N   1.57309380276737     -0.63741025127012      0.77792275725927
  H   1.77685473341669      0.12796092293587      1.40654474770204
  H   1.01683947172900     -1.35252236765644      1.22846704285183
  C   -1.01186403988115      0.99286862935999      0.65555442204034
  H   -2.09194274409781      1.14331421738415      0.60002444604436
  H   -0.52636829397605      1.96266158476376      0.53077465928891
  H   -0.76657394692218      0.58708420768827      1.63707405296798
  N   -1.29812854887483     -1.25439012155899     -0.26999608365749
  O   -1.02596027294110     -1.91854674130291      0.73093543872077
  O   -2.13661623626814     -1.54599762543322     -1.11523591914652
