16
Coordinates from ORCA-job run
  C   0.93943702303423     -0.11181011744426     -0.33589895141872
  C   -0.58824790955279      0.05939203854846     -0.42005998072560
  Br  1.43806810133196     -1.47064144557960     -1.77405765699896
  H   -0.84073409552592      0.38112744467316     -1.43045414370440
  C   1.55500144894411      1.13295972728575     -0.79757627384869
  N   2.02437600669785      2.15400077926250     -1.14204982028547
  N   1.40273138905743     -0.42989166504163      0.95152269810893
  H   2.41153603202351     -0.48612275759206      0.99739483286929
  H   0.96693621044754     -1.27199519809756      1.30649755678709
  C   -1.12778692173894      1.01710486553145      0.62977204918791
  H   -0.92141590675473      0.64426308641207      1.63169332707910
  H   -2.20512602039431      1.13377035695230      0.49408045355100
  H   -0.65638826782458      1.99453348540520      0.51412717714021
  N   -1.28093849198469     -1.26097184813918     -0.25876019811295
  O   -0.97322662110110     -1.94422703526491      0.71800598541509
  O   -2.14222197665955     -1.54049171691169     -1.08423705504382
