16
Coordinates from ORCA-job run
  C   0.89752116851011     -0.23469725365035     -0.46445666936346
  C   -0.62385202417408      0.03591708162021     -0.44096166598955
  Br  1.37374886018024     -1.29021879342024     -2.05987769477765
  H   -0.94607546425814      0.26439160399234     -1.45707888889866
  C   1.58383027723240      1.05637186263284     -0.64149757173570
  N   2.12837947846772      2.09676423394202     -0.71615394889696
  N   1.30944821650734     -0.98438599964042      0.68450167724872
  H   0.94654198451950     -0.58666747849323      1.54269550241683
  H   2.31782651034322     -1.05829761709224      0.73269229556964
  C   -1.03539142756273      1.13631011830339      0.52278584761027
  H   -0.69791221460600      0.94329761550083      1.54054053904772
  H   -0.63550225417359      2.09317395940760      0.18597447999486
  H   -2.12424458904163      1.20656903232980      0.54485521656577
  N   -1.32529908286944     -1.24446038530737     -0.07984704657554
  O   -1.68278874783734     -1.96195931790195     -1.00932209862195
  O   -1.48823069123758     -1.47310866222322      1.11615002640567
