16
Coordinates from ORCA-job run
  C   0.89653992551663     -0.23323023218159     -0.47070727731223
  C   -0.62388053464044      0.04021886157753     -0.43681564486775
  Br  1.35824274797039     -1.27989963425940     -2.07888353788909
  H   -0.95003489809137      0.27908319532055     -1.44922731228215
  C   1.58358510584744      1.05729529592204     -0.64706352282918
  N   2.13046426953952      2.09653334263887     -0.72073684884057
  N   1.31601140826479     -0.98845770982367      0.67012824809659
  H   2.32481882739608     -1.04579337179996      0.72619194145933
  H   0.93479360881962     -0.61740722258436      1.53190644124440
  C   -1.02881917206008      1.13281393091580      0.53862510224825
  H   -0.62405810548569      2.09109445469083      0.21181284791068
  H   -0.69224086988704      0.92735603530221      1.55419388313387
  H   -2.11738345393647      1.20843643601065      0.56115392301247
  N   -1.32791877854298     -1.24108682073789     -0.08398765889744
  O   -1.70646168724792     -1.94174717620670     -1.01778214371593
  O   -1.47265839346249     -1.48620938478491      1.11119155952875
