16
Coordinates from ORCA-job run
  C   0.94083727048268     -0.11182830572456     -0.33337224352118
  C   -0.58729855372832      0.05318458155778     -0.42263856963666
  Br  1.44836388187422     -1.47883069552669     -1.75950261567514
  H   -0.83871560413311      0.36372878526808     -1.43678963659328
  C   1.55207453992985      1.13276488466469     -0.80091867250534
  N   2.01867137451646      2.15460718135290     -1.14710784535608
  N   1.40204170719814     -0.41853556874022      0.95776381650045
  H   2.41089199405863     -0.47235226137302      1.00562228616817
  H   0.96766465813439     -1.25896290498814      1.31823849358464
  C   -1.13272291581526      1.01901257046667      0.61668010332358
  H   -0.92475604815574      0.65808408069979      1.62258557350804
  H   -2.21058714102147      1.12832892859297      0.47921363712355
  H   -0.66665871064156      1.99767769929365      0.49054003025657
  N   -1.27576052388647     -1.26823713536182     -0.25007658809472
  O   -0.97162205435667     -1.93831133716978      0.73678531672597
  O   -2.13142387445580     -1.56033050301230     -1.07702308580857
