16
Coordinates from ORCA-job run
  C   0.95913263076264     -0.23668080593921     -0.19509688209430
  C   -0.53207587975888      0.20192948196302     -0.15316453491334
  Br  1.12714079993782     -2.06827279181519      0.49511080548178
  H   -0.57638100038273      1.14959118784980     -0.69978596822850
  C   1.45995912759840     -0.23867025623097     -1.57303784940907
  N   1.90245501440161     -0.17469507254198     -2.65986841925448
  N   1.83805676460518      0.59679218772230      0.58533432537428
  H   1.85886251180598      1.54333114765699      0.22107283169061
  H   1.57640814245576      0.59665883693558      1.56282781357396
  C   -1.10675902959487      0.34749332977331      1.23859434816577
  H   -1.00765558765416     -0.57432984250160      1.80934395908250
  H   -2.16765216394765      0.59094623667889      1.17052460281887
  H   -0.61237950293020      1.16518408332652      1.76486051087362
  N   -1.37230968104665     -0.73490031803401     -0.97891923902244
  O   -2.04053378437442     -1.57887395145828     -0.38873578298302
  O   -1.30626836187784     -0.58550345338516     -2.19806052115624
