16

C	-0.196997	0.097857	-1.507681
C	0.0	0.0	0.0
F	-1.409832	0.736532	-1.873951
H	1.104905	0.0	0.0
H	-0.312581	-0.912165	-1.932804
N	0.906254	0.846273	-2.031621
H	1.078913	0.61311	-2.999736
H	1.745337	0.639788	-1.461527
N	-0.600503	-1.241423	0.53079
H	-0.65104	-1.139234	1.539968
H	0.089904	-1.97269	0.382222
C	-0.549638	1.214855	0.712822
H	-0.176097	2.121467	0.235899
H	-0.220309	1.219872	1.757592
H	-1.643618	1.223987	0.683086
F	2.791806	0.0	0.0
