16

C	-0.523568	0.029191	-1.41461
C	0.0	0.0	0.0
F	-0.043016	-1.130623	-2.087353
H	1.100576	0.0	0.0
H	-0.103284	0.869784	-1.973542
N	-1.951391	0.051525	-1.456876
H	-2.269334	-0.174547	-2.391466
H	-2.258033	-0.673888	-0.815503
N	-0.539762	-1.235072	0.630664
H	-0.292997	-1.179006	1.614411
H	0.038314	-1.986382	0.262574
C	-0.473344	1.2156	0.776547
H	-0.191871	2.131994	0.249685
H	-1.557447	1.218687	0.929434
H	0.033942	1.238051	1.74701
F	2.739954	0.0	0.0
