16

C	-0.249997	-0.048757	-1.509012
C	0.0	0.0	0.0
F	-0.393821	1.263929	-2.005907
H	1.095419	0.0	0.0
H	-1.185453	-0.568342	-1.757327
N	0.855339	-0.670117	-2.187879
H	1.697798	-0.480816	-1.620124
H	0.705046	-1.671043	-2.161076
N	-0.394579	-1.32092	0.529864
H	0.32705	-1.612996	1.177823
H	-1.262537	-1.242584	1.049958
C	-0.624298	1.169045	0.730987
H	-1.722536	1.152327	0.663552
H	-0.346421	1.135505	1.789636
H	-0.275726	2.115814	0.316096
F	2.753011	0.0	0.0
