16

C	-0.249895	-0.100658	-1.504094
C	0.0	0.0	0.0
F	-0.313298	1.195146	-2.051812
H	1.097235	0.0	0.0
H	-1.209853	-0.578351	-1.738611
N	0.827455	-0.80219	-2.152774
H	1.678799	-0.579332	-1.611988
H	0.656679	-1.789116	-2.013757
N	-0.389638	-1.305687	0.575713
H	0.383312	-1.612738	1.154889
H	-1.198386	-1.19423	1.178361
C	-0.63127	1.187313	0.691008
H	-1.729519	1.154212	0.632281
H	-0.34579	1.199078	1.747936
H	-0.297405	2.11998	0.236004
F	2.748115	0.0	0.0
