16

C	-0.5615	-0.051197	-1.392833
C	0.0	0.0	0.0
F	-1.99137	-0.281302	-1.302163
H	1.094828	0.0	0.0
H	-0.180953	-0.933471	-1.907816
N	-0.326965	1.111548	-2.175261
H	-0.702711	1.923339	-1.70392
H	-0.79129	1.016834	-3.06975
N	-0.375441	-1.259434	0.661717
H	-1.258203	-1.162817	1.152162
H	0.353333	-1.452781	1.338029
C	-0.451975	1.238704	0.769819
H	-0.056786	1.173815	1.786827
H	-1.545777	1.326619	0.821145
H	-0.034322	2.152605	0.334648
F	2.702134	0.0	0.0
