16

C	-0.41183	-0.049096	-1.454047
C	0.0	0.0	0.0
F	-0.078192	-1.285967	-2.009713
H	1.096275	0.0	0.0
H	0.174289	0.684231	-2.025016
N	-1.84963	0.072485	-1.642724
H	-2.159185	0.932977	-1.207037
H	-2.047127	0.137964	-2.635294
N	-0.491148	-1.153882	0.761032
H	-1.345574	-1.493057	0.329085
H	0.208559	-1.879407	0.653891
C	-0.458482	1.297241	0.653523
H	0.04927	1.383984	1.615462
H	-0.179612	2.170299	0.05095
H	-1.540618	1.319179	0.842751
F	2.713079	0.0	0.0
