17

C	0.0	0.0	0.0
C	-0.54917	-0.180094	-1.430017
Cl	1.755215	0.0	0.0
H	-1.647492	-0.204347	-1.217001
N	-0.560642	1.148564	0.552502
H	-1.598852	0.936631	0.463817
H	-0.296249	1.218095	1.528209
N	-0.344731	-1.264471	0.886388
O	-0.481024	-1.039691	2.082414
O	-0.389606	-2.375	0.372883
C	-0.07972	-1.370024	-2.270743
H	-0.409748	-1.216128	-3.301262
H	-0.506636	-2.296163	-1.898752
H	1.00991	-1.455989	-2.273875
C	-0.237649	1.048504	-2.159227
N	0.007386	1.971687	-2.844629
F	-2.799013	0.0	0.0
