17

C	0.0	0.0	0.0
C	-0.211804	0.136026	-1.577551
Cl	1.797405	0.0	0.0
H	0.300058	1.092265	-1.761383
N	-0.605279	0.944764	0.81042
H	-1.665873	0.696106	0.620393
H	-0.369483	1.870817	0.465101
N	-0.444253	-1.391797	0.485491
O	-0.544054	-2.268435	-0.36408
O	-0.621653	-1.534787	1.682363
C	-1.591736	0.246715	-2.231261
H	-1.406001	0.284093	-3.315498
H	-2.219755	-0.597488	-1.972374
H	-2.113712	1.136119	-1.89254
C	0.564475	-0.846112	-2.353674
N	1.152494	-1.562275	-3.076414
F	-2.754357	0.0	0.0
