17

C	0.0	0.0	0.0
C	-0.429538	-0.090076	-1.494184
Cl	1.833074	0.0	0.0
H	0.4458	-0.452024	-2.040071
N	-0.563767	1.030483	0.701717
H	-1.628863	0.771229	0.544453
H	-0.311374	0.945084	1.679908
N	-0.232397	-1.410216	0.678164
O	-0.507178	-1.398314	1.87142
O	-0.055142	-2.410552	-0.00596
C	-0.813812	1.295505	-2.01787
H	-1.752439	1.571728	-1.544785
H	-0.042596	2.027331	-1.77382
H	-0.94646	1.24957	-3.102249
C	-1.485785	-1.048036	-1.846095
N	-2.166232	-1.821076	-2.413022
F	-2.683264	0.0	0.0
