15
Coordinates from ORCA-job run
  C   -0.58575434071147      0.53733143628308     -0.05405133778660
  C   0.89597640869367      0.17948867419864      0.02585237456851
  F   -0.74478963736221      1.88116671550273     -0.21113151594810
  H   1.29994004409639      0.70026872040384      0.89612514298901
  N   -1.24870947876218     -0.15605880921075     -1.06041089302138
  H   -1.08912323261425     -1.14912386548395     -0.94618742419400
  H   -2.24217305783924      0.03718828297090     -1.04463953842715
  N   -1.19085145629702      0.28317362020929      1.36806429574212
  O   -2.35446607686098     -0.10009021967625      1.40015672547182
  O   -0.48321392112624      0.53599654204636      2.33769839012633
  C   1.58162076278808      0.67637768283810     -1.17055910479843
  N   2.17964439987157      1.04227900597685     -2.11217428007734
  N   1.00195511738171     -1.26760396236294      0.19711329896474
  H   1.40292577992712     -1.70847833009179     -0.61998267933010
  H   1.57601868881505     -1.49291549360412      0.99712654572060
