15
Coordinates from ORCA-job run
  C   -0.59417782304818      0.07928366893514      0.31010351533307
  C   0.70121471402089     -0.15216516217336     -0.46680398477121
  F   -0.25027043140690      0.36343863369717      1.62415963206637
  H   0.42634426236452     -0.49492806861280     -1.46529920211375
  N   -1.38733130097564      1.04587114924165     -0.30075330496663
  H   -2.18594529920136      1.29009734385825      0.27081081607473
  H   -0.82358742540677      1.85007403139778     -0.54630773258212
  N   -1.42697621381334     -1.18920231893283      0.39756513445552
  O   -2.38053617155929     -1.13660071759635      1.16368704983462
  O   -1.11304954075542     -2.12715829061934     -0.32796599900552
  C   1.51882285449704     -1.18994906371367      0.18398345586330
  N   2.24724885774575     -1.95242255573243      0.70043396684218
  N   1.36836180662408      1.14054433106366     -0.57189360543315
  H   1.81164085816036      1.36938200288027      0.31052607481651
  H   2.08724085275426      1.10273501630687     -1.28324581641393
