15
Coordinates from ORCA-job run
  C   -0.64469382493763      0.45663981984625     -0.08215306884859
  C   0.87036134437127      0.28846720252339     -0.01131513913783
  F   -0.96834433594336      1.74832762011074     -0.36434801048906
  H   1.21876071486883      0.93140842487433      0.79932619961405
  N   -1.23791403711877     -0.40603976130971     -0.99958301155044
  H   -1.00810370861257     -1.36272142778473     -0.76184671608474
  H   -2.24393115250127     -0.29301772217553     -1.00673800816823
  N   -1.18091294690428      0.26786795850297      1.37699365340830
  O   -2.23305382678857     -0.34820774985397      1.49893347458554
  O   -0.53555434706005      0.78983301250318      2.27994577134556
  C   1.47217373427047      0.75188624667834     -1.26625736705200
  N   1.99601999082163      1.07293481073946     -2.26657314275350
  N   1.15153539006355     -1.11144085086339      0.29227357870488
  H   1.50875983151660     -1.59751686274995     -0.52004992717788
  H   1.83389717395415     -1.18842072104137      1.03339171360395
