15
Coordinates from ORCA-job run
  C   -0.64162072445465      0.35554208797819      0.13934553128068
  C   0.81838414003029      0.22418682156991     -0.29469249560191
  F   -0.66857201174558      1.43903441763706      0.99963817429288
  H   1.05101634324574      1.18625467449433     -0.78234455136034
  N   -1.54290813088792      0.44680235632719     -0.92296552402475
  H   -1.26946402009318      1.14391054275951     -1.60220468039813
  H   -2.48919893058562      0.61579989250884     -0.60529041056340
  N   -1.04214161687530     -0.85190057466101      0.98419808810772
  O   -0.78128485086601     -1.93990531828398      0.49494704485952
  O   -1.61608291331418     -0.62858503464390      2.04135285688163
  C   1.02676020968176     -0.81867841724747     -1.30011003624357
  N   1.30451749840367     -1.59664775662056     -2.13367364268350
  N   1.61527087330758     -0.03669715193815      0.89431425957021
  H   1.69087353200087      0.80859574146785      1.44571104908925
  H   2.54345060215254     -0.34871228134783      0.64177433679370
