15
Coordinates from ORCA-job run
  C   -0.60758714675587      0.42152198673709      0.08290014618444
  C   0.90844166439609      0.25372133106727      0.12111583094249
  F   -0.89884499173279      1.77420161479872      0.08704958663671
  H   1.27767319802960      0.84526947890259      0.96136128932045
  N   -1.18887695378107     -0.29443271234958     -0.96667408652108
  H   -2.17582880394183     -0.45569783933596     -0.81616573552936
  H   -1.01984279463445      0.16408958045286     -1.85333659458613
  N   -1.16140506290316     -0.08492936611933      1.41334749966110
  O   -2.13997637216492     -0.82125163365647      1.38250804719224
  O   -0.60386758002370      0.35195016694693      2.40984504514877
  C   1.45729131116160      0.80360240118971     -1.13442726242823
  N   1.88777191642402      1.18005122707921     -2.16078585295238
  N   1.18583154211948     -1.14511975843120      0.36036131066133
  H   0.91003671177097     -1.69718351320390     -0.44206470031493
  H   2.16718336203602     -1.29379296407792      0.55396547658460
