15
Coordinates from ORCA-job run
  C   -0.68360600009340      0.51930238802075      0.06523038966842
  C   0.83978237722281      0.26949537123696      0.00787550740430
  F   -0.87682682900286      1.86512120381733      0.04692029835087
  H   1.30008348013938      0.90286896435561      0.77416720896567
  N   -1.50616260195178     -0.08920385913141     -0.89125048837082
  H   -1.45462284801151     -1.09612386398776     -0.82246561271688
  H   -1.26561010287898      0.22743281498583     -1.82224096923566
  N   -1.09537842561844      0.02098391181145      1.45678888763624
  O   -0.55676641488260      0.61014854624344      2.38993806797415
  O   -1.87246824648760     -0.91931701313760      1.53539789697737
  C   1.31181854552616      0.69813585113711     -1.30784126789657
  N   1.65963608272960      1.00483515292950     -2.38653505268595
  N   1.06343487973007     -1.15808966196350      0.21758699842633
  H   1.74970983533326     -1.53007736729170     -0.42397710330358
  H   1.38697626824590     -1.32551243902599      1.16140523880609
