15
Coordinates from ORCA-job run
  C   -0.51987696410024      0.12903097753782      0.40334899787425
  C   0.81700723394549     -0.10312695247699     -0.31232369693788
  F   -0.36156863139487      0.16186028477937      1.73455639272012
  H   0.58291178458539     -0.19543119803973     -1.38382718051329
  N   -1.12126990142346      1.33567913602057     -0.03090236720921
  H   -1.85163435824841      1.61272044060263      0.61452994320268
  H   -1.50528501488285      1.22524881343972     -0.96139375735635
  N   -1.40997965624541     -1.09796846233670      0.09254688747447
  O   -1.71313673884473     -1.85442517282310      1.00168774318264
  O   -1.73430517193405     -1.18841902416584     -1.09066713427570
  C   1.39713774640601     -1.37982155693723      0.12179107508001
  N   1.87752878124785     -2.40209000127595      0.43984933182198
  N   1.70501080595335      0.99003072090820      0.04043341340970
  H   2.57977530068321      0.90424790908161     -0.46110235096615
  H   1.25768478425272      1.86346408568563     -0.20952729750727
