15
Coordinates from ORCA-job run
  C   -0.68243260396902      0.28556100181253      0.09638380331134
  C   0.85043454423209      0.34330050469116      0.08064709674563
  F   -1.13319633003692      1.59001703423405      0.31962008256650
  H   1.13884320639308      0.98533311572172      0.91901678111820
  N   -1.24823180444523     -0.33759424837821     -1.00444820502816
  H   -0.99401962818981      0.11543220721994     -1.87181254507458
  H   -2.25116945172101     -0.42489907293593     -0.91026568696785
  N   -1.13896068131533     -0.44439043569764      1.35263242277109
  O   -0.34815718608667     -0.50350933637518      2.28818337439981
  O   -2.29662088155190     -0.84461355253940      1.35456078856451
  C   1.24657282579583      1.02120485417661     -1.15765375117061
  N   1.54654348749385      1.52833514439078     -2.17330936123352
  N   1.40574002115089     -0.99646981539988      0.16424371870790
  H   2.10966078210205     -1.16205469732967     -0.53965651104413
  H   1.79499370014810     -1.15565270359087      1.08185799233388
