15
Coordinates from ORCA-job run
  C   -0.49570771429611      0.10886726428133      0.44989352933024
  C   0.71440845110273     -0.15802309722526     -0.47963055099183
  F   -0.01194706288209      0.45924035338724      1.66431416960272
  H   0.30985535556836     -0.48442242719713     -1.44237100261917
  N   -1.43913970625341      1.08181401335734      0.03831175290255
  H   -1.90248402134842      0.80957801424657     -0.81781255243365
  H   -1.01059890667678      1.99320897380915     -0.04781179486298
  N   -1.26377011140007     -1.19577919163985      0.58842796976670
  O   -1.79240129007263     -1.57155405289581     -0.45653373541265
  O   -1.28001603468555     -1.75344769979688      1.67263528802008
  C   1.51873971502750     -1.25728070353782      0.07189412572993
  N   2.15170133599164     -2.13233943797776      0.53155205819846
  N   1.55530537542290      0.99985027193096     -0.69279428174576
  H   1.85022078169396      1.40665538176407      0.18577587783447
  H   1.09583383280798      1.69463233749387     -1.26485085331913
