15
Coordinates from ORCA-job run
  C   -0.64269631666311      0.38381830393133      0.18675947774408
  C   0.82246451787142      0.31744316876994     -0.25601735206538
  F   -0.76277359031352      1.41827379542382      1.08495557381104
  H   0.99991356487398      1.30019075749437     -0.71040863748358
  N   -1.52964898713059      0.45926360950616     -0.89301463844983
  H   -2.48702121894339      0.53126645577886     -0.57050463158304
  H   -1.30507995106862      1.21917567537187     -1.52108469034301
  N   -1.05405103523199     -0.85437275785569      0.97430283574287
  O   -2.18640501677409     -0.82036505203948      1.43861265524466
  O   -0.25301575640864     -1.77891676107009      1.06524298377389
  C   1.00789142492635     -0.69392851714281     -1.31312305302238
  N   1.24634141622181     -1.46852141312805     -2.16305789247083
  N   1.71510387231101      0.20008429915622      0.87743850699262
  H   2.63128508640439      0.55267219733394      0.63660572035688
  H   1.79669198992499     -0.76708376153039      1.16029314175199
