15
Coordinates from ORCA-job run
  C   -0.70717358395244      0.37033734463239     -0.05549733124809
  C   0.81934757071159      0.42661065032266     -0.03447692020345
  F   -1.22057122806022      1.62811470529062     -0.18111201141141
  H   1.10533068538475      1.12952878289051      0.75497176592373
  N   -1.19468716459813     -0.46965826539245     -1.04427460793455
  H   -2.18820200854786     -0.63357306159346     -0.94703118902468
  H   -0.66841417014264     -1.33473122339374     -1.05221785562098
  N   -1.18461785813127     -0.03884099159980      1.37643457331132
  O   -2.33779434492739     -0.44543132808105      1.45129885321320
  O   -0.40465144746316      0.10597480786974      2.31546298741638
  C   1.28520672740434      0.96191125445380     -1.31526761292306
  N   1.71620475708592      1.37820943347785     -2.32415508154459
  N   1.32189271186033     -0.93083871573501      0.17214628087152
  H   1.43932733681815     -1.09145043618546      1.16497260428430
  H   2.21680201655803     -1.05716295695661     -0.28225445510964
