15
Coordinates from ORCA-job run
  C   -0.68912111160769      0.33095461318268      0.10839817575159
  C   0.80897295655476      0.38284182073256     -0.20846712207061
  F   -0.98167243871702      1.39460918968901      0.92899689510126
  H   0.93428455779805      1.35163257915209     -0.70796482694026
  N   -1.48117090979272      0.26301685111933     -1.04349903789216
  H   -2.46563886759916      0.25324150219226     -0.80569005372152
  H   -1.27765178012023      1.01191725641909     -1.69179004202205
  N   -1.05243047987658     -0.89833139229129      0.93336916857285
  O   -2.22097439842207     -0.95193310841335      1.29518639804914
  O   -0.17955460812249     -1.73185314278236      1.15233418061680
  C   1.17743786970134     -0.66363101712723     -1.18036735413436
  N   1.56341119940599     -1.47274301301106     -1.93910539877775
  N   1.60729813975079      0.41422730521039      0.99841382127995
  H   2.50485979820414      0.83980065788931      0.81136691036056
  H   1.75195007284288     -0.52375010196141      1.34681828582657
