15
Coordinates from ORCA-job run
  C   -0.55984615064249      0.34553867376854      0.16072236778329
  C   0.87900180906990      0.25807912921492     -0.37902551036369
  F   -0.54257045781987      1.31234006667530      1.16774181095253
  H   1.01195483726714      1.19940525650339     -0.92967314376504
  N   -1.49866171591729      0.57236299116436     -0.83913802254779
  H   -1.28268997670493      1.38309125546995     -1.40174129845758
  H   -2.44224552017914      0.60918812771026     -0.47554000495377
  N   -0.99726216664388     -0.91269655508000      0.89978660721999
  O   -2.17723569183814     -0.94557330454337      1.22803614565840
  O   -0.15030535686704     -1.76700180756440      1.14096403562530
  C   0.97859161199225     -0.83049445449417     -1.35761763666812
  N   1.07436031280107     -1.69024685162791     -2.15004550203057
  N   1.94753978862133      0.17928889326235      0.59068595942768
  H   1.86819294776504     -0.67845556808319      1.12044792266737
  H   1.88917572909605      0.96517414762398      1.22539626945200
