15
Coordinates from ORCA-job run
  C   -0.66121208535976      0.33483577385678      0.07400108894269
  C   0.86336336840510      0.38641379781769      0.08064286901733
  F   -1.14323658555952      1.62995288468464      0.00547609369886
  H   1.16024170057606      1.07539768071039      0.87400478332121
  N   -1.15340305272802     -0.52080862929276     -0.91508882147317
  H   -1.07108576866412     -0.09737551736332     -1.83103848505299
  H   -2.10356424224700     -0.81177047619852     -0.72697807716438
  N   -1.11190911033823     -0.16074479512870      1.44667679933409
  O   -0.60419948535782      0.41221097207018      2.39992740354918
  O   -1.97530223145485     -1.02890209656846      1.48664906802823
  C   1.30638560585066      0.93079884671003     -1.21858957535103
  N   1.67843824335087      1.30361364918219     -2.26876723475000
  N   1.34280199530509     -0.94128822844542      0.39385662157195
  H   2.33898826820233     -0.93657610093438      0.56792224836930
  H   1.13369338001919     -1.57575776110033     -0.36669478204127
