15
Coordinates from ORCA-job run
  C   -0.63765142747413      0.34388028211547      0.16100799850317
  C   0.81241249162308      0.23185598164078     -0.30890829442570
  F   -0.65332359941499      1.41838578390719      1.03312606940340
  H   1.01680076547043      1.19614324826877     -0.80449798568687
  N   -1.56590801789259      0.43936467893154     -0.87906980303943
  H   -2.50433505734687      0.59310383542500     -0.53057572763152
  H   -1.31908080397990      1.15535652982845     -1.54912838937755
  N   -1.02386949516578     -0.87024845725369      0.99842680698642
  O   -1.71185801890544     -0.65686820816577      1.98845309914740
  O   -0.65599796514213     -1.95286890331450      0.56987526052594
  C   1.00809517754997     -0.80647311198287     -1.32140918751985
  N   1.26181810554621     -1.57136764902231     -2.17445557598346
  N   1.64657106778030     -0.00760251631942      0.85888165277400
  H   2.55098680731996     -0.36835157557081      0.58695790971172
  H   1.77533997003188      0.85569008151217      1.37031616661233
