15
Coordinates from ORCA-job run
  C   -0.71176195086217      0.43423363032504      0.06905065484341
  C   0.82020864769998      0.40645901027749      0.05213059162940
  F   -1.08758428682564      1.75766287065450      0.09824479905810
  H   1.15121552019298      1.06082812376342      0.86152007871013
  N   -1.35960329471447     -0.27546971848371     -0.93097944654068
  H   -0.86079425961968     -0.39060338009378     -1.79713217043843
  H   -1.88205423515521     -1.07615135433358     -0.61547218591001
  N   -1.12457409629336     -0.12090882958088      1.44131675651667
  O   -0.69407598313591      0.50479996994473      2.39909884446032
  O   -1.83892256255741     -1.11474132865297      1.47830027018164
  C   1.28631828618502      0.95531521753880     -1.23379614215436
  N   1.65973737757907      1.30197221667727     -2.29265080841759
  N   1.25645667542155     -0.94746078035687      0.33182008631797
  H   1.16009031200357     -1.53817552045687     -0.48429356945966
  H   2.22534385008166     -0.95876012722261      0.62184224120309
