15
Coordinates from ORCA-job run
  C   -0.53771931756921      0.11228736614933      0.38588092745935
  C   0.82948538132923     -0.09288928950279     -0.27891587684872
  F   -0.44205350781660      0.06874226116035      1.72267546685498
  H   0.64576483302098     -0.12123319296198     -1.36371466122739
  N   -1.10894565917483      1.34714038447135     -0.00764283660974
  H   -1.86873991285460      1.59394474300454      0.61571416675859
  H   -1.44745251858447      1.29225256984908     -0.96051966782585
  N   -1.42148602322423     -1.08652236612608     -0.03474262671342
  O   -1.77393047494982     -1.88877666769061      0.81546587007057
  O   -1.69162481175088     -1.10649317637842     -1.23480808774237
  C   1.37819788476196     -1.39831272620216      0.10754610432417
  N   1.83411594054497     -2.44246095755726      0.38855208974117
  N   1.70870870446639      0.96887469124733      0.17725940471542
  H   2.60914180187410      0.89535193122636     -0.27872924305276
  H   1.28653767992701      1.86009442931097     -0.05302102990400
