15
Coordinates from ORCA-job run
  C   -0.62272239270275      0.05609012703358      0.42353667738403
  C   0.69017042735922     -0.01238852358216     -0.37990841906564
  F   -0.28613062481798      0.01664033002242      1.73776360806732
  H   0.41145489004084     -0.02385988254601     -1.43668244965800
  N   -1.44643323985470      1.16950758450610      0.16590400637230
  H   -1.97405023223382      1.03012549812262     -0.68556224311273
  H   -0.86058559760528      1.99303794157711      0.08396849250559
  N   -1.42449395239653     -1.19854250088612      0.10629386030778
  O   -1.84180900490923     -1.25528260605646     -1.04890691650023
  O   -1.56120721609873     -2.03466908424167      0.98395549606457
  C   1.42934602527417     -1.25050862697949     -0.07703934368154
  N   2.06149914438399     -2.20923889363774      0.17081955749532
  N   1.42053869927990      1.21254246820792     -0.09437752634738
  H   1.84572005765381      1.15359820203760      0.82369896398185
  H   2.15670301662707      1.35194796642229     -0.77446376381323
