15
Coordinates from ORCA-job run
  C   -0.64499185156705      0.37470633927977      0.19977179279117
  C   0.80980992367691      0.33258790131827     -0.27860452134358
  F   -0.76186410242449      1.41063546505508      1.09641824245173
  H   0.95801439342221      1.31580595604783     -0.74241080930788
  N   -1.55872128176263      0.42931007871159     -0.85880774576373
  H   -1.36496927245569      1.19300369082679     -1.49259706314970
  H   -2.50963651126825      0.48169828620740     -0.51419347523150
  N   -1.01508173369680     -0.86724292716335      1.00219628279116
  O   -0.19435914011882     -1.77533155298545      1.08181301871328
  O   -2.13792315292753     -0.85240324253452      1.49025058711993
  C   0.98762022456109     -0.68213872162769     -1.33417657717481
  N   1.22531464299864     -1.47389231270002     -2.16842525097854
  N   1.73252968713285      0.23675057136836      0.83229717960380
  H   1.83808134720319     -0.72752144096820      1.11724505508461
  H   2.63617682722638      0.60403190916415      0.56722328439405
