15
Coordinates from ORCA-job run
  C   -0.61630798277322      0.16922764234176      0.40275962121912
  C   0.68412875352998     -0.11392503112494     -0.37366893503119
  F   -0.25809968206531      0.49637164872077      1.67035538560850
  H   0.38860977719523     -0.41592711316566     -1.38174412586880
  N   -1.45369096812945      1.16501533329682     -0.13777765134733
  H   -1.99142525037083      0.79385127819011     -0.91012736885953
  H   -0.87639148756568      1.93713822893545     -0.45208009069190
  N   -1.41236200168836     -1.12693212547205      0.45906630203482
  O   -1.52565963594533     -1.68953912638727      1.53554554101406
  O   -1.84931159693089     -1.50152314436769     -0.62752776855210
  C   1.43651760902320     -1.21996634020523      0.24417795383780
  N   2.07879825739175     -2.07266723518211      0.73469760516912
  N   1.41008119503768      1.14380436777574     -0.44901590937967
  H   2.13236596368061      1.09359389973359     -1.15597390693582
  H   1.85174704961063      1.34147771691070      0.44131334778293
