15
Coordinates from ORCA-job run
  C   -0.53280613458342      0.12389605688022      0.38767401332303
  C   0.82565581173002     -0.11105045870352     -0.28543465004529
  F   -0.42836429797789      0.08269864323207      1.72424964058971
  H   0.63355679508183     -0.14385862087730     -1.36878319305083
  N   -1.08188481776672      1.36874494947248     -0.00557197693213
  H   -1.82984648452723      1.63392480539879      0.62469347056967
  H   -1.43245868289819      1.31639040713000     -0.95445396242466
  N   -1.44384764969620     -1.05854413730443     -0.02271615827836
  O   -1.72617489434690     -1.07540697024937     -1.21987693411042
  O   -1.80267204509777     -1.85342794372340      0.83179662302747
  C   1.35257370773746     -1.42347974618720      0.10791649416229
  N   1.79134783885803     -2.47194757361092      0.39984204492082
  N   1.72736375425970      0.93687482941889      0.15787727406613
  H   2.62488121438171      0.84164020748628     -0.30001957436350
  H   1.32167588484559      1.83454555163740     -0.07719311145392
