15
Coordinates from ORCA-job run
  C   -0.47219759460467      0.48535218628009      0.09954797283404
  C   1.00826239940262      0.11777896736303     -0.08018519225828
  F   -0.57812707020083      1.86936578703814      0.09131130710262
  H   1.57594260464955      0.70915459439974      0.64106265692959
  N   -1.30242042989291     -0.17150287726845     -0.80729349540422
  H   -1.11164005761426      0.11972315717074     -1.75825764413891
  H   -2.28057682678907     -0.05192414007151     -0.57762643958673
  N   -0.92398174404679      0.11405281952054      1.51157997028413
  O   -0.06577173565013      0.12586450672557      2.38818091415978
  O   -2.12114839160622     -0.09336595227297      1.67160209246539
  C   1.38212687938879      0.54912783058953     -1.43607655177823
  N   1.61761440572187      0.87600653132822     -2.53851527567532
  N   1.32056760563407     -1.28057489862234      0.10227250797623
  H   0.65042909441344     -1.85622656586945     -0.39289074811800
  H   1.30192086119455     -1.51183194631089      1.08628792520791
