15
Coordinates from ORCA-job run
  C   -0.68826530633000      0.33363617781321      0.10511052704001
  C   0.81323682548187      0.37916402702830     -0.19551690443448
  F   -0.98260934867457      1.39297782992798      0.93087275967236
  H   0.95004842056538      1.35258299726520     -0.68290263126816
  N   -1.46920650779693      0.27924283285293     -1.05493420822033
  H   -1.25168251345670      1.02843003649766     -1.69825436016537
  H   -2.45610930047864      0.27745709091615     -0.82736646492562
  N   -1.06714218425637     -0.89961036715202      0.91676863354398
  O   -2.23743804125842     -0.94483584500876      1.27376376506912
  O   -0.20380864464417     -1.74477015987703      1.12872993984932
  C   1.18609468032458     -0.65749905658871     -1.17616196981966
  N   1.57492803008352     -1.45183437388725     -1.94890511934469
  N   1.59818381961439      0.39162492235644      1.02036542388608
  H   2.49956043244165      0.81574788876870      0.84914573409645
  H   1.73520963838442     -0.55131400091280      1.35828487502100
