15
Coordinates from ORCA-job run
  C   -0.69606965674764      0.48072482309007      0.20233359617878
  C   0.79039773520916      0.36474413464725     -0.21245771331905
  F   -0.83306206005022      1.63241788839249      0.88987477823886
  H   1.05375258571202      1.37852588020645     -0.53387434300052
  N   -1.69301545935431      0.42929808163690     -0.80349005453861
  H   -1.70150980690996      1.28459166247951     -1.34363625785137
  H   -1.58024508010058     -0.37426525815478     -1.40802729456111
  N   -0.99067277230579     -0.67157913026645      1.15431988478920
  O   -0.70902648618729     -1.77544019314326      0.68961835292552
  O   -1.48492596480764     -0.42739758727964      2.23913491424126
  C   0.94710111597011     -0.51985240873044     -1.38031684571560
  N   1.10118995751353     -1.21461790600714     -2.31504892523505
  N   1.60572537825036      0.02477221543954      0.93592951758099
  H   1.64096740546505     -0.97924946361471      1.06373286722198
  H   2.54939310834320      0.36932726130422      0.82390752304471
