15
Coordinates from ORCA-job run
  C   -0.60926898414539      0.47614531132017      0.12265200103177
  C   0.86585897530586      0.29624796584078     -0.24960149218704
  F   -0.69276154305481      1.53308572335677      0.97079865969418
  H   1.15542923684249      1.28060455774548     -0.64824622297175
  N   -1.43238125741139      0.70827764869496     -0.99323408617829
  H   -2.36129554376711      0.98548838499030     -0.69862705697779
  H   -1.48637973385945     -0.11358202001207     -1.58202655081136
  N   -1.03453642382653     -0.75955987677452      0.94702305807710
  O   -1.21368544355805     -0.63742904239798      2.14808797087126
  O   -1.15815142022913     -1.77848842038876      0.27468027059537
  C   1.02662087488131     -0.67734485053086     -1.33184429785081
  N   1.20505436347453     -1.43578933076837     -2.20948430321975
  N   1.59497026042993     -0.13636367870639      0.93063969163028
  H   2.55675005496345     -0.34565465416569      0.69609713742310
  H   1.58577658395427      0.60336228179617      1.62308522087373
