15
Coordinates from ORCA-job run
  C   -0.54103630559745      0.01084247303142      0.52697410321483
  C   0.62042937061800      0.02870469683582     -0.48542430255717
  F   0.00520470140877     -0.19353546052655      1.75272336821173
  H   0.17287908079284      0.15229071549050     -1.47498366570285
  N   -1.36141089339773      1.15613965977469      0.54600450281000
  H   -2.02203545307040      1.13048939511711     -0.21969540387917
  H   -0.77120727179426      1.97727837456353      0.47158819977636
  N   -1.42194358380882     -1.18607323593491      0.19924565158943
  O   -2.02464162132487     -1.09500131173490     -0.86864642660972
  O   -1.43757357231908     -2.12351950762381      0.97966416175959
  C   1.35652922114900     -1.24736164763240     -0.46520136568837
  N   1.96232848241684     -2.25390468456529     -0.47369007816698
  N   1.42530373081170      1.20049369321495     -0.17923481437394
  H   1.99306462371473      1.02498338514757      0.64147348696564
  H   2.04310949040071      1.41717345484226     -0.95079741734938
