15
Coordinates from ORCA-job run
  C   -0.49137485195645      0.10504107684699      0.33118196956592
  C   0.84151821696531     -0.04218797480138     -0.42888667137054
  F   -0.25575046648649      0.22878568069752      1.65543958423735
  H   0.59592116399220     -0.12308429946569     -1.49279263616900
  N   -1.20974772811539      1.23725043070394     -0.11841818511069
  H   -1.58751455744935      1.07273343316075     -1.04338310139113
  H   -1.96090833759271      1.45729787611841      0.52548994829559
  N   -1.28773260082386     -1.19876869161077      0.13995523110094
  O   -1.62169153975445     -1.39663366008931     -1.02791454534151
  O   -1.51408054737501     -1.91143519698420      1.10551888573952
  C   1.49803359493251     -1.28959938135924     -0.02032203420958
  N   2.01354330107403     -2.28452151613517      0.32800795280475
  N   1.73686944803611      1.07752642297707     -0.22920277956896
  H   1.24728129305444      1.93086088676853     -0.47354689553712
  H   1.99663361149910      1.13573491317254      0.74887327695446
