15
Coordinates from ORCA-job run
  C   -0.54146232198593      0.14117413510986      0.37046819871925
  C   0.83192998505581     -0.09218598411912     -0.27264796455626
  F   -0.43777430031750      0.30248477279701      1.69763537494309
  H   0.64442962730644     -0.29379257343473     -1.33841289775524
  N   -1.17711727100569      1.27342917921295     -0.19567953796909
  H   -1.94017114784912      1.57680886554432      0.39772846793750
  H   -1.52449157538256      1.05723013220169     -1.12189318103131
  N   -1.36303050622576     -1.15018768816746      0.14295097955243
  O   -1.64700530285657     -1.35643086757815     -1.03621385434007
  O   -1.65486199259436     -1.84258071077644      1.10548596515428
  C   1.44946951667791     -1.29401871103281      0.30084716453720
  N   1.95921114009541     -2.25778160678767      0.73474607129791
  N   1.65588706184658      1.06989675109966      0.00687879264204
  H   2.55801607913805      0.97395424659549     -0.44166161075224
  H   1.18697100809728      1.89300005933540     -0.35123196837949
