15
Coordinates from ORCA-job run
  C   -0.55416541520454      0.48299259207155      0.13245139486101
  C   0.91375865542002      0.34706963040797     -0.31178619581981
  F   -0.62835960741699      1.54623625568273      0.97612259668396
  H   1.14988397652841      1.35053038949197     -0.68471527111974
  N   -1.44613548680480      0.67328953342588     -0.93168858495737
  H   -2.39289451269639      0.83020366617619     -0.60843303294095
  H   -1.40890601231680     -0.07340255569311     -1.61328891695249
  N   -0.93922940365372     -0.73292423313049      1.00673447414699
  O   -1.65582426510221     -0.53839316239333      1.97875622042341
  O   -0.54623641419636     -1.81997651149030      0.58805774542286
  C   1.03878288402298     -0.57156589750215     -1.44712940866797
  N   1.11313837074887     -1.27400262571728     -2.38428636121200
  N   1.85778349499034      0.01743784283703      0.73015153010121
  H   1.70554624288467     -0.91969500299310      1.07948718722828
  H   1.79385749279652      0.68320007882645      1.48956662280260
