15
Coordinates from ORCA-job run
  C   -0.60381656387990      0.07846781318480      0.29080993112909
  C   0.71677106406952     -0.15677991973797     -0.44112652832173
  F   -0.30118990445261      0.45775020494122      1.59100814484126
  H   0.47730450744460     -0.57187225058097     -1.42111386853727
  N   -1.41409308778064      0.97572155711494     -0.39831206022528
  H   -2.23433766076665      1.22692622091665      0.13859873840202
  H   -0.87213450934684      1.78243881076270     -0.68169505856071
  N   -1.39520981464983     -1.21047074889012      0.44209579747253
  O   -2.36823145891908     -1.14242903145233      1.18219044804888
  O   -1.03105009189523     -2.18197538248321     -0.21235987614183
  C   1.55314614602229     -1.12119075604200      0.29303228622740
  N   2.29309448913094     -1.82356846739990      0.87433825416158
  N   1.34262574578732      1.14926320265298     -0.61520351452330
  H   2.08171042431244      1.08982123695365     -1.30427241583173
  H   1.75441071492366      1.44989751005956      0.26100972185908
