15
Coordinates from ORCA-job run
  C   -0.57805692172092      0.41150560464235      0.11090859215000
  C   0.91499416645134      0.37274148084259     -0.26479266010185
  F   -0.74997998298995      1.37550039289112      1.06583549323041
  H   1.06478607066320      1.33057996932958     -0.77645589112841
  N   -1.40521255849297      0.68906568389338     -0.97989113155323
  H   -2.38299816879330      0.64548357639690     -0.71909584797731
  H   -1.21744695557173      0.09167337696182     -1.77458596680478
  N   -1.01600624152327     -0.87798433729990      0.85679650708693
  O   -0.16939430026708     -1.72714910617621      1.12486628120936
  O   -2.21157955215041     -0.93915414590956      1.11992337667041
  C   1.13084810019443     -0.68591998479895     -1.25836729841511
  N   1.24787384762977     -1.51189100184169     -2.08410282076241
  N   1.87172900710824      0.29291484904926      0.81259999416733
  H   1.73515778432483     -0.55706753682549      1.34233263157252
  H   1.76428570513781      1.09170117884479      1.42402874065613
