15
Coordinates from ORCA-job run
  C   -0.59991532874325      0.30226467716179      0.08937094545519
  C   0.88734590537697      0.31754709902274     -0.30685715280727
  F   -0.76153773898128      1.30819056160981      1.04365884181617
  H   0.99573903992106      1.24266413470717     -0.88955135679921
  N   -1.45105994700901      0.40368259879868     -1.00455921025762
  H   -1.24916861268269      1.20454845374580     -1.58592003084744
  H   -2.42581329572780      0.37037475721041     -0.73592350646607
  N   -1.00257398628095     -0.95689369399771      0.84669704467941
  O   -0.11545364646360     -1.72206605834355      1.21118057751749
  O   -2.20244810690612     -1.07907201001457      1.06250337115376
  C   1.17312254916429     -0.79866714446120     -1.21506432640858
  N   1.42032643261504     -1.67857862292576     -1.95060146691591
  N   1.85821278107350      0.37361150042423      0.76214897982178
  H   1.67245379641415      1.17728128255060      1.34839877301299
  H   1.79877015822968     -0.46488753548844      1.32451851704533
