18

C	-0.350768	-0.020199	-1.485457
C	0.0	0.0	0.0
F	0.125776	1.12126	-2.054638
H	1.09712	0.0	0.0
C	0.195502	-1.212691	-2.228458
H	1.267678	-1.265734	-2.021573
H	0.033228	-1.065023	-3.298629
H	-0.297978	-2.129885	-1.914079
N	-1.869599	0.03973	-1.669747
O	-2.369065	1.093699	-2.044799
O	-2.486799	-0.992303	-1.404013
C	-0.446264	-1.221597	0.80668
H	-0.013246	-2.126622	0.379556
H	-1.531015	-1.323615	0.847007
H	-0.054461	-1.120049	1.820145
C	-0.49451	1.230812	0.611567
N	-0.915941	2.189171	1.144604
Cl	3.304108	0.0	0.0
