18

C	-0.453553	0.109694	-1.457341
C	0.0	0.0	0.0
F	-1.798204	0.382557	-1.521534
H	1.094414	0.0	0.0
C	0.328285	1.122676	-2.250839
H	0.024114	1.090223	-3.2994
H	0.111147	2.113416	-1.845585
H	1.395404	0.918882	-2.149444
N	-0.287693	-1.266366	-2.090998
O	0.853683	-1.579086	-2.410614
O	-1.289847	-1.966968	-2.200272
C	-0.514801	-1.248711	0.717778
H	-0.240527	-1.192827	1.772089
H	-1.59896	-1.346731	0.630479
H	-0.034475	-2.134543	0.299785
C	-0.451776	1.210704	0.683027
N	-0.839077	2.165507	1.246922
Cl	3.308513	0.0	0.0
