18

C	-0.491037	0.000946	-1.450376
C	0.0	0.0	0.0
F	-0.259758	-1.230623	-1.991583
H	1.095971	0.0	0.0
C	-1.942642	0.364299	-1.668825
H	-2.578023	-0.324197	-1.109089
H	-2.135448	1.383923	-1.337383
H	-2.171731	0.271145	-2.733095
N	0.325655	0.994411	-2.271145
O	0.784085	0.612946	-3.338909
O	0.38199	2.129903	-1.809567
C	-0.436015	-1.278318	0.728766
H	-1.523187	-1.390774	0.767053
H	0.005553	-2.142711	0.235353
H	-0.0532	-1.238812	1.749478
C	-0.498303	1.165053	0.723485
N	-0.941946	2.04303	1.366326
Cl	3.2848	0.0	0.0
