19

C	-0.364164	-0.005911	-1.486778
C	0.0	0.0	0.0
Cl	-2.17061	0.162696	-1.728826
H	1.093746	0.0	0.0
C	0.283111	1.190109	-2.174323
H	1.362136	1.137634	-1.998313
H	-0.102118	2.142614	-1.808675
H	0.080599	1.133319	-3.247607
N	0.02018	-1.275406	-2.044988
H	0.017479	-1.214384	-3.056918
H	0.95944	-1.503395	-1.725554
N	-0.444821	-1.280706	0.63528
O	-1.563497	-1.3035	1.155388
O	0.329023	-2.233855	0.598206
C	-0.511276	1.168607	0.813152
H	-1.599786	1.204541	0.830287
H	-0.140311	1.071805	1.83618
H	-0.112196	2.100002	0.409506
Cl	3.36233	0.0	0.0
