19

C	-0.366426	-0.014582	-1.495759
C	0.0	0.0	0.0
Cl	-0.118584	-1.766405	-2.103474
H	1.093706	0.0	0.0
C	-1.798501	0.328508	-1.855473
H	-2.011887	1.352583	-1.545006
H	-1.928295	0.259138	-2.938358
H	-2.491337	-0.355034	-1.37041
N	0.544664	0.881253	-2.107136
H	0.465958	0.858351	-3.115545
H	1.505049	0.67801	-1.826659
N	-0.534363	-1.186087	0.720283
O	-1.764894	-1.272695	0.806329
O	0.256121	-1.986013	1.206088
C	-0.484248	1.252096	0.712589
H	-1.571748	1.286975	0.784164
H	-0.114561	2.121737	0.17004
H	-0.058139	1.272288	1.718134
Cl	3.38839	0.0	0.0
