19

C	-0.388021	0.050325	-1.499333
C	0.0	0.0	0.0
Cl	-0.189265	-1.619396	-2.169964
H	1.092098	0.0	0.0
C	-1.810541	0.487473	-1.788938
H	-1.958597	1.52192	-1.465473
H	-2.521696	-0.149981	-1.265801
H	-1.978773	0.432731	-2.865039
N	0.540257	0.890748	-2.221196
H	1.493923	0.661591	-1.93517
H	0.36966	1.858992	-1.971206
N	-0.53703	-1.205309	0.687673
O	-1.765082	-1.265546	0.824417
O	0.249105	-2.059024	1.082279
C	-0.462738	1.223075	0.777093
H	-0.029025	1.185745	1.779078
H	-1.548811	1.274552	0.858454
H	-0.081802	2.127723	0.298921
Cl	3.386145	0.0	0.0
