19

C	-0.349468	0.089667	-1.493007
C	0.0	0.0	0.0
Cl	0.049043	-1.563849	-2.253753
H	1.09052	0.0	0.0
C	-1.788654	0.382289	-1.861784
H	-2.083117	1.342124	-1.429494
H	-1.876316	0.449559	-2.948402
H	-2.446638	-0.404572	-1.504244
N	0.518638	1.098755	-1.996297
H	1.48126	0.910456	-1.707583
H	0.483364	1.124271	-3.008212
N	-0.506871	-1.214752	0.691932
O	-1.589871	-1.687612	0.340608
O	0.152	-1.617999	1.64404
C	-0.497366	1.196031	0.800255
H	-1.585735	1.184362	0.908022
H	-0.036844	1.170357	1.789555
H	-0.187463	2.109394	0.294086
Cl	3.369333	0.0	0.0
