16

C	0.0	0.0	0.0
C	-0.589511	-0.012421	-1.381654
F	1.383241	0.0	0.0
H	-1.717727	0.070381	-1.184461
H	-0.350285	-0.916527	0.478349
C	-0.45104	1.211394	0.786188
H	-1.544571	1.236136	0.776578
H	-0.035439	2.122736	0.351938
H	-0.08763	1.113866	1.812271
N	-0.336781	-1.270216	-2.132555
O	0.150718	-2.227493	-1.531339
O	-0.71479	-1.285401	-3.30311
N	-0.037515	1.09704	-2.198634
O	-0.611157	2.182728	-2.117926
O	0.986056	0.879324	-2.847312
H	-3.02175	0.0	0.0
