16

C	0.0	0.0	0.0
C	-0.617812	-0.018024	-1.366681
F	1.382942	0.0	0.0
H	-1.764384	0.030282	-1.089029
H	-0.347998	-0.913742	0.486557
C	-0.449254	1.212503	0.784999
H	-0.085887	1.1209	1.811459
H	-1.542714	1.236098	0.778229
H	-0.039584	2.124796	0.347804
N	-0.361982	-1.256268	-2.126836
O	-0.688786	-1.251442	-3.314663
O	0.059802	-2.241635	-1.51561
N	-0.134562	1.117705	-2.179732
O	-0.772387	2.169001	-2.112951
O	0.910599	0.963559	-2.816067
H	-2.950878	0.0	0.0
