12
Coordinates from ORCA-job run
  C   -0.61608807041608     -0.82205059329456     -0.25013085923798
  C   0.15880110079196      0.50775504650148     -0.16542673198160
  Br  -1.50915741834526     -0.99495633366135     -1.97118141134584
  H   -0.56864500503569      1.31940703919443     -0.26091726322337
  H   0.08015813328187     -1.66146419353870     -0.17880166215078
  C   -1.59612464963204     -0.90040585997358      0.82400920082364
  N   -2.40361344332514     -0.96367129353586      1.67439117651641
  C   1.11654017072640      0.61075940319554     -1.28284103067416
  N   1.95085001010944      0.69715988355110     -2.10553070052040
  N   0.77671107726172      0.58455222260419      1.14510550169064
  H   1.65324305003312      0.07761021921143      1.16502486783561
  H   0.95732504454969      1.54530445974589      1.40529891226782
