12
Coordinates from ORCA-job run
  C   -0.94977932883911     -0.50241018288437      0.04550195158233
  C   0.28859866371922      0.38056689732540     -0.22430512852253
  Br  -1.11914935561295     -0.92304676976969      1.93361801517062
  H   0.36318184093584      0.47754636728162     -1.31662532859302
  H   -1.83358694915405      0.08538699126673     -0.20970381552776
  C   -0.90961569534735     -1.72618348267836     -0.74215071200064
  N   -0.85550371670780     -2.68515446542983     -1.41866539540665
  C   1.51185586972054     -0.29515529410834      0.22435908923940
  N   2.50820289028085     -0.80497583666142      0.57708404203244
  N   0.11523319039356      1.67570225149538      0.41234746993586
  H   0.90081538061400      1.92387615008723      0.99746921718487
  H   -0.01925279000274      2.39584737407564     -0.27892940509491
