12
Coordinates from ORCA-job run
  C   -0.88654843129994     -0.54549557066597     -0.46113368173712
  C   0.18484915727285      0.56098850451851     -0.37942943868084
  Br  -2.66817983172864      0.22378284288801     -0.36765017743676
  H   -0.07656306955481      1.31688703562856     -1.12584967755624
  H   -0.82410630750922     -1.05549020777823     -1.42479969896613
  C   -0.69889423720169     -1.50826769296918      0.61615289532952
  N   -0.49954438991971     -2.25594343377984      1.50044878792672
  C   1.48074894735230     -0.03730411006882     -0.76970559104396
  N   2.52365411904963     -0.50456249081162     -1.04446592985970
  N   0.17586911976746      1.18183274111228      0.92621755771825
  H   0.69339622459412      2.05106116757333      0.91096014365947
  H   0.59531869917766      0.57251121435297      1.61925481064678
