12
Coordinates from ORCA-job run
  C   -0.86415446035800     -0.53418402597915     -0.40569362688032
  C   0.27854619410075      0.49711061584126     -0.36243238874658
  Br  -2.57479489704034      0.38456661909753     -0.18703771856612
  H   0.07535159718442      1.22658612649483     -1.16178725383437
  H   -0.90781604739251     -1.00065570773269     -1.39211728457131
  C   -0.71327663809422     -1.55541632691218      0.62043004747509
  N   -0.59173300568904     -2.41025064428410      1.41672823888129
  C   1.52587948169742     -0.19833998414024     -0.70570506444851
  N   2.52167156437184     -0.74563606756710     -1.00097248188162
  N   0.38671665240152      1.06284415215656      0.96981959230351
  H   1.25074991115839      1.58070067211544      1.06860697488870
  H   -0.38814035234023      1.69267457090987      1.13916096538025
