12
Coordinates from ORCA-job run
  C   -0.63051354870802     -0.79436134335969     -0.31637941020326
  C   0.24373407505299      0.47165773764126     -0.19790533425288
  Br  -1.61054638829821     -0.81339848907368     -1.99540180506889
  H   -0.40722134916364      1.34593124524226     -0.34400954322836
  H   0.01560135148623     -1.67358676258165     -0.30016401632236
  C   -1.56281442355998     -0.83922828395887      0.80134045590068
  N   -2.29115014613652     -0.82233015033324      1.72315637792576
  C   1.24411315365190      0.47554469157761     -1.26929680055526
  N   2.05031278529733      0.50132565864275     -2.12186448425898
  N   0.91314685705679      0.41411081282987      1.09588026162481
  H   1.74389299440817      0.99224494406806      1.10022108911305
  H   0.28944463891296      0.74308993930533      1.82342320932570
