14

C	-0.511158	0.081804	-1.432651
C	0.0	0.0	0.0
Cl	0.11305	-1.287428	-2.389631
H	1.101492	0.0	0.0
H	-0.132123	0.988167	-1.897087
C	-1.973006	0.075307	-1.492036
N	-3.147487	0.08481	-1.494454
N	-0.458661	-1.152997	0.692322
H	0.268488	-1.441764	1.334256
H	-1.309274	-0.980757	1.215192
N	-0.392141	1.281974	0.674486
O	-0.361616	2.320889	0.008339
O	-0.670636	1.24431	1.875291
F	2.51217	0.0	0.0
