14

C	-0.544378	-0.129152	-1.416225
C	0.0	0.0	0.0
Cl	-0.008054	1.224183	-2.457686
H	1.089933	0.0	0.0
H	-1.637434	-0.088352	-1.410589
C	-0.118525	-1.397802	-2.000212
N	0.151004	-2.437833	-2.474758
N	-0.414609	-1.083775	0.850354
H	-1.226138	-1.591581	0.523701
H	0.376899	-1.704108	0.959995
N	-0.59583	1.253622	0.581815
O	0.10277	1.940026	1.316783
O	-1.786469	1.484262	0.333507
F	2.547756	0.0	0.0
