14

C	-0.392557	0.001658	-1.483147
C	0.0	0.0	0.0
Cl	0.189854	-1.503162	-2.260065
H	1.090924	0.0	0.0
H	0.111635	0.826308	-1.97994
C	-1.83771	0.097012	-1.694613
N	-3.001732	0.167162	-1.839245
N	-0.478055	-1.073865	0.785971
H	-1.316326	-1.517115	0.44022
H	0.263777	-1.745476	0.908106
N	-0.460315	1.328419	0.540189
O	-0.31308	2.302021	-0.209101
O	-0.894448	1.4037	1.683182
F	2.526538	0.0	0.0
