14

C	-0.572419	-0.007673	-1.408373
C	0.0	0.0	0.0
Cl	-0.004335	1.403636	-2.351995
H	1.090064	0.0	0.0
H	-1.664312	0.063369	-1.38497
C	-0.184373	-1.240359	-2.086505
N	0.079588	-2.221236	-2.67546
N	-0.540815	-1.122849	0.701951
H	0.041829	-1.324345	1.503943
H	-1.500073	-0.956108	0.988797
N	-0.495543	1.291795	0.63403
O	-1.72619	1.445424	0.684405
O	0.316255	2.085313	1.095873
F	2.551543	0.0	0.0
