14

C	-0.496603	-0.007472	-1.44235
C	0.0	0.0	0.0
Cl	0.113776	-1.449117	-2.295906
H	1.091498	0.0	0.0
H	-0.093876	0.858921	-1.961762
C	-1.958076	0.007986	-1.51613
N	-3.132864	0.028914	-1.530667
N	-0.471022	-1.103898	0.76045
H	0.25164	-1.360663	1.417447
H	-1.317005	-0.886767	1.270594
N	-0.396204	1.325844	0.584234
O	-0.723301	1.364414	1.772218
O	-0.326097	2.320966	-0.142019
F	2.515518	0.0	0.0
