14

C	-0.502185	0.181273	-1.428042
C	0.0	0.0	0.0
Cl	0.109155	-1.13259	-2.467301
H	1.101419	0.0	0.0
H	-0.105502	1.110267	-1.830317
C	-1.964103	0.200195	-1.49605
N	-3.13901	0.213876	-1.519847
N	-0.465517	-1.195317	0.610727
H	0.255799	-1.532918	1.23444
H	-1.319083	-1.055105	1.136302
N	-0.392939	1.236156	0.756005
O	-0.357336	2.316922	0.159639
O	-0.678393	1.119712	1.949738
F	2.512992	0.0	0.0
