17

C	-0.483009	-0.029559	-1.444544
C	0.0	0.0	0.0
F	-0.07116	-1.176353	-2.044959
H	1.101314	0.0	0.0
C	-1.947731	0.062254	-1.555857
N	-3.116114	0.135549	-1.648644
N	0.097189	1.127878	-2.264195
O	-0.39806	2.228504	-2.036877
O	0.985124	0.865768	-3.056344
N	-0.537559	-1.240672	0.577304
H	-0.516089	-1.14544	1.585941
H	0.106729	-1.990005	0.34803
C	-0.504393	1.197198	0.783946
H	-1.596776	1.20083	0.846955
H	-0.090287	1.132626	1.793608
H	-0.165123	2.135925	0.350745
Br	3.52248	0.0	0.0
