17

C	-0.443541	-0.029444	-1.458691
C	0.0	0.0	0.0
F	0.032096	-1.152999	-2.058835
H	1.10126	0.0	0.0
C	-1.904131	0.013688	-1.627492
N	-3.070822	0.027362	-1.760203
N	0.142988	1.160018	-2.220602
O	-0.493712	2.208098	-2.144251
O	1.193846	0.971824	-2.808534
N	-0.540123	-1.24129	0.567391
H	-0.523653	-1.152105	1.576501
H	0.106839	-1.988394	0.336848
C	-0.525037	1.204728	0.75443
H	-0.156875	2.137846	0.329905
H	-1.619132	1.220201	0.771121
H	-0.156325	1.146153	1.782014
Br	3.548339	0.0	0.0
