17

C	-0.422296	-0.035519	-1.462787
C	0.0	0.0	0.0
F	0.186933	0.945612	-2.1689
H	1.096289	0.0	0.0
C	-0.208321	-1.331413	-2.116032
N	-0.016804	-2.335173	-2.694971
N	-1.933346	0.260107	-1.539947
O	-2.270848	1.377432	-1.90732
O	-2.676833	-0.632881	-1.147294
N	-0.420894	-1.228425	0.648372
H	-1.308867	-1.123059	1.121938
H	0.291998	-1.511396	1.309553
C	-0.46536	1.292757	0.661238
H	-1.547835	1.290616	0.832956
H	0.041852	1.381691	1.622706
H	-0.206438	2.16669	0.060652
Br	3.468463	0.0	0.0
