17

C	-0.411846	-0.01492	-1.469761
C	0.0	0.0	0.0
F	0.121426	1.044811	-2.127313
H	1.102148	0.0	0.0
C	-0.038563	-1.260748	-2.151184
N	0.27612	-2.254072	-2.693506
N	-1.933889	0.12419	-1.58823
O	-2.59563	-0.90628	-1.609173
O	-2.366619	1.271409	-1.596025
N	-0.538748	-1.207514	0.629212
H	-0.629351	-1.032328	1.622522
H	0.148779	-1.949307	0.531405
C	-0.485344	1.251266	0.708814
H	-1.560494	1.208829	0.907542
H	-0.26725	2.145221	0.125435
H	0.053593	1.330073	1.65642
Br	3.505099	0.0	0.0
