17

C	-0.510896	0.022587	-1.445472
C	0.0	0.0	0.0
Br	0.143954	-1.67379	-2.347548
H	1.090023	0.0	0.0
N	-1.914278	0.20456	-1.563707
H	-2.198942	0.207488	-2.535068
H	-2.386178	-0.53358	-1.055205
C	0.166725	1.099311	-2.172667
N	0.617691	2.004946	-2.770955
N	-0.463761	-1.229038	0.716943
O	-1.620537	-1.621795	0.514821
O	0.304408	-1.733734	1.524135
C	-0.48537	1.202209	0.798774
H	-0.025129	1.162395	1.788177
H	-1.57267	1.22317	0.882508
H	-0.142983	2.114786	0.308458
Cl	3.297204	0.0	0.0
