17

C	-0.299612	0.078436	-1.496276
C	0.0	0.0	0.0
Br	-2.212649	0.507311	-1.870576
H	1.098312	0.0	0.0
N	0.504318	1.166999	-1.995618
H	1.466691	1.02422	-1.67194
H	0.492637	1.169297	-3.00897
C	-0.051089	-1.174495	-2.226739
N	0.211905	-2.076048	-2.935312
N	-0.487987	-1.243826	0.651402
O	-1.142913	-2.05264	-0.007638
O	-0.216743	-1.367247	1.842989
C	-0.475481	1.200145	0.79767
H	-1.553189	1.161747	0.971452
H	-0.230378	2.104865	0.242596
H	0.04864	1.211884	1.752565
Cl	3.235871	0.0	0.0
