17

C	-0.296766	0.126917	-1.500942
C	0.0	0.0	0.0
Br	-2.192055	0.605139	-1.841051
H	1.095543	0.0	0.0
N	0.523244	1.155726	-2.114546
H	0.309543	2.048918	-1.684924
H	1.497267	0.932197	-1.887552
C	-0.040998	-1.116309	-2.238024
N	0.206578	-2.057554	-2.895665
N	-0.49901	-1.259295	0.621234
O	-0.16367	-1.458924	1.786213
O	-1.23254	-1.998836	-0.036985
C	-0.464172	1.160119	0.862559
H	-1.547346	1.151857	0.999825
H	-0.169943	2.10831	0.411792
H	0.030928	1.082858	1.82975
Cl	3.24097	0.0	0.0
