17

C	-0.295001	0.013798	-1.506776
C	0.0	0.0	0.0
Br	-2.188117	0.474415	-1.884619
H	1.094951	0.0	0.0
N	0.531497	0.988646	-2.195509
H	1.504648	0.773251	-1.954849
H	0.328987	1.912465	-1.829047
C	-0.044503	-1.28323	-2.14748
N	0.200742	-2.271972	-2.732629
N	-0.498845	-1.208329	0.71576
O	-1.239402	-1.992385	0.119272
O	-0.155268	-1.321887	1.889669
C	-0.465557	1.222281	0.77124
H	-0.180479	2.133337	0.244725
H	0.035374	1.224748	1.73856
H	-1.547823	1.218894	0.915005
Cl	3.243777	0.0	0.0
