17

C	-0.509509	0.012037	-1.447308
C	0.0	0.0	0.0
Br	0.17356	-1.680367	-2.339371
H	1.090054	0.0	0.0
N	-1.914114	0.167136	-1.572492
H	-2.192993	0.143016	-2.544795
H	-2.387329	-0.553664	-1.040985
C	0.142696	1.103644	-2.174267
N	0.604964	2.03216	-2.72641
N	-0.461462	-1.23904	0.705217
O	0.355412	-1.855764	1.373596
O	-1.662826	-1.527817	0.622411
C	-0.506809	1.19646	0.795914
H	-1.594786	1.199873	0.867612
H	-0.169374	2.115512	0.314454
H	-0.060945	1.157603	1.79228
Cl	3.259837	0.0	0.0
