11
Coordinates from ORCA-job run
  C   -1.17728929892070     -0.27406445877796     -0.25859865071826
  C   0.30137122666769      0.10680131467184     -0.29368757480739
  Br  -1.48698620930308     -1.98133745166607     -1.11342229851753
  H   0.64642719405892      0.05592450552343     -1.33075750097293
  H   -1.77724050077206      0.46620824634303     -0.78655240102550
  H   -1.52677765754275     -0.35338259170640      0.77188341467188
  N   1.10133631004280     -0.81502623338045      0.49129342841623
  H   0.90542531642450     -0.69862389228653      1.47879237747130
  H   2.08780160312842     -0.63919047235269      0.34690583363071
  C   0.41248608377359      1.51611129394790      0.14839675889279
  N   0.51344593244267      2.61757973968390      0.54474661295871
