11
Coordinates from ORCA-job run
  C   -1.07443273721828     -0.51955990929169     -0.26125861069071
  C   0.27382589047084      0.19284944563918     -0.18535877077429
  Br  -2.36970222470916      0.52086781428126     -1.25688445929227
  H   0.57492437030922      0.48472972935950     -1.20172618345792
  H   -1.46372674657806     -0.68881526928211      0.74076113053928
  H   -0.95769635993921     -1.47237606533318     -0.77793120396696
  N   1.20958802118742     -0.71410351595962      0.48153358285589
  H   1.51036332069216     -1.42587894001989     -0.17387551195574
  H   2.03235305694133     -0.21131816293996      0.79143245083050
  C   0.16186128907184      1.42633847793280      0.60156810182434
  N   0.10164211977190      2.40726639561373      1.24273947408787
