11
Coordinates from ORCA-job run
  C   -0.99635779100140     -0.51731109444911     -0.17490723339273
  C   0.32441951076674      0.25231814133591     -0.27733625733982
  Br  -2.45707392751791      0.43177949250506     -1.02814041773581
  H   0.51295162862642      0.47785133058072     -1.33186670760003
  H   -1.27022278784920     -0.67613758764181      0.86878910616968
  H   -0.89701247305782     -1.47780255942579     -0.68140614069707
  N   1.47083431750752     -0.48488447839523      0.23608224058166
  H   1.61529065379112     -1.32952956659259     -0.30342057011764
  H   1.33121823917209     -0.73793255022627      1.20706853146890
  C   0.22521568789857      1.53246812635079      0.43796420940805
  N   0.14173694166386      2.53118074595831      1.04817323925479
