11
Coordinates from ORCA-job run
  C   -1.10018074227891     -0.52943822503695     -0.22717126901522
  C   0.26401813387908      0.14871961030874     -0.29589814842335
  Br  -2.48881313946744      0.59036686298969     -0.98062018932022
  H   0.47135881012983      0.39084325333551     -1.34210893599059
  H   -1.05793720196547     -1.45219364252180     -0.80222084183175
  H   -1.37852891604165     -0.74509124411234      0.80490768313348
  N   1.26821259840456     -0.80895325442055      0.15377459404027
  H   2.19671811412189     -0.47080347567634     -0.06916639266560
  H   1.21831076871104     -0.91784111008451      1.16031893881825
  C   0.27055379362270      1.41243787323832      0.46914811102626
  N   0.33728778088439      2.38195335198024      1.12903645022847
