11
Coordinates from ORCA-job run
  C   -1.08127182449686     -0.26652827092063     -0.26822006834880
  C   0.36999570075981      0.23781420747237     -0.26213838818361
  Br  -1.18071650002722     -2.03895178228619     -1.05345742199052
  H   0.72724209157832      0.26190821387384     -1.29703295150476
  H   -1.46670454768242     -0.33944237235351      0.74942806762691
  H   -1.72505277548040      0.38344818820445     -0.86100622045856
  N   1.32810886311922     -0.52390687391102      0.51674142613482
  H   1.01734196699713     -0.60638484891169      1.47795822468087
  H   1.41532317128780     -1.45520702879400      0.12886784840126
  C   0.33826096566739      1.62500183514735      0.22962238558109
  N   0.25747288827724      2.72124873247903      0.64123709806130
