11
Coordinates from ORCA-job run
  C   -1.05326063934101     -0.40337873554106     -0.52210979890030
  C   0.31336695745761      0.20249113823651     -0.21239551302140
  Br  -2.12518304488811     -0.70215643941775      1.05735080171615
  H   0.77917511863054      0.38531989964694     -1.19692073713507
  H   -0.91992367028488     -1.36870267885557     -1.01386181235327
  H   -1.61534210335689      0.25855000035322     -1.18048390514634
  N   1.09237595153559     -0.67167147388070      0.65202809038626
  H   1.27676446476761     -1.54619504379359      0.17432972252286
  H   1.98089244411177     -0.24237734882546      0.87902698159748
  C   0.17302093334397      1.51582859303312      0.42946102257404
  N   0.09811358802380      2.57229208904433      0.93457514775960
