11
Coordinates from ORCA-job run
  C   -1.05655091173483     -0.42931768051641     -0.47655342610991
  C   0.30650037575093      0.20895218407916     -0.22428132187910
  Br  -2.06029299919107     -0.74362196289591      1.14441313109249
  H   0.73232689303531      0.38967074295737     -1.22700399003789
  H   -0.91952911804831     -1.39454457499376     -0.96764796980795
  H   -1.65952386718902      0.21463087330500     -1.11613747504585
  N   1.13600568787159     -0.63748619640827      0.62078090983387
  H   2.03208894284375     -0.19702760723333      0.78877026615450
  H   1.30072464277757     -1.52436142465205      0.15907046738193
  C   0.15762336478240      1.52640709967582      0.40792836045849
  N   0.02962698910167      2.58769854668238      0.89166104795942
