13

C	-0.539186	-0.003414	-1.431121
C	0.0	0.0	0.0
Br	-0.007206	-1.740628	-2.199026
H	1.090536	0.0	0.0
H	-0.365037	-0.873716	0.539411
C	-2.002695	0.048921	-1.466472
N	-3.178275	0.055321	-1.479623
C	0.015528	1.041741	-2.289659
N	0.429029	1.889241	-2.991319
N	-0.477215	1.1936	0.742441
O	-0.40165	1.140254	1.964288
O	-0.889922	2.15411	0.089584
Cl	3.198017	0.0	0.0
