13

C	-0.535886	0.013412	-1.431816
C	0.0	0.0	0.0
Br	-0.029536	-1.721948	-2.216499
H	1.090605	0.0	0.0
H	-0.367236	-0.876126	0.533345
C	-1.998472	0.087443	-1.471067
N	-3.173953	0.106766	-1.483343
C	0.036416	1.059991	-2.276009
N	0.465543	1.893658	-2.983325
N	-0.472148	1.190505	0.750645
O	-0.837572	2.172862	0.104334
O	-0.43085	1.111576	1.973065
Cl	3.199671	0.0	0.0
