13

C	-0.528324	0.050592	-1.434274
C	0.0	0.0	0.0
Br	0.311259	-1.299679	-2.58322
H	1.088205	0.0	0.0
H	-0.348509	0.877196	0.549852
C	-1.983452	-0.100536	-1.514044
N	-3.157393	-0.133092	-1.559841
C	-0.182699	1.360592	-1.99178
N	0.024342	2.432988	-2.425882
N	-0.482817	-1.182486	0.757286
O	-1.044511	-2.090747	0.149481
O	-0.262927	-1.161731	1.96238
Cl	3.201253	0.0	0.0
