13

C	-0.502528	0.045973	-1.436169
C	0.0	0.0	0.0
Br	-2.492381	0.089136	-1.462944
H	1.087989	0.0	0.0
H	-0.370108	-0.895769	0.495803
C	-0.038097	1.1806	-2.233392
N	0.288302	2.058093	-2.943088
C	-0.124677	-1.201943	-2.100779
N	0.138303	-2.210588	-2.64447
N	-0.460878	1.158454	0.797001
O	-0.58473	2.237992	0.226298
O	-0.643874	0.956613	1.995521
Cl	3.177282	0.0	0.0
