13

C	-0.54142	-0.061733	-1.431034
C	0.0	0.0	0.0
Br	0.418717	-1.352914	-2.551431
H	1.091122	0.0	0.0
H	-0.360472	0.90347	0.49421
C	-1.972241	-0.379726	-1.477961
N	-3.126423	-0.602759	-1.485386
C	-0.350707	1.258167	-2.039587
N	-0.208769	2.326264	-2.509308
N	-0.455263	-1.140918	0.831845
O	-0.778586	-2.186646	0.271499
O	-0.434267	-0.95722	2.044728
Cl	3.199629	0.0	0.0
