15

C	-0.427552	-0.049388	-1.457549
C	0.0	0.0	0.0
Br	-0.399805	-2.259115	-1.774379
H	1.088643	0.0	0.0
H	-0.44071	-0.773121	0.619173
N	-1.755353	0.349712	-1.690656
H	-2.382358	-0.133139	-1.060089
H	-2.027164	0.131925	-2.640312
N	0.471405	0.512997	-2.324639
H	0.140627	1.292692	-2.867094
H	1.429958	0.560459	-1.994515
N	-0.456188	1.308737	0.553914
O	0.028548	2.333962	0.086153
O	-1.318174	1.274582	1.437778
Cl	3.314647	0.0	0.0
