15

C	-0.485782	-0.043733	-1.440084
C	0.0	0.0	0.0
Br	-0.00279	1.637684	-2.440934
H	1.089003	0.0	0.0
H	-0.350654	-0.920409	0.468707
N	0.169405	-1.177113	-2.01447
H	0.011951	-1.209195	-3.015413
H	1.173943	-1.12312	-1.84195
N	-1.926941	-0.082225	-1.500317
H	-2.226186	-0.966071	-1.097765
H	-2.239247	-0.039873	-2.463006
N	-0.582024	1.094134	0.80476
O	-0.175663	2.236181	0.628643
O	-1.450569	0.774568	1.621411
Cl	3.334091	0.0	0.0
