15

C	-0.419297	0.13034	-1.471286
C	0.0	0.0	0.0
Br	-0.318769	-1.865007	-2.130928
H	1.088095	0.0	0.0
H	-0.438852	-0.867262	0.480345
N	-1.770716	0.498542	-1.781695
H	-1.9077	1.460397	-1.489672
H	-2.421481	-0.101704	-1.291727
N	0.458357	0.976604	-2.12532
H	1.430879	0.841811	-1.859001
H	0.310926	1.001474	-3.123719
N	-0.518503	1.188387	0.724092
O	0.08164	2.25405	0.615122
O	-1.574362	1.037332	1.352339
Cl	3.343854	0.0	0.0
