15

C	-0.403546	-0.164797	-1.475196
C	0.0	0.0	0.0
Br	-0.685993	1.871288	-2.08471
H	1.088095	0.0	0.0
H	-0.433753	0.871499	0.474399
N	0.595341	-0.806244	-2.160333
H	0.449245	-0.86123	-3.156777
H	1.543083	-0.579373	-1.868093
N	-1.673865	-0.743569	-1.801698
H	-1.650928	-1.717139	-1.516868
H	-2.423286	-0.25644	-1.328301
N	-0.497284	-1.177151	0.754378
O	-1.361574	-0.971494	1.613873
O	-0.065518	-2.288176	0.452192
Cl	3.333249	0.0	0.0
