15

C	-0.419123	-0.191428	-1.447909
C	0.0	0.0	0.0
Br	-0.225754	1.847627	-2.355047
H	1.085438	0.0	0.0
H	-0.371261	-0.867292	0.553785
N	0.515564	-1.006428	-2.056525
H	1.475041	-0.74049	-1.835535
H	0.375623	-1.127808	-3.048948
N	-1.75377	-0.5595	-1.649383
H	-2.000475	-0.536805	-2.630913
H	-2.35254	0.073921	-1.133062
N	-0.602653	1.18369	0.652143
O	-1.837107	1.252752	0.617396
O	0.125542	1.985059	1.220922
Cl	3.356819	0.0	0.0
