15

C	-0.428042	0.0728	-1.454605
C	0.0	0.0	0.0
Br	-0.221127	-2.035107	-2.197303
H	1.08666	0.0	0.0
H	-0.371869	0.907602	0.483978
N	-1.767647	0.408128	-1.676545
H	-2.021727	0.293989	-2.649449
H	-2.35375	-0.18458	-1.100791
N	0.494342	0.845535	-2.130687
H	1.457079	0.604841	-1.896561
H	0.345304	0.897455	-3.127917
N	-0.595425	-1.1275	0.749873
O	-1.830694	-1.200784	0.734017
O	0.140011	-1.879934	1.372387
Cl	3.349254	0.0	0.0
