15

C	-0.384775	-0.033715	-1.466291
C	0.0	0.0	0.0
Br	-2.515185	-0.431564	-1.433079
H	1.09402	0.0	0.0
H	-0.357216	-0.897727	0.497548
N	-0.070294	1.090211	-2.182262
H	-0.305636	1.961443	-1.735051
H	-0.302355	1.015271	-3.160099
N	0.144966	-1.182762	-2.138437
H	-0.161772	-2.030408	-1.677759
H	1.160581	-1.112475	-2.063424
N	-0.514913	1.13336	0.797684
O	-0.831293	0.896196	1.960452
O	-0.569386	2.252398	0.281081
Cl	3.285325	0.0	0.0
