19

C	-0.435889	0.010964	-1.422736
C	0.0	0.0	0.0
Br	0.360123	-1.446085	-2.458379
H	1.094223	0.0	0.0
N	-1.954733	-0.06473	-1.523049
O	-2.53405	1.006607	-1.326855
O	-2.495129	-1.162384	-1.627892
N	-0.060669	1.274855	-2.188851
O	0.799327	1.996868	-1.696335
O	-0.59075	1.415295	-3.288294
C	-0.412496	-1.287979	0.707674
H	-1.499108	-1.381324	0.818954
H	0.039484	-1.272447	1.703587
H	-0.034863	-2.171247	0.192587
C	-0.477258	1.201351	0.812117
H	-0.295741	2.150414	0.312991
H	0.105971	1.203429	1.739139
H	-1.54119	1.13252	1.066304
H	2.637761	0.0	0.0
