19

C	-0.435301	0.006317	-1.427215
C	0.0	0.0	0.0
Br	0.372361	1.439011	-2.441748
H	1.096028	0.0	0.0
N	-0.076126	-1.335402	-2.08139
O	1.014578	-1.453689	-2.613435
O	-0.916323	-2.219012	-1.920109
N	-1.958389	0.105597	-1.70195
O	-2.315205	0.041329	-2.871552
O	-2.698016	0.225762	-0.73169
C	-0.382761	-1.26151	0.770295
H	-1.460466	-1.436396	0.812951
H	0.112865	-2.144592	0.363055
H	-0.001829	-1.133879	1.787807
C	-0.381301	1.258196	0.777561
H	0.311188	1.323175	1.625141
H	-0.240638	2.164712	0.184636
H	-1.409993	1.229548	1.146623
H	2.720325	0.0	0.0
