19

C	-0.434796	0.016081	-1.428112
C	0.0	0.0	0.0
Br	0.396258	1.437782	-2.438859
H	1.096068	0.0	0.0
N	-0.095887	-1.330233	-2.086277
O	-0.955485	-2.197227	-1.938049
O	0.997405	-1.467675	-2.608415
N	-1.955204	0.136476	-1.701655
O	-2.311387	0.108541	-2.873128
O	-2.695764	0.232276	-0.728491
C	-0.385394	-1.264985	0.763051
H	0.105263	-2.147561	0.348405
H	-1.463696	-1.435616	0.807535
H	-0.000614	-1.146454	1.780241
C	-0.382218	1.255802	0.780782
H	-1.412854	1.230045	1.138008
H	-0.232	2.164772	0.195796
H	0.299666	1.313279	1.634071
H	2.723247	0.0	0.0
