14

C	0.0	0.0	0.0
C	-0.60021	-0.071715	-1.406239
Cl	1.776245	0.0	0.0
H	-1.711824	-0.045026	-1.131714
H	-0.288021	0.994	0.360676
N	-0.518585	-1.091774	0.767689
H	-1.545437	-0.932265	0.680228
H	-0.252141	-0.948171	1.735897
N	-0.267248	-1.363266	-2.078368
O	-1.043143	-2.297822	-1.903185
O	0.763063	-1.413642	-2.75369
C	-0.185328	1.038694	-2.2417
N	0.10199	1.981605	-2.880932
F	-2.797126	0.0	0.0
