14

C	0.0	0.0	0.0
C	-0.359197	0.142171	-1.480406
Cl	1.823105	0.0	0.0
H	0.193635	-0.627057	-2.021605
H	-0.303131	0.889152	0.551361
N	-0.48322	-1.261928	0.467678
H	-1.512417	-1.059839	0.444287
H	-0.192504	-1.369126	1.434072
N	0.191447	1.445201	-2.009104
O	-0.033455	2.459022	-1.356274
O	0.811316	1.402057	-3.068613
C	-1.765454	0.090182	-1.929705
N	-2.532962	0.062894	-2.827908
F	-2.619318	0.0	0.0
