14

C	0.0	0.0	0.0
C	-0.488795	-0.199179	-1.46072
Cl	1.828262	0.0	0.0
H	0.350338	-0.102876	-2.160319
H	-0.294329	1.007077	0.275017
N	-0.464527	-0.908932	0.988937
H	-0.255163	-1.859303	0.700573
H	-1.497969	-0.739955	0.884852
N	-1.41852	0.9037	-1.914085
O	-1.147106	2.032977	-1.529354
O	-2.246206	0.617781	-2.764727
C	-1.108647	-1.499052	-1.656722
N	-1.468154	-2.604979	-1.814867
F	-2.580832	0.0	0.0
