14

C	0.0	0.0	0.0
C	-0.383795	0.162729	-1.476928
Cl	1.776213	0.0	0.0
H	0.113119	-0.640905	-2.023464
H	-0.317167	0.881679	0.558582
N	-0.503191	-1.263104	0.451444
H	-0.206768	-1.392372	1.413275
H	-1.529981	-1.053546	0.436892
N	0.233506	1.430015	-2.017221
O	0.037798	2.462772	-1.384092
O	0.875756	1.343599	-3.061116
C	-1.799293	0.20892	-1.900189
N	-2.57367	0.332464	-2.78492
F	-2.649331	0.0	0.0
