15

C	-0.465364	-0.000247	-1.450006
C	0.0	0.0	0.0
F	-0.028267	-1.132926	-2.120889
H	1.100356	0.0	0.0
H	-0.052794	0.869383	-1.967141
C	-1.938468	0.032345	-1.544561
N	-3.107397	-0.004114	-1.636152
C	-0.524004	-1.209352	0.747329
H	-0.25471	-2.126821	0.222712
H	-1.613734	-1.166228	0.853436
H	-0.069269	-1.247854	1.740287
N	-0.510011	1.256804	0.575494
H	0.252139	1.929355	0.578612
H	-0.757238	1.100842	1.546329
Cl	3.493523	0.0	0.0
