15

C	-0.403294	-0.024702	-1.468965
C	0.0	0.0	0.0
F	-1.801435	-0.135228	-1.590814
H	1.096518	0.0	0.0
H	0.034102	-0.887093	-1.980199
C	-0.019606	1.20888	-2.172384
N	0.241838	2.204774	-2.734471
C	-0.49477	-1.26287	0.69079
H	-1.587633	-1.293105	0.727653
H	-0.108268	-1.266108	1.709891
H	-0.13312	-2.160031	0.180423
N	-0.476638	1.183424	0.705472
H	0.119961	1.971901	0.486077
H	-1.423929	1.405448	0.419348
Cl	3.435365	0.0	0.0
