15

C	-0.531321	0.080341	-1.415977
C	0.0	0.0	0.0
F	-0.079822	1.237507	-2.041481
H	1.095287	0.0	0.0
H	-1.624213	0.153941	-1.376618
C	-0.170165	-1.077713	-2.250243
N	0.032789	-2.015943	-2.925858
C	-0.506684	-1.261475	0.678614
H	-1.601111	-1.284032	0.698843
H	-0.142821	-1.286406	1.708816
H	-0.128003	-2.157185	0.182001
N	-0.540386	1.184459	0.692686
H	-0.076488	1.99154	0.284122
H	-0.197422	1.139325	1.648639
Cl	3.480409	0.0	0.0
