15

C	-0.534171	0.014308	-1.417028
C	0.0	0.0	0.0
F	-0.08262	1.138975	-2.098301
H	1.101782	0.0	0.0
H	-1.627441	0.09125	-1.377793
C	-0.177739	-1.18353	-2.194141
N	0.029936	-2.152947	-2.821968
C	-0.505939	-1.227519	0.738194
H	-1.600919	-1.251141	0.758065
H	-0.124938	-2.145066	0.285778
H	-0.143633	-1.201571	1.768932
N	-0.536304	1.216045	0.638672
H	-0.178569	1.223809	1.5891
H	-0.085802	2.00473	0.183883
Cl	3.48213	0.0	0.0
