15

C	-0.450012	0.02045	-1.455815
C	0.0	0.0	0.0
F	-0.161184	-1.172626	-2.103483
H	1.095689	0.0	0.0
H	0.071341	0.828359	-1.972715
C	-1.908224	0.241707	-1.553957
N	-3.06733	0.418683	-1.611362
C	-0.517364	-1.222484	0.740029
H	-0.120528	-1.219551	1.757886
H	-1.613615	-1.224809	0.788882
H	-0.186803	-2.140469	0.250929
N	-0.429828	1.284476	0.556901
H	-1.292355	1.178481	1.079171
H	0.288515	1.626901	1.182652
Cl	3.444754	0.0	0.0
