20

C	0.0	0.0	0.0
C	-0.33784	0.173983	-1.510095
Cl	1.819602	0.0	0.0
H	0.329001	-0.526352	-2.031987
C	-0.515755	1.119234	0.879851
H	-0.096772	2.082869	0.593226
H	-1.607877	1.156848	0.796739
H	-0.24695	0.907609	1.916273
N	-0.431671	-1.255048	0.564619
H	-1.436333	-1.196914	0.723778
H	-0.267925	-2.00302	-0.100662
C	-0.036871	1.58059	-2.027508
H	-0.780147	2.29046	-1.655504
H	0.958939	1.926507	-1.742789
H	-0.097852	1.589454	-3.120291
C	-1.771816	-0.202377	-1.860332
H	-1.919197	-0.060975	-2.936185
H	-1.99766	-1.245215	-1.633385
H	-2.523524	0.384792	-1.333236
Cl	-4.583627	0.0	0.0
