12
Coordinates from ORCA-job run
  C   -0.31549130169026     -0.02135530429718     -0.29205008241951
  C   -0.19150970857490      0.01297591431291      1.07603856481193
  Br  2.00394854281243     -0.01258861133725     -1.54822330569195
  Cl  -2.98132527942016     -0.12955985287551      2.08337342367681
  H   -1.62544196685432     -0.04718496463477      1.39806151992286
  H   -0.50402946673206     -0.96604566555005     -0.78823851975230
  C   0.33958464962589     -1.18022740866744      1.82616776891283
  H   1.43032374124697     -1.21385635819109      1.73796450437687
  H   0.06511630744607     -1.14318274086328      2.88350383653045
  H   -0.05932401202855     -2.10728806802765      1.40646262095773
  H   0.02049372543482      0.98578580081555      1.51990172791135
  H   -0.59912523126593      0.87022725931574     -0.83711205923708
