14
Coordinates from ORCA-job run
  C   -0.22171551538423     -0.00332566575333     -0.25662720941386
  C   0.08254022065552      0.02287595316310      1.07745358699947
  Cl  1.85512518613509     -0.18888351049204     -1.81380164291714
  Br  -2.87431286224104     -0.04619624777712      2.02600509621149
  H   -1.37418303921648      0.05217851053749      1.13453398088350
  H   -0.51893650956269     -0.92953488217195     -0.72920390817788
  H   -0.44750347539567      0.91816957552298     -0.77301520485955
  C   0.47139261198509      1.29659179082100      1.76834708492292
  H   0.00635941630533      2.16040392840525      1.29071944733459
  H   0.16148643461854      1.27359926645694      2.81686098599471
  H   1.55838282640106      1.39739748354718      1.72019644052347
  N   0.48579168010035     -1.14573253045646      1.76486332504039
  H   0.38550967905673     -1.96622933071823      1.18147324004130
  H   -0.06021665345759     -1.26177434108482      2.61214477741658
