14
Coordinates from ORCA-job run
  C   -0.38294282792644     -0.01312405143391     -0.26646897083269
  C   -0.20223728493813      0.01600595584406      1.09205573648159
  Br  2.12603229857687      0.26932071493314     -1.21997205151689
  Br  -3.08360977256174     -0.20154350709379      2.20867358937256
  H   -1.61159092781634     -0.06367220503869      1.34270143747179
  H   -0.56758163859461     -0.95266343541668     -0.77290551006167
  N   0.18594635535800      1.28474434261275      1.62345899610483
  H   1.06661678138130      1.53762740449894      1.17921115409813
  H   0.31042149080033      1.23298655534384      2.62568499561835
  C   0.27467940522986     -1.22054633677708      1.81095806832672
  H   1.36261011170441     -1.28141759052625      1.70251370963344
  H   0.01253947730464     -1.17351850141093      2.87193136790404
  H   -0.17744207896419     -2.12323771741014      1.39364754792003
  H   -0.64069138955396      0.90346837187475     -0.78081007052021
