13
Coordinates from ORCA-job run
  C   -0.06568528316360     -0.03725775695422     -0.41138200870333
  C   -0.05125597346606     -0.09695508557349      1.08577508365521
  F   1.19190040107864      0.25881205398159     -0.97785157956635
  H   -2.55247617542154      0.45448450786763      1.34069208593928
  H   -1.23818842812209     -0.03520453139318      1.31681986241403
  H   -0.39345019756325     -0.98617325609847     -0.84387195334123
  H   -0.75618756326953      0.75621330186921     -0.71266484022596
  C   0.49654701102414      1.17304214181132      1.72176548801799
  H   -0.17498221907978      1.99517500819629      1.45131155189056
  H   0.48565905512435      1.08804216873421      2.81150714026533
  H   1.51282747264187      1.40645592210531      1.39249920325084
  C   0.55992034004537     -1.29727889901832      1.60068047915870
  N   1.03273156017150     -2.28041557552787      2.04903948724492
