12
Coordinates from ORCA-job run
  C   -0.19794110912066     -0.02591148821407     -0.30001560151967
  C   -0.09142956315280     -0.11822449852168      1.19636665887145
  Br  1.46392834701869      0.55351449749139     -1.21397255446207
  H   -2.42950003944703      0.70705819979158      1.63196950538847
  H   -1.24724743020050     -0.13524854514867      1.47238453088789
  H   -0.45462682531289     -0.98064262037890     -0.76011708824492
  H   -0.94880909389301      0.72982411971685     -0.53745791358617
  N   0.31493317528508      1.08321729327102      1.89290847999707
  H   -0.56341970076422      1.60283724597758      2.00904997514602
  H   0.95544285493237      1.62422829506960      1.32346332910836
  C   0.63704107457150     -1.29693427098415      1.63034648113879
  N   1.20655831008347     -2.27683822807056      1.95067419727478
