12
Coordinates from ORCA-job run
  C   -0.12163412676228      0.07599398281609     -0.36663501704819
  C   -0.09573244182388      0.08502304371636      1.07934185385798
  Cl  1.61757164582428     -0.00459123948214     -1.28719004948097
  F   -2.52162729530259     -0.31774002765669      1.71539318069661
  H   -1.38652598474376     -0.00523108440556      1.37575963706173
  H   -0.60102763845363     -0.81273062649288     -0.77656282622206
  H   0.33438888737286      1.00382613911089      1.49216309004580
  C   0.45378562678168     -1.16685296388460      1.73336981247673
  H   1.51795774661505     -1.34729523714232      1.52624295136331
  H   0.31421201200770     -1.11770294927453      2.81775898686241
  H   -0.11448374582350     -2.03713749471806      1.38809756051063
  H   -0.53558468569193      0.97973845741344     -0.81056918012397
