15
Coordinates from ORCA-job run
  C   -0.19409058270851     -0.00564389813920     -0.32647455331514
  C   0.11891663493608      0.00588782902769      1.00062298657189
  Cl  2.02321991654252      0.10134359094877     -1.76472880017680
  Br  -2.73825010165976     -0.14338453074318      2.30148373061695
  H   -1.39155350379308     -0.07026504160385      1.40702619023493
  H   -0.39705171291849     -0.93864152743086     -0.83756803084359
  H   -0.48513971797088      0.90625522293593     -0.83306768383818
  C   0.51524968641942      1.29961092372133      1.66108961838008
  H   0.02677578721934      2.15312221555290      1.18557269693712
  H   0.25252920792685      1.29877324982450      2.72358010492452
  H   1.59806288844746      1.43259444749000      1.56352508017893
  C   0.64030427674865     -1.24707289032541      1.65269844242029
  H   1.72920822931121     -1.28003217084367      1.53912200340521
  H   0.22511940714831     -2.14104397856747      1.18186675937823
  H   0.39322958435088     -1.27159344184753      2.71858145512556
