14
Coordinates from ORCA-job run
  C   -0.20691907888101      0.02875091624222     -0.28865068137185
  C   -0.12793310086686      0.08998631611289      1.16070998874059
  F   1.06682505973353     -0.21845296887784     -0.99772571925863
  H   -2.33021958553862     -0.67859318622659      1.90779749610976
  H   -1.53114566378023     -0.17954769925934      1.56441442517897
  H   -0.82974349080010     -0.81734159848765     -0.61117474101267
  C   0.45167941654112      1.34670831820697      1.76285868443853
  H   0.02603397039689      2.24564848600569      1.29519515914563
  H   0.21497557171620      1.38458152695565      2.83402872490484
  H   1.55065536755495      1.41637955728572      1.67752055622945
  N   0.40706618635270     -1.11137743824005      1.78884004395362
  H   1.00547791156245     -1.61189995416529      1.14067497104190
  H   -0.38838861021468     -1.72024861330657      2.01377714977079
  H   -0.57581395377636      0.96074633775419     -0.73329605787092
