15
Coordinates from ORCA-job run
  C   -0.13108462683232      0.02999200844989     -0.37567081586164
  C   -0.13586396808147      0.00734510049780      1.07423829494731
  Cl  1.62149555195491      0.03277784018007     -1.22303500397128
  H   -2.45265824741030     -0.00087552136924      2.05338794921424
  H   -1.36382341582465      0.00992466163651      1.43621542081009
  H   -0.57897628211478     -0.85903444765624     -0.82204180610422
  C   0.41113692533471      1.25127275850013      1.73603334476807
  H   0.04034062500190      2.15435491756049      1.23736434093663
  H   0.06052916648471      1.28947573265632      2.77527547683886
  H   1.50916134450944      1.28912789865194      1.73189473377114
  C   0.38981095345787     -1.26625704448364      1.69527347597263
  H   1.48487233038644     -1.34239174846398      1.64964614490581
  H   0.07611475068269     -1.31103960101617      2.74571690518888
  H   -0.03313879418361     -2.14616568195003      1.19647603591703
  H   -0.56782631336554      0.93775312680616     -0.79434449733356
