14
Coordinates from ORCA-job run
  C   -0.29587267527687     -0.03706398545398     -0.21558144257750
  C   -0.13905677619690     -0.13324820911182      1.21340019283902
  Br  1.53713014847002      0.36552932976090     -1.31480512400982
  F   -2.55029829199368      0.43557020396449      1.66736001255229
  H   -1.41933347991021     -0.08600771966745      1.46545078689509
  H   -0.60720251165143     -0.95462251381585     -0.71347744392859
  H   -0.88207752925949      0.82237408805986     -0.52988268811988
  N   0.28159373884227      1.09467280331211      1.88665376311449
  H   -0.55317199738947      1.66472876258557      1.97524691065853
  H   0.95096946827941      1.58872082724099      1.30083831102141
  C   0.62436231907303     -1.33706424406326      1.71346904133602
  H   1.69943699549129     -1.24115046749547      1.50259849015996
  H   0.50217489276412     -1.42759034386501      2.79582101462576
  H   0.27098569875792     -2.26229853145106      1.24376817543323
