11
Coordinates from ORCA-job run
  C   -0.16867823720210      0.14236809758857     -0.33845680247410
  C   -0.00539840472975      0.12072052690946      1.09157530702402
  Br  1.66606595700413      0.05630081587293     -1.50665256117258
  F   -2.32466825490194     -0.77342045943705      1.46969967094847
  H   -1.27437333971862     -0.10165781770410      1.35079664235722
  H   -0.65455685684718     -0.74719418167878     -0.73046031514449
  H   -0.59703360657572      1.05885780120919     -0.74118929329565
  H   0.41666055671958      1.04233452223268      1.50197764508203
  N   0.59142137980900     -1.07383494674074      1.67797357155076
  H   -0.14744817889987     -1.76775241716428      1.71232432595996
  H   1.32891898534246     -1.41989194108789      1.07004180916437
