10
Coordinates from ORCA-job run
  C   -0.10384186937436     -0.00023244879809     -0.41791426683195
  C   0.20129905572380     -0.08277103655919      0.93105829238143
  Cl  1.65793569208103      0.41783704394415     -1.85449858354820
  Cl  -2.84395129290831     -0.04756473089901      1.99984917307116
  H   -1.60149572192773     -0.11262711134503      1.46885503042846
  H   -0.35254110509933     -0.91148857200581     -0.94665748299509
  H   -0.59669880582168      0.89758431454727     -0.76616277659314
  H   0.41112766631544      0.83088199931677      1.48100225498786
  C   0.72034621224913     -1.27934773191504      1.50319511489798
  N   1.12367016876202     -2.26613172628603      2.00597324420148
