9
Coordinates from ORCA-job run
  C   -0.26180407084782     -0.00098814972194     -0.31191342467445
  C   -0.11464155406020      0.03508676221480      1.05272107778593
  Cl  1.82110086080615      0.15851116927052     -1.67903909077965
  Cl  -2.90202629225361     -0.22296557579333      2.11586453125171
  H   -1.56801643712850     -0.09220463085279      1.44934097571466
  H   -0.42866882751980     -0.94515247447853     -0.81183930464507
  H   0.10162174398056      0.98588977571838      1.53088076399089
  H   0.26543950001817     -0.84534829461684      1.56227997459439
  H   -0.59230492299497      0.88179141825972     -0.84184550323841
