12
Coordinates from ORCA-job run
  C   -0.04522229237124      0.01668437645863     -0.48089563125280
  C   -0.12798574859697      0.02468313581180      1.00357144433698
  Cl  1.64874170031974     -0.25712140231101     -1.15055267213288
  F   -2.43189400670325     -0.35220946586387      1.89500186493511
  H   -1.35933388002342      0.04833233194875      1.33892955504268
  H   -0.37086936373202      0.96018010264204     -0.92028685783912
  N   0.21628808929656     -1.27452136995532      1.58005075376556
  H   -0.48506011696189     -1.45371587123894      2.28925353735653
  H   1.14042468234277     -1.27629887135802      1.99251592357249
  C   0.56465949076552      1.14405883357420      1.60550219450594
  N   1.11213446423839      2.05025183488320      2.12472794375807
  H   -0.63312301857417     -0.81674363459145     -0.86032805604856
