12
Coordinates from ORCA-job run
  C   -0.36760463736152     -0.04588109699400     -0.25043288623739
  C   -0.13787213909633     -0.05666528835476      1.10172609047713
  Cl  1.71361915278519      0.08463556536524     -1.63084633415763
  Cl  -2.87256822581007     -0.13780714769943      2.27945628993192
  H   -1.57422508240632     -0.10714140552519      1.51634072681653
  H   -0.62033721450448     -0.96285772906890     -0.76652224038461
  H   0.17170744188343     -1.00657946666668      1.53739677560514
  C   0.33396660256700      1.18177076256889      1.81683276584298
  H   -0.14313139335404      2.07178984227408      1.39838905794020
  H   0.09835704501322      1.14288990115159      2.88373898523236
  H   1.41578815953566      1.29384975669623      1.69409586489610
  H   -0.66566970925173      0.87641630625294     -0.73401509596274
