14
Coordinates from ORCA-job run
  C   -0.20624456470185      0.00697743240502     -0.29868230083027
  C   -0.15416528072444     -0.09339839665487      1.14376448951802
  Cl  1.49420290972700      0.40702934031638     -1.18610369345848
  H   -2.45741389657379      0.25727658866100      1.95902739476425
  H   -1.41070563204709     -0.08424400443323      1.47173378119032
  H   -0.49184241447401     -0.91912540863458     -0.79814657405976
  H   -0.81319621785649      0.84783520799933     -0.63756236216632
  N   0.25855131189025      1.11074473003726      1.84986979109626
  H   -0.59764289230564      1.61313571874219      2.09675383527189
  H   0.82033992348866      1.69959657835629      1.24505980847105
  C   0.50921564394875     -1.32952200937878      1.70311478365172
  H   1.60457791190783     -1.26972187731804      1.65024814243496
  H   0.22969819349001     -1.43438285625274      2.75680494501244
  H   0.18664500423079     -2.23396104384524      1.17213795910392
