12
Coordinates from ORCA-job run
  C   -0.04974458513929      0.16023276959391     -0.33245543291396
  C   -0.07331488331137      0.19677570262529      1.17108177542997
  F   1.27405808091661      0.01725647118528     -0.82604237330737
  F   -2.20479574907723     -1.35782579522278      0.50732915763904
  H   -1.13745838999009      0.26537706429961      1.39814762723304
  H   -0.67213098043084     -0.68795448407346     -0.61975147875483
  H   -0.43719536686146      1.08808331043846     -0.76923284156001
  H   0.47854955610822      1.06808122814300      1.55117026750509
  C   0.44586873066950     -1.11753526065595      1.77165498679344
  H   0.63928314774494     -1.84446847558958      0.98197997899681
  H   1.37310392298827     -0.97996099985585      2.34072428415046
  H   -0.32036348361723     -1.56094153088788      2.40498404878827
