10
Coordinates from ORCA-job run
  C   0.10646437759050     -0.13051948644611     -0.38114930895782
  C   0.01343447819410      0.15198691662861      1.09910710066875
  Cl  0.00970022593366      1.37320849646739     -1.36072773063126
  H   -2.48262358813480     -0.00879208504835      1.09483250588115
  H   -1.21420384995398      0.27379263022547      1.25271928374089
  H   1.02156161560211     -0.63394747396394     -0.69766915002987
  H   -0.77881812849742     -0.72246874994820     -0.64003419569935
  C   0.87386709313230      1.18835939213104      1.59987821204415
  N   1.53594942506193      2.05093915645723      2.05817004117213
  H   0.19955835107160     -0.78083879650313      1.64529324181123
