13
Coordinates from ORCA-job run
  C   -0.26171508015454      0.11738144787598     -0.26407913687295
  C   0.08776902605179      0.07819059329768      1.05809425288345
  Br  1.74575870852178     -0.80798223943825     -1.67142492903182
  Br  -2.81465099217380     -0.02622637475303      2.42494025086415
  H   -1.55516306194911      0.16202051870020      1.56725487066698
  H   -0.77136363830722     -0.73810088166252     -0.68086559452824
  H   -0.34535347719252      1.06578270346050     -0.77385283563703
  N   0.55338000642512     -1.07862280988117      1.67827211783223
  H   0.81619443969498     -1.76976624571953      0.98891348631952
  H   -0.02324023240416     -1.43888965809465      2.42411881334559
  N   0.55567246969176      1.33551432360972      1.68296877413604
  O   1.08388218376528      1.25741536949060      2.79204625375803
  O   0.30742964803065      2.39540325311447      1.10391367626405
