11
Coordinates from ORCA-job run
  C   -0.27603845297529      0.01014608030526     -0.21932339533878
  C   0.01031867718927     -0.22181403298592      1.08901888393331
  F   1.43953978699044      0.85475657913582     -1.02715803188597
  F   -2.71008105882036      0.18335475767553      1.69847666502082
  H   -1.85661619635759     -0.06810253260624      1.35475602161129
  H   -0.47516911375635     -0.81991655504801     -0.89280360412494
  H   -0.62323499122832      0.98195843010920     -0.53547913918634
  H   0.31684105518639     -1.21752832441142      1.40866091606106
  N   0.54431878515742      0.87959406782001      1.86726761734506
  H   -0.20415687424102      1.49138244421600      2.17539083539970
  H   1.09725838285539      1.38079908578978      1.17153323116478
