14
Coordinates from ORCA-job run
  C   -0.22612876370896      0.01915073010765     -0.29051941945992
  C   -0.18877733810952      0.09478462242401      1.15891491525271
  Br  1.63589734945338     -0.35382667263260     -1.23290097954118
  H   -2.50994968810403     -0.33467767751728      2.01042418470253
  H   -1.39659037858927      0.09393035926387      1.45925496686342
  H   -0.80315624005287     -0.83001126649209     -0.65679479571161
  H   -0.51721469474090      0.94607674345159     -0.78453784532765
  C   0.47733687898681      1.32443608180113      1.73412520468215
  H   0.12893063310898      2.24021776752779      1.24091675599411
  H   0.23176142800568      1.39134215816902      2.79795863219797
  H   1.56903701183441      1.26961467578747      1.63946991485625
  N   0.23459290059728     -1.11837368243925      1.84488692103938
  H   0.76217541743051     -1.71205763964159      1.21448708223706
  H   -0.62532451611152     -1.60088619980971      2.11763446221478
