12
Coordinates from ORCA-job run
  C   -0.12796091747227      0.02759329403201     -0.39262594378189
  C   -0.17493345734760      0.01769935188927      1.05275976604779
  Cl  1.65581656779911      0.00058065559661     -1.22159063539593
  H   -2.52612148770664     -0.16989362659699      1.93983044695738
  H   -1.42517453144184     -0.01275385079785      1.40227814231967
  H   -0.56277962098207     -0.86741444243790     -0.84010885490597
  H   -0.54204761237733      0.92829519291634     -0.84443074147008
  H   0.19754865297410      0.94807990409992      1.49549010365744
  C   0.38048288118588     -1.21305963103899      1.73322365952895
  H   1.47608189765140     -1.24734402955271      1.75566699272035
  H   -0.00023289434385     -1.26757769081106      2.76022049283613
  H   0.02960052206111     -2.11555512729865      1.21916657148616
