13
Coordinates from ORCA-job run
  C   -0.20616345345965      0.06142984133968     -0.29560741639213
  C   -0.29839038508146      0.22188818040712      1.12517813866589
  Cl  1.68200860226716     -0.22578023473801     -0.96908949600089
  F   -2.70462643641869     -0.39671774239793      1.53085946129222
  H   -1.65351724212487      0.07908626647074      1.28048419578201
  H   -0.47478434838024      0.94945265274196     -0.86101761393779
  N   0.23710907065172      1.49737669811413      1.57310426351631
  H   1.25402057681961      1.41733571680662      1.60139777135594
  H   -0.05639382097530      1.61202170837966      2.53677489737694
  N   0.14186701985623     -0.92219625192742      1.92512372200587
  H   0.88300713132228     -1.42430520406077      1.44223676286668
  H   -0.65566818207244     -1.53785123485256      2.03441910841825
  H   -0.66395853240435     -0.85117039628321     -0.66767379494930
