13
Coordinates from ORCA-job run
  C   -0.42222882581883     -0.07347812305510     -0.14103802735197
  C   -0.04372480016310     -0.07004612880504      1.18439598896676
  Cl  1.50685749790030      0.02266261803333     -1.72007912416198
  Br  -2.99826174650205      0.32548216434007      2.17581272241669
  H   -1.44308647626928     -0.00867166187875      1.27866710962527
  H   -0.70772680250946     -1.00948991941471     -0.59917646943578
  N   0.46630006269000      1.08290398028769      1.81145615302190
  H   -0.02202131966160      1.23589565051350      2.68700271919902
  H   0.37959979530366      1.89227139687829      1.21283728445916
  N   0.31783407473470     -1.23692303551629      1.90707220208375
  H   1.33068004248541     -1.27573545240878      1.94127974378330
  H   -0.03362589965510     -2.06705323191563      1.44804509810249
  H   -0.82836560253464      0.83275174294142     -0.56917540070862
