12
Coordinates from ORCA-job run
  C   -0.23370959599540     -0.05246996572895     -0.29105926734828
  C   -0.05106423849972     -0.00163326837878      1.05937507006844
  Cl  2.02306502208194     -0.05090671289286     -1.65420904572926
  Br  -3.00491677297315      0.11732045902584      2.13611256304895
  H   -1.57767644755295      0.02676158055511      1.37422891076177
  H   -0.45152317259163     -0.98864183234639     -0.78741669442365
  H   -0.42858455247291      0.85392892792411     -0.85042560859916
  H   0.17275094935835     -0.93882188058109      1.56810697343978
  C   0.39390280819286      1.25806788464350      1.75027643900211
  H   -0.03056732150169      2.13647096371685      1.25838371380895
  H   0.08477425985398      1.27289311209162      2.79865163527952
  H   1.48370906210032      1.33845073197104      1.69788531069085
