9
Coordinates from ORCA-job run
  C   -0.39656288952988      0.03344593360756     -0.32963280658409
  C   0.06707123314391      0.05727212391380      0.95690464158099
  Br  1.43319876854611      0.46225456950784     -2.34254639048266
  Br  -2.44146876564456     -0.50445581276547      2.76466663323042
  H   -1.25616609830209     -0.22133514808515      1.68324143987401
  H   -0.55426441388355     -0.90642869321699     -0.84060989591410
  H   -0.88696992831788      0.89832845191655     -0.75499972216324
  H   0.61911356362290     -0.79677337114930      1.33702482410050
  H   0.28529853036503      1.01213194627116      1.42531127635816
