15
Coordinates from ORCA-job run
  C   -0.35690427490786      0.03585056589487     -0.28730204023541
  C   0.06889646896909     -0.06962870330318      1.09641172324839
  Br  1.17209848111820      0.45085176339896     -1.70498522829990
  F   -2.38962772915695     -0.20483086279423      1.78276536392270
  H   -1.12195180554785     -0.22433818577399      1.53217910549372
  H   -0.75798032834720     -0.89138519950050     -0.69266873376773
  H   -1.03937241279162      0.86327643057322     -0.46705538525400
  C   0.57929405646238      1.22826105328151      1.68618856744765
  H   1.52252746022830      1.55606453116796      1.22369716592823
  H   -0.16404604344329      2.02069488096712      1.55232721004582
  H   0.74796820080378      1.12062068799507      2.76368815561693
  C   0.96777426088345     -1.25272178983458      1.38476436024649
  H   0.54177658246709     -2.17703635225202      0.97889013292067
  H   1.96969030570038     -1.12707323831407      0.94619189649768
  H   1.08893677756210     -1.39421558150615      2.46484770618875
