9
Coordinates from ORCA-job run
  C   -0.04447199107701     -0.01194549973648     -0.37806731002403
  C   -0.15373608337655      0.00419428021166      1.08046175347174
  F   1.29466852441992     -0.02979383611814     -0.96965483197225
  H   -2.66112625149396      0.03037497686240      1.49804995876374
  H   -1.61359304212266      0.01705852159244      1.33616947055178
  H   -0.52079588610712     -0.90307232732002     -0.80478768431825
  H   -0.50586099027985      0.87841159443270     -0.82246946552549
  H   0.26241651989066      0.91052438318718      1.53628323087451
  H   0.25461920014658     -0.89575209311174      1.55549487817826
