14
Coordinates from ORCA-job run
  C   -0.13843189526277      0.02064812401042     -0.31040045310458
  C   -0.10934572456035      0.11481149359942      1.13284690966804
  Cl  1.59958125020198     -0.22923414943318     -1.18214963345795
  H   -2.37198410778303     -0.42589176051271      1.95019254256746
  H   -1.36273327724172      0.01028621356217      1.45078419856722
  H   -0.49484075300706      0.92306683209817     -0.80779141488335
  C   0.45203490572278      1.39490129899962      1.70525866274691
  H   0.04450241368659      2.27621861438294      1.19398259760307
  H   0.17887366633035      1.45743269760430      2.76360761235917
  H   1.54757330964501      1.43148369242475      1.63745404639253
  N   0.38774982318326     -1.05884524912123      1.83588409737399
  H   0.98348417406476     -1.60943031190093      1.22762905330359
  H   -0.43351648398269     -1.61520588396306      2.08727393955345
  H   -0.66849730099712     -0.86600161175069     -0.66109215868954
