13
Coordinates from ORCA-job run
  C   0.11285163874107     -0.13596371561096     -0.35746365138453
  C   0.08484211611237      0.08549208027707      1.13486359149385
  Br  0.27635844040275      1.52300586883934     -1.38322171681108
  H   -2.39403616615784      0.19035098694753      1.16112094437119
  H   -1.07827794446460      0.42669387629973      1.29212229587563
  H   0.92749111281669     -0.77628487280167     -0.70418021628749
  C   0.08411324355673     -1.26806027217317      1.83718070477202
  H   0.91942332955565     -1.91339919481108      1.53909263700900
  H   0.11902120946312     -1.12981829497537      2.92132909674746
  H   -0.87036164524861     -1.75274481949406      1.59772773558364
  C   1.08876854888731      0.97686366233673      1.64850749814976
  N   1.86105667770870      1.71996023692016      2.14361057742885
  H   -0.86612056137335     -0.55161554175424     -0.62604949694829
