12
Coordinates from ORCA-job run
  C   -0.24907205173644     -0.04210490106675     -0.29970951729513
  C   -0.13385156105191     -0.05853623205456      1.14364483219667
  Br  1.57479960976790     -0.00326498374706     -1.40995941106553
  F   -2.57219561664282      0.56742253591382      1.51685255455383
  H   -1.38372811824000      0.09366609806184      1.39135553960420
  H   -0.72608018967413      0.85945170477797     -0.67858132582093
  H   0.27111206355520     -1.00019148959874      1.52794367817531
  C   0.49882272039419      1.16785476345470      1.76729629401824
  H   -0.07523108903590      2.05264002773239      1.47571819674747
  H   0.45230214526975      1.10878136753025      2.85943034566045
  H   1.54614409809424      1.31624605927504      1.47118267290847
  H   -0.70670201070006     -0.93324495027890     -0.72386385968304
