13
Coordinates from ORCA-job run
  C   -0.09418096418294     -0.07643095883052     -0.34569348924459
  C   0.18502003324353     -0.04649223078436      1.01059119386746
  Cl  1.74251817395745      0.29483469476129     -1.71151657008758
  Cl  -2.79820277538681      0.20673004345765      1.99671838246794
  H   -1.54926424490775     -0.00036650515374      1.47135727458824
  H   -0.31820504133936     -1.02642418981314     -0.81495583958918
  H   -0.57597572967799      0.79405885931333     -0.77428984677970
  C   0.54704497314545      1.25777027007364      1.68020042024361
  H   -0.04326662990065      2.07201443801907      1.25153507063728
  H   0.35234526262043      1.22489568291438      2.75557642261367
  H   1.60553939405649      1.48727876379063      1.51718909362297
  C   0.66905655471074     -1.23320272535877      1.64189685692688
  N   1.03990099366138     -2.20246614238948      2.20163103073296
