11
Coordinates from ORCA-job run
  C   -0.14141581525875     -0.01945671203026     -0.31363880115101
  C   -0.12398624464083     -0.14741082532952      1.12804217520760
  Cl  1.55197158189310      0.44704699347704     -1.17585117805765
  H   -2.44881079116201      0.32213010761515      1.77876664401736
  H   -1.41098587710352     -0.12204487286446      1.41686082914663
  H   -0.39940669505318     -0.94177470700470     -0.83476507284361
  H   -0.76455749700882      0.81301356455619     -0.64534160628458
  H   0.34463122431333     -1.07026365157376      1.48458842187436
  N   0.27424508238566      1.01831902125367      1.89591714724204
  H   -0.58181282562944      1.54577029174487      2.08606203969643
  H   0.90143785726446      1.60228079015578      1.35462940115241
