11
Coordinates from ORCA-job run
  C   -0.44160526003752     -0.01328995471071     -0.23989852746709
  C   -0.36795031860608     -0.10067158138362      1.12351085454005
  Br  2.14430633548421      0.05003370799609     -1.06432609360106
  Br  -3.30879632961556     -0.32525546898141      2.07832033329912
  H   -1.79010691979756     -0.20981729438375      1.31647668183329
  H   -0.51241234355600     -0.92346804317799     -0.82028993758070
  H   -0.24362835205444      0.83276547516646      1.67871529075284
  N   0.17920873342247     -1.29994598132277      1.66756608447955
  H   0.20361399476948     -1.26428299751864      2.67662180295571
  H   1.12344262316695     -1.39147912174421      1.30041152612049
  H   -0.72407216317594      0.91856126006056     -0.71337801533218
