12
Coordinates from ORCA-job run
  C   -0.12793637643345     -0.02748394421905     -0.39261250202312
  C   -0.17494148397231     -0.01750948730463      1.05275246110944
  Cl  1.65593547358299     -0.00153971857557     -1.22153349777222
  H   -2.52630992267913      0.16899096270313      1.93967444161764
  H   -1.42517015692554      0.01280626329466      1.40224602145722
  H   -0.54250624497411     -0.92796394539331     -0.84441083654293
  H   -0.56218484330921      0.86777557449439     -0.84014847209495
  H   0.19735097972456     -0.94790287962262      1.49560189742612
  C   0.38048700529335      1.21324267686862      1.73321869346606
  H   0.02914534031336      2.11575256048291      1.21950034495676
  H   0.00020223776631      1.26746849597456      2.76038950938322
  H   1.47608799161316      1.24778344129691      1.75523193901676
