13
Coordinates from ORCA-job run
  C   -0.14570753629573      0.03995143090559     -0.35520185679039
  C   -0.05677233327045      0.10724657168629      1.01814485348119
  Br  2.30500172801222      0.22508386940562     -1.16402230961808
  Cl  -2.88293595722637     -0.45612018058369      1.72052215177155
  H   -1.45567083499861     -0.08627698716804      1.15848604359682
  H   -0.26714312375816     -0.92627558134280     -0.82782028618374
  H   -0.49157400503934      0.91220496781957     -0.89717463193384
  N   0.23019385496061      1.39545049401608      1.56023612239068
  H   1.14022569538202      1.67875854848854      1.20170324142811
  H   0.28870443615677      1.30530407874603      2.56625491264585
  N   0.45983156582917     -1.00860581855923      1.77704141885514
  H   -0.13972535830789     -1.81706726107492      1.65428721400320
  H   1.37538186855576     -1.22577413233905      1.38395312635350
