13
Coordinates from ORCA-job run
  C   -0.24874945351486     -0.08318998455587     -0.29984226672241
  C   0.16872499376404     -0.06204156526509      0.99873146421599
  Cl  1.56968478127062      0.87349613430998     -1.73387248631053
  Br  -2.72566200571988     -0.04598889643297      2.44395640178178
  H   -1.49932592224559     -0.19905010463256      1.55250921635665
  H   -0.33028388381221     -1.02118404108415     -0.82785096230179
  H   -0.78841137672451      0.77245513921162     -0.67493030217597
  N   0.62046798172810      1.09304492003807      1.63293364313675
  H   0.07010373555924      1.40313664276809      2.42026540822223
  H   0.81093228485543      1.81731802349098      0.95498209052995
  N   0.67978788886322     -1.31805452538342      1.58612133445560
  O   0.43328531391528     -2.37419365126091      0.99992431011134
  O   1.24317566206109     -1.24611809120377      2.67861214870043
