14
Coordinates from ORCA-job run
  C   -0.37381868739445     -0.04684490664964     -0.16480902742668
  C   -0.07292894924134      0.02794631558821      1.17542345124176
  Br  1.76514599618247     -0.26686701493389     -1.66968320220591
  Cl  -2.77032496755179     -0.02006666812698      2.35082520988744
  H   -1.46201801206341      0.04075582551568      1.46318425333094
  H   -0.70429359036184     -0.98813686061512     -0.58589767008179
  C   0.39107863346325      1.32399424714884      1.78175307462043
  H   -0.10627460178015      2.17881365452135      1.31818137004012
  H   0.17868487916714      1.34068749282323      2.85411696379411
  H   1.47121598806656      1.40655332772787      1.63201315647425
  N   0.43408162532435     -1.12322662862768      1.85670698509590
  H   0.45109257701184     -1.92368597643970      1.23778610944932
  H   -0.14098234702930     -1.33426160705204      2.66556314467026
  H   -0.65763854379333      0.85191879911989     -0.69630381889015
