12
Coordinates from ORCA-job run
  C   -0.03324458688652      0.06366294906673     -0.39733751427578
  C   -0.08893745860123      0.07215449608910      1.05835603497588
  F   1.28447971889275     -0.11109737833363     -1.02137226708135
  H   -2.49253186879525     -0.38078812069849      1.59968343592140
  H   -1.51724068747910     -0.08920199489324      1.35272746061092
  H   -0.61307276700640     -0.77724833400410     -0.80502450882832
  H   -0.40482801139795      1.00027545844342     -0.82912127508691
  H   0.28233487886577      1.00157402990675      1.50730511691259
  C   0.43372098358807     -1.17488970811503      1.73196101761428
  H   1.50453396637693     -1.37987692208099      1.58494833946178
  H   0.24373140382787     -1.13541006341254      2.81328923516374
  H   -0.11962557138492     -2.04972441196797      1.35850492461176
