9
Coordinates from ORCA-job run
  C   -0.13047499597867      0.00624221583212     -0.37171254714706
  C   -0.24972985843795      0.00706745549247      1.07055366260956
  Cl  1.68333271803488     -0.02167798981621     -1.14447637592634
  H   -2.70045897920033     -0.02620030963849      1.73409430444355
  H   -1.53843550979938     -0.00638501842154      1.36629148647841
  H   -0.54807712276221     -0.88192739415033     -0.84403034271300
  H   -0.52150873083066      0.90650263468364     -0.84355276945171
  H   0.13711733860408      0.90885051743281      1.55153522488327
  H   0.14159514037024     -0.89247211141446      1.55207735682333
