9
Coordinates from ORCA-job run
  C   -0.15714897195860      0.00234209820507     -0.37073729961502
  C   -0.27745228033411     -0.00095949543719      1.07309819057279
  Br  1.82102601834072      0.00686303877567     -1.19651786094893
  H   -2.74594811967771     -0.01078869792498      1.80086590699638
  H   -1.51114652041734     -0.01322425213439      1.36402266299805
  H   -0.54370731304247     -0.89223577705562     -0.85514505658850
  H   -0.54378313509748      0.89989332614017     -0.84928651836434
  H   0.10497533188015      0.90290712695747      1.55244940088116
  H   0.12864499030685     -0.89479736752620      1.55185057406840
