11
Coordinates from ORCA-job run
  C   -0.26728089038926     -0.04355126441694     -0.21804662824447
  C   -0.13709699796743     -0.15837301060450      1.20914746432365
  Cl  1.42845711231139      0.30652615489640     -1.24223828814103
  F   -2.55658577993208      0.39074846718624      1.64600414127128
  H   -1.48100065502328     -0.08281905113061      1.47512127292933
  H   -0.83749057537760      0.82908547195640     -0.52814632104246
  H   0.37187063695310     -1.07098137599678      1.53256706417291
  N   0.33493619533866      1.02008631258911      1.93178946711653
  H   -0.45994686586588      1.64270396660679      2.02496404857671
  H   1.04701819789827      1.49696279738936      1.38551148137569
  H   -0.60647037794592     -0.95148846847548     -0.71473370233813
