13
Coordinates from ORCA-job run
  C   0.10308028535329     -0.12360445274503     -0.36234861211861
  C   -0.00394991600477      0.10937589505940      1.12454270926011
  Cl  0.10053071079775      1.40175467694017     -1.30965548888280
  H   -2.47433487238521     -0.05956904930040      1.07403107194797
  H   -1.21094946837038      0.31429988140086      1.23691474725910
  H   1.00246161117101     -0.66971054266049     -0.65998718472227
  H   -0.80410955374352     -0.66898684242743     -0.65022404967068
  C   0.87095463258959      1.12193159011394      1.64626221713203
  N   1.55367403538868      1.95662865084203      2.12678495492192
  C   0.12582448663472     -1.22113096599674      1.85475236773514
  H   1.02689254460672     -1.78361073397352      1.58013943224238
  H   0.13249001968730     -1.06087531518193      2.93615671075077
  H   -0.76995451572515     -1.80761279207087      1.61387112414500
