11
Coordinates from ORCA-job run
  C   -0.22985833596171     -0.03374391925197     -0.24741076206660
  C   -0.07739208408220     -0.03752589204046      1.11845789444737
  Br  2.01196503023661      0.21192037891597     -1.59792846783426
  Cl  -2.88853327475465      0.03051797398969      2.01353473862025
  H   -1.48816629431138     -0.07006006636457      1.30557478692337
  H   -0.45418232753160     -0.95922902926957     -0.76100749878147
  H   -0.51497754064844      0.88289889757451     -0.74696793287732
  H   0.17887292134164     -0.98156471036449      1.59952040526824
  N   0.37765842638198      1.12168284753169      1.82095432313881
  H   -0.30768673086190      1.42231940008616      2.50431941486078
  H   0.55700021019166      1.87257411919303      1.16724309830083
