12
Coordinates from ORCA-job run
  C   -0.19466303521842      0.02495807648905     -0.25065143221019
  C   0.09353451774973      0.10146197242190      1.10981829374287
  Br  1.70300134334377     -0.72832078430392     -1.53949280818057
  Cl  -2.82713779894861      0.07307526159402      2.07494474228667
  H   -1.53889267472902      0.24536396668379      1.54759660437160
  H   -0.76443268019161     -0.83477225808157     -0.58394559997205
  H   -0.36513527617916      0.94547401138358     -0.79985185655516
  N   0.41649684468632     -1.08747006064068      1.86253035150621
  H   1.11529698388719     -1.59810853880744      1.32556300249728
  H   -0.40462828176267     -1.67744469858223      1.94097255667477
  C   0.69601813988513      1.30238613601511      1.61304650140363
  N   1.15196191747735      2.30180691582841      2.03908964443496
