12
Coordinates from ORCA-job run
  C   -0.40517122871431      0.02711607639342     -0.30035323761281
  C   0.05063436275563     -0.00826752187351      0.98681739801630
  Br  1.62063812658416      0.44860725798302     -2.13515277038354
  Br  -2.55313741940231     -0.39863380908171      2.68469647279283
  H   -1.33423185935417     -0.18557837855396      1.61862859355858
  H   -0.63588675878423     -0.88602902863511     -0.83385400640970
  H   -0.80125321775562      0.94591562583670     -0.71496470948178
  H   0.47508395238240     -0.94818050840912      1.33816250857123
  C   0.52384078772599      1.23809676578626      1.68382613144462
  H   1.55422746660023      1.45144341534488      1.38300266466176
  H   -0.09182109729611      2.09534025965519      1.40091911427201
  H   0.48123688525835      1.13178984555392      2.77078184057050
