12
Coordinates from ORCA-job run
  C   -0.08075675932819      0.04710237592684     -0.37065233840626
  C   0.02555500391041      0.01002367425304      1.00493556133224
  Br  2.14569088138140     -0.51720227312915     -1.37391484481056
  Br  -3.09946996921085     -0.02137466995201      1.76750531830129
  H   -1.63085500421440      0.09951599565147      1.26206091941509
  H   -0.51044158260485     -0.82178285799564     -0.85155579454228
  H   -0.17391852142707      1.00207629793251     -0.87242146424927
  N   0.27069975229538     -1.27688721744378      1.58915673554092
  H   0.23352858969996     -1.23299303116933      2.59899228329804
  H   1.19682922361491     -1.58009245040199      1.29361436334899
  C   0.50760047099905      1.17322858141842      1.70045630241900
  N   0.85163791488422      2.10484557490966      2.33526295835280
