14
Coordinates from ORCA-job run
  C   -0.21917898074504     -0.00244914281455     -0.29051146187571
  C   -0.18301117647019     -0.09774656830426      1.15768102170130
  Br  1.64279112485956      0.38787364700300     -1.22599424411085
  H   -2.50448202116535      0.32301126719014      2.00622278064620
  H   -1.39304476969521     -0.10268356068739      1.45699739109028
  H   -0.50745381421062     -0.92331991764173     -0.79741519127942
  H   -0.79820181218032      0.85011415496159     -0.64554433001961
  N   0.23559979379049      1.10697659394685      1.86071761200773
  H   -0.62625789537264      1.58644844956586      2.13288150176099
  H   0.76825248665869      1.70777825404339      1.24117212133050
  C   0.48613717381106     -1.33354044288109      1.71595278750466
  H   1.57722754391553     -1.27983042764372      1.61277419748463
  H   0.24943231986457     -1.41011453856777      2.78106721749962
  H   0.13232002693949     -2.24416776817033      1.21704859625967
