12
Coordinates from ORCA-job run
  C   -0.28192169224242     -0.05971112448074     -0.29290629955900
  C   -0.07658231506232      0.17544346675363      1.16714402152580
  Br  1.36710932116595     -0.32686273497930     -1.35037713491333
  F   -2.54246040503527     -0.13504436832299      1.04811189466598
  H   -1.25633280433901      0.23253277247524      1.42365379005094
  H   -0.90729514092917     -0.93165082500353     -0.44107433015580
  H   0.27180948119668     -0.76065264451167      1.61265021966723
  N   -1.02527604803826      1.06088404430910     -0.97106835910710
  O   -0.92108450265936      2.18620117430928     -0.50015865322900
  O   -1.65684677766316      0.75894183437336     -1.97760889926325
  C   0.79693856686507      1.25853217649467      1.54884445705094
  N   1.50874231674128      2.11037622858295      1.93884929326659
