16
Coordinates from ORCA-job run
  C   -0.10540956822553      0.09483228346261     -0.27610502920637
  C   -0.20877755569612      0.11046594073216      1.19396785341215
  Br  1.78265199841123      0.03323491382953     -1.04943205927647
  H   -2.43416044052040     -0.97017621078128      1.72556970702470
  H   -1.38369426554659     -0.08881844076894      1.36858004103218
  H   -0.57796163194943     -0.79340969524824     -0.68997160638657
  C   0.28838022981976      1.33869864502644      1.92370702232326
  H   -0.21409266646650      2.25448004847020      1.60654248511141
  H   0.09254831640267      1.17742234346253      2.98604037179685
  H   1.36890030154439      1.47202044431831      1.79268583713495
  N   0.31534161849836     -1.11683337235960      1.77619918329554
  H   0.99635489191752     -1.55885463259679      1.16976935109411
  H   -0.50442858825057     -1.72650353290958      1.88411371604337
  N   -0.77875850260957      1.25677842619512     -0.94117801660306
  O   -1.81684502641447      0.99212821309327     -1.55059332569713
  O   -0.30155911091476      2.38069462607425     -0.81119553109892
