15
Coordinates from ORCA-job run
  C   -0.27277071913359      0.02111278565472     -0.26098395453039
  C   -0.26150501847755     -0.07896613497584      1.13520036407843
  Br  2.02468878741730      0.12880347116179     -1.01649770761540
  Cl  -3.05290469181399     -0.10534300233534      2.02854963070980
  H   -1.62312033485192     -0.10103088159317      1.38593889645723
  H   -0.55099971534501     -0.86012451121185     -0.82473843420754
  N   -0.78946482215150      1.21991850401789     -0.92417323480080
  O   -0.75556372807609      2.30556001056263     -0.34095786396761
  O   -1.25308838976512      1.05074336468500     -2.05454716652590
  N   0.17382306072038     -1.38241039181278      1.53611251737360
  H   0.11685913745880     -1.42240475203438      2.54687445609867
  H   1.14965069190239     -1.48347211084918      1.25780946984193
  N   0.17920645658618      0.99076660257654      1.99159240610796
  H   1.12151040702935      1.23298416366350      1.67916632818880
  H   -0.39481112149961      1.80860288249048      1.82642429279122
