15
Coordinates from ORCA-job run
  C   -0.40795879788879     -0.02553470072311     -0.20292920070668
  C   -0.09995506467536      0.05597924831544      1.16192029544995
  Cl  1.43902510400240     -0.28179711449788     -1.50830954729296
  Cl  -2.72173864923742      0.17447962709830      2.48258369700000
  H   -1.41706091284424      0.13586131887625      1.58338029185707
  H   -0.85580321321928     -0.94675459980018     -0.54897392720471
  N   0.58602470378824      1.15874384089446      1.71388456662253
  H   0.37584290522797      1.20534124772994      2.70332442458736
  H   0.33551753355763      2.01811212343960      1.24499564372192
  N   0.31836620230878     -1.16096744308362      1.80420906267847
  H   1.18948160476626     -1.44928087148711      1.36285997120830
  H   -0.37542469183789     -1.88453509531794      1.65829647668184
  N   -1.04340375235699      1.10671170122935     -0.86829675520644
  O   -0.75261280923792      2.25314845190035     -0.50990607635451
  O   -1.84826016235338      0.84105226542615     -1.76411892304214
