11
Coordinates from ORCA-job run
  C   -0.24355894953398     -0.01137272596042     -0.23981196986041
  C   -0.11470125657450      0.07630006812865      1.20242494255884
  Br  1.49597085150928     -0.16806433263211     -1.35666497939576
  F   -2.61352587887887     -0.26956461393960      1.27692536892395
  H   -1.37571155394382      0.01225207849939      1.43334444648458
  H   -0.82633131331465     -0.85615519076155     -0.58869111316167
  H   0.40988862734703      0.97186838614623      1.53176778989225
  H   0.33261951886126     -0.83544821138657      1.60299225934981
  N   -0.89768976347095      1.20261136839500     -0.84269748462265
  O   -0.61781392123001      2.30048351489703     -0.37264303060568
  O   -1.66027636077078      1.00924965861394     -1.78583622956326
