13
Coordinates from ORCA-job run
  C   -0.30122029820243     -0.02102613292724     -0.20383057480445
  C   -0.16395360737841      0.17041680938706      1.22217652897196
  Cl  1.29744997291476     -0.46492043262940     -1.19977626751257
  F   -2.52960835458430     -0.45291121635387      1.71694392859337
  H   -1.48138374468105      0.09774380392896      1.52638579698668
  H   -0.96659087253247     -0.83336121525227     -0.47859670656265
  H   0.39142828564157      1.07307283989483      1.47846447191127
  N   -0.80512202340684      1.20062260901005     -0.90388483514309
  O   -0.25035971193365      2.27058030389005     -0.66945844913477
  O   -1.76049451690529      1.05127226367265     -1.66635625405255
  N   0.28974266391549     -1.01214420888734      1.94584299545901
  H   0.97704833672525     -1.52938682923856      1.40615128702923
  H   -0.52548612957262     -1.59817859449487      2.08534807825855
