15
Coordinates from ORCA-job run
  C   -0.08376218184846      0.01103397102948     -0.43586493102980
  C   -0.12984093439067     -0.09157107931940      0.99803834140388
  Cl  1.67280378678023      0.27860475032123     -1.23820065217389
  F   -2.17464215051613     -0.06565030731762      2.37975314826768
  H   -1.38075565939487     -0.05868499586414      1.48989701148789
  H   -0.42560294061351     -0.88761131643940     -0.93285298799090
  N   -0.87502002619420      1.15055076439848     -0.99579866136564
  O   -0.61528266352185      2.29377888736461     -0.62858683929834
  O   -1.77218613436748      0.85463702639152     -1.78669396278165
  N   0.28536196468575     -1.42561740555355      1.40472131585608
  H   -0.25959962502168     -1.64630458157184      2.23159690280204
  H   1.25874802900232     -1.35910571582209      1.69325231585650
  N   0.54498143667408      0.96708232114431      1.74746951673029
  H   -0.10449345065231      1.25076005487729      2.47477737340963
  H   0.69369054937877      1.77066762636111      1.14903210882623
