13
Coordinates from ORCA-job run
  C   -0.13256634632405     -0.10040558616985     -0.28372744072990
  C   -0.25424285637903     -0.16702029113106      1.17229749260697
  F   1.17031441425080      0.11349202145802     -0.79713048041402
  H   -2.33497736047770      0.86103485391451      1.94083595138589
  H   -1.47484884155641      0.17154694484656      1.49266916422392
  H   -0.05748829705531     -1.18593094326733      1.52285499990988
  N   -0.92529107050328      1.06608732452670     -0.81725218754052
  O   -0.47596430693295      2.19647829371409     -0.63618588946443
  O   -2.01699441366782      0.80849080035056     -1.32763156876310
  N   0.44771928125935      0.85207157268006      1.92622685451809
  H   -0.26460990547870      1.53696222749498      2.19933819689264
  H   1.12701970495799      1.32732205452013      1.34664793548757
  H   -0.53752000209289     -0.97402927293737     -0.79457302811299
