15
Coordinates from ORCA-job run
  C   -0.23820508055689     -0.05768242227168     -0.25902052729948
  C   -0.14269845522591      0.11593719235575      1.23085022428660
  Br  1.35402955881626     -0.76924506172528     -1.12064824760782
  H   -2.36784220229177     -0.76153178489813      1.80743155752690
  H   -1.27114895536599      0.19282363559184      1.55188789212527
  H   -1.03269269756919     -0.80015954970229     -0.39924886510104
  N   -0.73379725739748      1.17903459873880     -0.98611775483168
  O   -1.58458139534593      1.81435646785711     -0.37494919690771
  O   -0.34946799771925      1.40988922407176     -2.12489983989672
  N   0.25975167175296     -1.03455360895314      1.95275394258380
  H   0.86136320221264     -1.64167361205486      1.41248270720882
  H   -0.62633557116474     -1.50215410011076      2.19399666686899
  N   0.64366088924945      1.31249734252255      1.60727119794074
  O   1.10280094266676      2.02362353760406      0.70029248780691
  O   0.75690334793912      1.56366814097430      2.80553775529644
