16
Coordinates from ORCA-job run
  C   -0.07399922753047     -0.00277083786052     -0.39314383887993
  C   -0.26882798032820      0.05062445690416      1.04419695683885
  Cl  1.72912062177817      0.05206652039593     -0.99543797301831
  F   -2.42628922601815      0.03832795846194      2.27344834965345
  H   -1.56183467066831      0.00114215181528      1.47711343806990
  H   -0.44494330707757     -0.91838416261923     -0.84644946738897
  N   -0.77779134574557      1.11792760135743     -1.11387097102778
  O   -0.23101524215353      2.20120338621335     -1.25871702708054
  O   -1.92341799111472      0.84278128437130     -1.47623909533403
  N   0.14423925796219      1.31787853412175      1.62010431232539
  H   1.11936351891139      1.29239556241088      1.90907917814179
  H   -0.43579649191483      1.47261064572692      2.43597000718879
  C   0.30248074865914     -1.17764824171577      1.73289294975680
  H   1.40345524758196     -1.15894404451189      1.77298070296324
  H   -0.00161620102452     -2.10465163310672      1.23226443051682
  H   -0.09113771131698     -1.21115918196481      2.75193804727454
