12
Coordinates from ORCA-job run
  C   -0.76146881490997     -0.00533169719887     -0.18295645653507
  C   -0.31856115483239     -0.04283809896953      1.25331172813775
  Cl  -0.32897019633552     -1.46115049455273     -1.06828534183557
  H   -2.72478559321060     -0.83830642921764      1.55557944612630
  H   -1.21480420377114     -0.65595967963648      1.69187103382751
  H   -1.86653835764689      0.04273827507003     -0.12040852087715
  H   -0.46096951580303      0.95055584222955      1.68562160567493
  N   -0.27689417081947      1.23037004097461     -0.89748410641930
  O   -0.69332456743352      2.28340000526271     -0.41312754103179
  O   0.46166195298724      1.14831338485243     -1.87404361480515
  C   1.01894738521761     -0.53086583042599      1.49800837867998
  N   2.08877723655768     -0.94612531838808      1.75996338905755
