13
Coordinates from ORCA-job run
  C   -0.04781728322905      0.02270452886872     -0.31957200215097
  C   -0.06620887973743      0.20266270096833      1.12627039489577
  F   1.20918371819894     -0.26246548520483     -0.92868372388734
  H   -2.27131924353393     -0.56520996037926      1.74413953012694
  H   -1.38992739300242      0.02616009610595      1.43008048281749
  H   -0.71782105373164     -0.77586578910025     -0.64841918233567
  H   0.37819155150522      1.14822642565225      1.44405246181410
  N   0.40663659309416     -0.95096106204718      1.86803711192429
  H   1.05122633033650     -1.51094858896219      1.32443474240852
  H   -0.42145497308154     -1.51865031567991      2.08434938543741
  N   -0.52500994194450      1.27231641492023     -0.99849595700213
  O   0.19682949069778      2.26684332165848     -0.93153293757645
  O   -1.62093891557207      1.23396771319965     -1.56294030647198
