13
Coordinates from ORCA-job run
  C   -0.09021660477301     -0.01171143997773     -0.37391975873220
  C   -0.37205535175107      0.03566336982452      1.05340111287162
  Cl  1.72777176910541      0.05526548275313     -0.87952080406228
  F   -2.60535157091694      0.16953990093446      2.14696959058030
  H   -1.67960787175594      0.01769329936329      1.42847769664890
  H   -0.44155314736414     -0.92536646757946     -0.84629787673459
  H   0.02342643198851     -0.88861176219362      1.50464222599208
  N   -0.75897770293783      1.10971096756724     -1.13073511154180
  O   -0.22056800480040      2.20366016632679     -1.21711241436654
  O   -1.87216912282718      0.82596570993224     -1.57739736239041
  N   0.05243579831126      1.27121210215815      1.68936014878732
  H   0.98644696259047      1.20578981436071      2.07594216427953
  H   -0.60786158486912      1.45289885653029      2.43407038866805
