17
Coordinates from ORCA-job run
  C   -0.20874452480995      0.01569889813399     -0.23783475217548
  C   -0.11086308890807      0.08968895994167      1.21852191986726
  Br  1.57072322587743     -0.09191831394629     -1.27891083647193
  F   -2.55268600605097     -0.55553493957848      1.34058113662700
  H   -1.33660400043069     -0.00677467029527      1.41711848470180
  H   -0.74648781225268     -0.86975435652545     -0.56123347920250
  N   -0.92143851276205      1.15198742812656     -0.91646515662846
  O   -0.64300473773057      2.30536984604456     -0.60001107542195
  O   -1.74671387934536      0.83842078761259     -1.77209622383386
  C   0.64364242312132      1.25040553212810      1.83397403019904
  H   0.21883965719610      2.21538997883704      1.56356846241993
  H   0.61055740435601      1.15691325398778      2.92463605475508
  H   1.70118701540975      1.24999883869910      1.53090681247463
  C   0.36453190208634     -1.25351037912625      1.75468469517816
  H   0.30965382464624     -1.24422053231333      2.84776683601911
  H   1.39751536780669     -1.48958953687736      1.46226518280249
  H   -0.30633825820952     -2.04303079484900      1.40934790868971
