16
Coordinates from ORCA-job run
  C   -0.26000383452851      0.03742108163652     -0.26149888763866
  C   -0.25740040502483     -0.06615054305717      1.12726477499470
  Br  2.06825108474834      0.01022818520561     -1.06633587907076
  Cl  -2.96284739342391     -0.21393968580221      2.20620660603120
  H   -1.62368430842025     -0.11354138004918      1.43037538322049
  H   -0.52883186551933     -0.84130064605093     -0.83125785414516
  N   -0.72396524731882      1.24491968586984     -0.94013233514275
  O   -0.49396040816702      2.35083380933253     -0.45072865540055
  O   -1.34684128661867      1.05957382621441     -1.99037250374711
  N   0.16821515508084     -1.39175230883297      1.49682663038345
  H   0.04863210296947     -1.52570594601668      2.49333936662875
  H   1.15422810004550     -1.48258493223679      1.25545869422496
  C   0.18223776051401      1.06439038833742      2.02798871845168
  H   0.02006949864070      0.76744324337819      3.06774358493452
  H   1.25137913613722      1.24325165289363      1.85998422377725
  H   -0.36066808911476      1.98766356917779      1.84134813249800
