12
Coordinates from ORCA-job run
  C   -0.37461157369365     -0.00333595264417     -0.30888233886351
  C   -0.13838752407630      0.15405182314270      1.16151461567778
  F   0.63187268928199     -0.64534569803681     -0.98374193614537
  H   -2.50937185467869     -0.72973957206036      1.42088829926752
  H   -1.24334146900383      0.01024805985312      1.56243552027084
  H   -1.31659669980915     -0.57045920978088     -0.41305858513207
  H   0.35411891338387     -0.75947301445369      1.50796947074408
  N   -0.59932414702863      1.32070444827270     -0.98476923211183
  O   -1.34118285585387      2.09774880319674     -0.39104091357310
  O   -0.09161927955221      1.50980385779502     -2.08732356430604
  C   0.60830307963821      1.31554682332170      1.58338869107551
  N   1.22064072139227      2.23717963139394      1.98579997309621
