11
Coordinates from ORCA-job run
  C   -0.12728267224939     -0.03798020104211     -0.33905985520767
  C   -0.18396415596563     -0.04618544996600      1.11030755948671
  Cl  1.57883188950019     -0.12566312119640     -1.16017191828996
  H   -2.66520316806179     -0.27120322772389      1.77187965882219
  H   -1.39569171725338     -0.10274963971799      1.43823426046775
  H   0.23373480253290     -0.97025319436823      1.51518295049802
  N   -0.72135492669243      1.21848610225081     -0.91113631970943
  O   -0.40232464485277      2.29078233671614     -0.40876891966345
  O   -1.49731135559815      1.07913337595779     -1.85661749163213
  H   0.27950064454319      0.83277339413777      1.55777968773085
  H   -0.66459469590275     -0.85143037504788     -0.81960961250288
