15
Coordinates from ORCA-job run
  C   -0.04556298004907      0.02829548181984     -0.46795031210930
  C   -0.11009264806276     -0.08348754122543      0.98429757079235
  Cl  1.65031438386800      0.34253354295197     -1.23376725743632
  H   -2.06814483469891     -0.06063117028084      2.38645121386481
  H   -1.28125667854384     -0.05273253924858      1.38831878725605
  H   -0.38932048952738     -0.88014412660407     -0.94832185607033
  N   -0.91213466931993      1.13597412623637     -0.98303125116073
  O   -0.66647663169268      2.28906598221034     -0.63481844238150
  O   -1.85983802538159      0.80246435088547     -1.69678067773809
  N   0.28732209046868     -1.40965521923824      1.40253136566819
  H   -0.33134779936411     -1.63294448457945      2.18632908750309
  H   1.22927502698045     -1.33475130105082      1.77494606762097
  N   0.54945258700510      0.96631641871514      1.74326804878924
  H   -0.09058140159363      1.14496445029867      2.52439554575604
  H   0.57503206991168      1.81642202910963      1.19038210964551
