16
Coordinates from ORCA-job run
  C   -0.31447242671161     -0.01022275439750     -0.16348947499619
  C   -0.21247701574179      0.15484905328555      1.27649634778091
  Br  1.49158195176015     -0.38505040808478     -1.18534933166663
  F   -2.57513701649521     -0.58291917314982      1.62567225195927
  H   -1.48115436862046      0.06268500529686      1.50355017315467
  H   -0.90649873869064     -0.87835528936381     -0.43331491397359
  N   -0.90196888618780      1.13519239298500     -0.92973456286780
  O   -0.41302737851372      2.25424185525903     -0.80001895789793
  O   -1.86532784878251      0.86676128401121     -1.64863202122231
  C   0.56417289666822      1.32633854094958      1.82902150707381
  H   0.16361774168645      2.28844992844237      1.51041872122494
  H   0.52538597276649      1.26290955364620      2.91852012602274
  H   1.61990447650213      1.28219038988509      1.52448271302465
  N   0.18507224805612     -1.10207425573312      1.91517102483577
  H   0.88745070777740     -1.58144477206232      1.35723802845762
  H   -0.65637231547323     -1.66868135096956      1.95656836909004
