13
Coordinates from ORCA-job run
  C   -0.35170416672019     -0.06885028137932     -0.15053043379985
  C   -0.18457473830444     -0.14609138127551      1.23162915340316
  Br  1.76588966607805      0.02803319096739     -1.35305370481389
  Cl  -2.93482801665817     -0.26801914632817      2.34574166457467
  H   -1.59168335447108     -0.18550854436864      1.67364219384956
  H   -0.74022086115157     -0.93453101132024     -0.67362302108383
  H   0.07316731308755     -1.15496174346578      1.55514877013384
  N   0.40749849069672      0.86985785481685      2.05309661416503
  H   1.40141295800197      0.88780857987062      1.82705734762181
  H   0.03914282055002      1.76634414149535      1.76293244065854
  N   -0.93170223726557      1.14466064399179     -0.74941026039632
  O   -0.73979371340650      2.23391666777302     -0.20534324846232
  O   -1.61402416043681      0.98217102922263     -1.76161751585040
