16
Coordinates from ORCA-job run
  C   -0.07667981801289      0.03182880810412     -0.43462169871177
  C   -0.22294921544235      0.00415809877042      1.00939865898270
  Cl  1.69816137300599      0.20245644898002     -1.11794186147093
  F   -2.38064506746384     -0.21905489268562      2.21696307034843
  H   -1.50385042960787     -0.00593692725284      1.43924597231712
  H   -0.42169518842007     -0.88731223698541     -0.89370806558013
  N   -0.83153601341951      1.14431260805413     -1.10305313660852
  O   -0.51029180803400      2.30758994598204     -0.88159232109001
  O   -1.77086834019935      0.79875482385162     -1.82193068612423
  C   0.40968338308430      1.12965252046221      1.80159123607405
  H   0.13535436106538      2.11410149632591      1.41939614705372
  H   0.05393038497203      1.05182848466237      2.83262693371551
  H   1.50900985991966      1.05979806599828      1.79781060719390
  N   0.15619818277413     -1.33226349763771      1.47319760596566
  H   -0.48040614482019     -1.55363220967895      2.23118243254906
  H   1.10387448059858     -1.32031153695055      1.84279510538546
