13
Coordinates from ORCA-job run
  C   -0.35409643308482      0.00660331505603     -0.23282743479443
  C   -0.13278913587370      0.07402929033340      1.12134770344124
  Cl  1.73890762590448     -0.45423525629943     -1.47564403710447
  Br  -2.99085414899279     -0.24592477441884      2.32172614601166
  H   -1.64219724797901      0.00775529066727      1.47839270519129
  H   -0.70925474668226     -0.88304648760594     -0.72865819118856
  H   0.06959639757676      1.05359053012831      1.54996814878820
  N   -0.77845487772733      1.21597823484964     -0.91279903317891
  O   -0.43712214940536      2.30625289585829     -0.45163578721334
  O   -1.49408014093857      1.06292142098826     -1.90598426251806
  N   0.42303308742481     -1.04026778859334      1.78777286661719
  H   0.62091449758660     -1.79365800793286      1.14289920686581
  H   -0.14215272780880     -1.35821866303076      2.56485196908238
