17
Coordinates from ORCA-job run
  C   -0.21012170479808      0.02978345449094     -0.27899197842466
  C   0.01175903965891      0.04878725584717      1.08978413691086
  Br  1.92884740175062     -0.07490310597673     -1.55175673386014
  Cl  -2.60037590495561     -0.07383445070566      2.45490168389652
  H   -1.37423190609959      0.00383523989082      1.61004309344503
  H   -0.56854100223390     -0.87579327800393     -0.75103360778523
  N   -0.78527820199865      1.18611713577138     -0.97321181766259
  O   -0.44470223065143      2.32309582310454     -0.64992209981719
  O   -1.61578793335637      0.92434831171634     -1.84832091622977
  C   0.52265421851918     -1.26847794513149      1.62584980605914
  H   1.60177994637845     -1.33299764621614      1.43929852548760
  H   0.33619120219636     -1.34531227131879      2.70056892607669
  H   0.04439944418566     -2.11891354385170      1.13370654237819
  C   0.55225952087618      1.26257908345836      1.80308725630197
  H   0.60557355631472      1.05630383784737      2.87556701503343
  H   1.55957544927963      1.47735340164712      1.42517130750346
  H   -0.05901089506607      2.14923869743039      1.64817886068668
