13
Coordinates from ORCA-job run
  C   -0.32897979006783     -0.04540622608270     -0.19961577431979
  C   -0.10818601395558     -0.03802750257579      1.17221029957292
  Cl  1.65371036141371     -0.20735896919604     -1.46429523320975
  Br  -3.00055445443144     -0.25056429548419      2.32608057858967
  H   -1.54533488456313     -0.07082816262758      1.55917643186692
  H   -0.78245943758431     -0.92032444034664     -0.64519056864922
  H   0.10553969067070     -1.02801911989205      1.57050841754715
  N   0.45381325283004      1.01472762039259      1.93741392091545
  H   1.40022230297622      0.77065514639327      2.20206918026265
  H   0.46899677145890      1.86305585108927      1.38957042102635
  N   -0.81536675121581      1.15859078453546     -0.86790192911321
  O   -0.50939069958846      2.26224549519797     -0.40598516613980
  O   -1.53067034794305      0.99322381859644     -1.85622057834934
