12
Coordinates from ORCA-job run
  C   -0.16699857896893      0.01043996427530     -0.22395592738722
  C   -0.15910699847149      0.19262556141156      1.25951626463427
  Cl  1.35971254327210     -0.55166220802193     -0.94715269152713
  H   -2.38157850291410     -0.89952594567732      1.13282031243326
  H   -1.32210877916526     -0.09450619399725      1.46631229087502
  H   -0.95196195660666     -0.74941835762153     -0.41348347581862
  N   -0.65366142972858      1.24415786048196     -0.94416855884457
  O   -0.34206860331261      1.40964736526008     -2.12023721921286
  O   -1.43144786321037      1.94977302443407     -0.30806636844090
  C   0.38514193333409      1.42814759324266      1.75965284491388
  N   0.80443563014260      2.42253043038268      2.23262218188848
  H   0.35884260562920     -0.66112909417029      1.70504034648639
