14
Coordinates from ORCA-job run
  C   -0.22664585788993      0.03115589983987     -0.26445088025192
  C   -0.08823506929522      0.09598695761447      1.17589509806648
  Br  1.51761898830964     -0.15258017294752     -1.38725192689935
  F   -2.48256688592199     -0.66324555692990      1.37201507512249
  H   -1.32033954282789     -0.06197174419654      1.41672763848703
  H   -0.82267480534691     -0.80664631304214     -0.61182082409760
  H   0.37219647487758      1.02829387412754      1.50431704804435
  N   -0.85771865046886      1.25918794645886     -0.85299099767574
  O   -0.52949995535024      2.35327002424592     -0.40344722663841
  O   -1.66707538261249      1.08245466529274     -1.76154248264892
  C   0.51613237531109     -1.15726918828139      1.77939991803716
  H   1.53347828847236     -1.36783130905715      1.42562002381732
  H   0.54138604684884     -1.06845778097941      2.86941194000883
  H   -0.13049602410597     -2.00627730214538      1.54462759662830
