16
Coordinates from ORCA-job run
  C   -0.31049902843876     -0.00690641101352     -0.31611277033354
  C   -0.18392510909646     -0.01652864113387      1.06259454256197
  Cl  1.93745981956363     -0.26876779187800     -1.18692060897398
  Br  -3.00829752066272     -0.01942694595912      2.29060834807072
  H   -1.60234927011535     -0.02335565535750      1.41612902910720
  H   -0.61526162622676     -0.91473393938295     -0.81580625417824
  N   -0.71897840310972      1.16619135941968     -1.06136025969353
  O   -0.43049765559007      2.28968803072456     -0.64342243696864
  O   -1.35402425560941      0.94835638405654     -2.09888276699255
  C   0.26814803831630      1.17090709904793      1.87391918136746
  H   -0.31767036855666      2.06417479617346      1.67344355534745
  H   0.17874566198818      0.92588539668384      2.93615427138141
  H   1.31708613105167      1.37413309304352      1.63107838379574
  N   0.23747153153843     -1.31053900692573      1.50096167236275
  H   0.34733043925186     -1.33121167256594      2.50569139357389
  H   1.12255161569588     -1.52189609493288      1.04328471957189
