16
Coordinates from ORCA-job run
  C   -0.17039542982460     -0.03127207505601     -0.42102912706280
  C   -0.26743062032511      0.04607093509297      1.02597608871251
  Br  1.76294096073649     -0.03726745465657     -1.19641854532308
  F   -2.31739717275719      0.11316093192954      2.41336088447773
  H   -1.47498667396256      0.02137824023484      1.47270189749615
  H   -0.57130282030185     -0.94899435617684     -0.84258633311353
  N   0.16864492831841      1.31965241500766      1.56648959611232
  H   1.14949271925936      1.28871104933665      1.83096117437240
  H   -0.39792125289997      1.47635092480318      2.39224027641343
  C   0.32477492872934     -1.17741978718845      1.70524177703329
  H   1.42451784096568     -1.15197879082424      1.70648461211262
  H   -0.04370634278420     -1.19361968313707      2.73310852956933
  H   0.00711321796712     -2.10847261550787      1.22179695042155
  N   -0.88629766449836      1.09072231861369     -1.12079260838818
  O   -0.34197388043415      2.17199919390212     -1.28366530042605
  O   -2.04455273818842      0.81618875362640     -1.44442987240768
