13
Coordinates from ORCA-job run
  C   -0.22893439260789      0.01294734247587     -0.28350574725398
  C   -0.12177487777683      0.04430742467568      1.17550528893342
  Cl  1.41758280257193     -0.23116643944289     -1.26381132771664
  F   -2.60852021761193     -0.39958415499960      1.27606611164780
  H   -1.42994166289865     -0.08355028340346      1.37871351863522
  H   -0.81885465377188     -0.83891414817919     -0.61654016975484
  H   0.28346337415157     -0.91152463561732      1.52571385789491
  C   -0.78991121878698      1.23717453756518     -0.85090009436955
  N   -1.22815113217404      2.23126443199250     -1.29787233799874
  C   0.60309363383978      1.24098683893489      1.75584406518116
  H   0.10537947186811      2.17451605985437      1.47384584856255
  H   0.59910495859336      1.19412038911947      2.84946198203798
  H   1.65067391460345      1.31434263702450      1.42922900420069
