12
Coordinates from ORCA-job run
  C   -0.13305239159614      0.02995250388573     -0.41295336314084
  C   -0.36578124241881      0.03089454385930      1.02518670113949
  Cl  1.73723901639461     -0.01751988122622     -0.94164217685309
  F   -2.60766323914050      0.17842258176670      2.10409557267673
  H   -1.63761107878878      0.00061443153531      1.38071391289912
  H   -0.49241191108934     -0.87876240779270     -0.89804092399729
  H   0.05116022261049     -0.88633566757089      1.46763653174865
  C   -0.65563657126731      1.20342877565231     -1.10582771158577
  N   -1.10508142644846      2.10905552190980     -1.70368589649458
  N   0.05157924310847      1.27262358378643      1.65903737934655
  H   0.96634639976423      1.19038129322642      2.08580313279862
  H   -0.63493702112845      1.46788472096783      2.37742684146243
