14
Coordinates from ORCA-job run
  C   -0.27255999773167      0.03689683529561     -0.34363350287359
  C   -0.12787647030058     -0.08263014446963      1.03555853140541
  Br  2.11717081355637     -0.16156623364513     -1.33178478017171
  Br  -2.83631885994684     -0.11604732323048      2.42047470974921
  H   -1.50466653414413     -0.10550583812826      1.35871795651274
  H   -0.53949540518666     -0.85855733607585     -0.88926965659757
  C   -0.62128741524552      1.29982138658790     -0.90694850546184
  N   -0.91721404629734      2.36487727456586     -1.31806486745750
  N   0.25732622486397     -1.39033327351501      1.45733998924223
  H   0.22153770714038     -1.44412181257840      2.46843599845629
  H   1.22538946538143     -1.50325473539437      1.15461272215513
  N   0.37883454603598      1.01540505778187      1.79124069852687
  H   -0.16634994291612      1.13277783402562      2.63952431175383
  H   0.34351991479069      1.87811830878024      1.26053639476051
