12
Coordinates from ORCA-job run
  C   -0.22007835512922      0.02776551535933     -0.31554738523831
  C   -0.10268693601894     -0.02941288046903      1.06791562813752
  Cl  1.86480542113633      0.05159431328812     -1.44098517944256
  Cl  -2.79864018280509     -0.21265600842790      2.20441556690851
  H   -1.48869576074895     -0.14363348711898      1.40177252794108
  H   -0.48576859889644     -0.87907361317175     -0.84499150512829
  H   0.20283329635866     -0.99621584081901      1.47055876637682
  C   -0.68243394301524      1.25202045991207     -0.90597453644247
  N   -1.12413091694112      2.25459129708712     -1.33878056177209
  N   0.37026731479888      1.09635496788987      1.81045679907984
  H   -0.30238423886361      1.37389790915594      2.51586565425170
  H   0.54622290012472      1.88029736731421      1.19465422532827
