12
Coordinates from ORCA-job run
  C   -0.33986314874871      0.08230119856269     -0.26382524858743
  C   -0.14214860529118      0.09647389331918      1.10877228891658
  Br  1.90018106162551     -0.54927641620468     -1.48800131765269
  Br  -2.92333405714428     -0.24709327220167      2.38060031708937
  H   -1.54311391138037      0.04300876783670      1.48864899475450
  H   -0.66779802765322     -0.83626236803122     -0.73410537275186
  H   0.11034975802054      1.05363051494262      1.56967074433667
  C   -0.65235663920467      1.29899902510706     -0.94502657994390
  N   -0.96118291529535      2.31066235587267     -1.46429844586101
  N   0.41662778717998     -1.05382876689484      1.72838960893593
  H   0.75634514661696     -1.69705108434400      1.02348670914136
  H   -0.22302644872522     -1.50690384796449      2.36873830162248
