13
Coordinates from ORCA-job run
  C   -0.01032050606577      0.22571606588269     -0.28622731475452
  C   0.10490323071464      0.15877941480287      1.21819169222638
  F   0.72471616572244      1.29698210566071     -0.77744401882194
  H   -1.98531198568121      0.67062691126874      0.65010126943704
  H   -1.10415977484689      0.54329980995479      1.43242218429304
  H   0.33742710467261     -0.68507265910748     -0.77237000853520
  C   -1.51870338731905      0.46046172229420     -0.66376629729572
  N   -2.12964756071152      0.49399340110189     -1.69285851866636
  C   1.05777924457312      1.01532298968209      1.85751594683096
  N   1.80694617512666      1.75783122541402      2.38081516149584
  N   0.11920601410797     -1.19787903227766      1.71302815556661
  O   -0.56864592796558     -2.00377845449205      1.06631586596568
  O   0.71662120767255     -1.46971350018480      2.76242588225818
