11
Coordinates from ORCA-job run
  C   -0.31304852656191      0.09876516788585     -0.29805472405969
  C   -0.17735858360804      0.13450724108803      1.20631217981163
  Br  1.31351404106476     -0.48188895650507     -1.24952049119215
  H   -2.53189733431523     -0.87867935463787      1.09565506198687
  H   -1.29983267074082     -0.10150868982932      1.48191651268245
  H   -1.09634906899989     -0.65835501761402     -0.48495276559193
  H   0.35697038577396     -0.75597531015022      1.54764775671158
  C   -0.73913376798042      1.36684040757618     -0.86960848857130
  N   -1.08854271434781      2.38543201825459     -1.34023658640550
  C   0.41297816773791      1.33022936269841      1.75836932141357
  N   0.85722007197750      2.29955313123343      2.25822222321447
