16
Coordinates from ORCA-job run
  C   -0.27311902149103      0.06332956593612     -0.33781603264140
  C   -0.12484771282279     -0.03097553865517      1.03426442896772
  Br  2.17481724909779     -0.04964036876363     -1.40453804423602
  Br  -2.96047911889861     -0.32701851965337      2.26145173251383
  H   -1.58431540770981     -0.13299891511211      1.43290993200827
  H   -0.47201128234098     -0.83215618410169     -0.91681631021088
  C   -0.64541264173819      1.30082430689003     -0.95244105501991
  N   -1.02086069493746      2.31702045401991     -1.41658634350747
  C   0.28828960965253      1.18943523005623      1.81226479903044
  H   -0.21505235129378      2.09040782368174      1.45581163508510
  H   0.06337736852496      1.06431478770562      2.87480654518631
  H   1.36921913014517      1.32826784243280      1.68680872930804
  C   0.36739502987759     -1.34891475951624      1.56922195269945
  H   1.45186866753934     -1.39523070285993      1.41367053135214
  H   -0.08594239498160     -2.18933907094381      1.03808993955859
  H   0.14277357137690     -1.45040595111648      2.63421755990575
