12
Coordinates from ORCA-job run
  C   -0.15883629685545      0.00094465185439     -0.31139748872831
  C   -0.10209807399912      0.20080573604995      1.13936340375259
  F   1.03201228346460     -0.54069432913401     -0.94218951704610
  H   -2.34144791436262     -0.48535746824478      1.69064304987234
  H   -1.43777088422312      0.08037116005286      1.44233612874533
  H   -0.93080904539732     -0.74837982820940     -0.54582839709926
  H   0.38120818335953      1.13148003424437      1.44709144688759
  C   -0.45337493268497      1.25261353550828     -1.02282377855418
  N   -0.68548625116404      2.25547103392062     -1.58912948124377
  N   0.33526818542404     -0.96275950439184      1.88634307622562
  H   0.94186290294798     -1.54637671343825      1.32372249221293
  H   -0.51068815650951     -1.50228830821222      2.10478906497520
