16
Coordinates from ORCA-job run
  C   -0.15598410909770      0.03719040268514     -0.41339300312282
  C   -0.15893265429178     -0.00021452925326      1.06585436537090
  Cl  1.54980637159351     -0.09031945382752     -1.21576436957822
  H   -2.49779837778057     -0.28364180203913      2.17313555693834
  H   -1.30582748653884     -0.06111681840876      1.41616111754577
  H   -0.66914872968362     -0.83762800189108     -0.82141817666175
  C   -0.75528943615754      1.24467706414987     -0.97393900732951
  N   -1.24592893085530      2.21285867843778     -1.42433247127537
  C   0.42919072049483      1.22330180298652      1.73605041362216
  H   0.00135280179329      2.14708815434743      1.33497317873281
  H   0.17432778268408      1.18654756691674      2.80048029483618
  H   1.52092780505500      1.27353628594985      1.63599195064210
  C   0.41524079761107     -1.29380076245276      1.60887716381655
  H   0.01897757082557     -2.15725954366367      1.06346943516686
  H   1.51020799419651     -1.32498073101469      1.56078472517282
  H   0.09058788015151     -1.39958831292245      2.64931882612317
