14
Coordinates from ORCA-job run
  C   -0.36432140143190      0.12561075327473     -0.23497007571300
  C   0.02162500133378      0.13578826452490      1.10112496580039
  Br  1.52454364223293     -0.75536161735712     -1.62274854005436
  Br  -2.70321351924526     -0.07478421043054      2.67941148431530
  H   -1.48562707501508      0.18182063931208      1.74697178192258
  H   -0.89345680560886     -0.77454746405595     -0.52826061360579
  C   -0.73070013696776      1.27768237410499     -1.00155849846810
  N   -1.13284381140714      2.14351656509772     -1.69123788797262
  N   0.54172735100994     -1.03315374539336      1.65480568487052
  H   0.78742125661670     -1.70220595135167      0.93681694920103
  H   0.01647872832341     -1.42330751981542      2.42336591793247
  N   0.55257402710192      1.36800125007903      1.71432334331760
  O   1.01742822515209      1.26374898642290      2.84945283828201
  O   0.41544451790521      2.42922167558773      1.10489265017197
