14
Coordinates from ORCA-job run
  C   -0.50488619578755      0.09428498160970     -0.29187800560720
  C   -0.07195703770452     -0.07521828030099      1.14564075902410
  F   -0.39597692620467     -1.10585155952493     -0.98336770761953
  H   -2.49045352535608     -0.46994749338910      1.63732310345302
  H   -1.07282734871311     -0.57908196062972      1.55947208585767
  H   -1.57675728410750      0.35538870655711     -0.23628698142393
  C   -0.04478840430103      1.25871120133399      1.87798656854041
  H   -1.07301917552909      1.63918672905942      1.88543690638781
  H   0.25566735625339      1.10340006171764      2.91689571685996
  H   0.62676523211101      1.99260060040595      1.42235536707792
  C   1.13755998264341     -0.84658184436934      1.28557042036399
  N   2.11336820549286     -1.48757614419532      1.44819399478965
  C   0.25309830760954      1.11389438978368     -1.03546693355966
  N   0.82660681359337      1.96266061194195     -1.61141529414421
