10
Coordinates from ORCA-job run
  C   -0.30483234396282      0.03014232514267     -0.29828610599842
  C   -0.12309887635685      0.00203635219554      1.07577693742666
  Cl  1.68739688273047      0.05309903366839     -1.58803374707472
  Cl  -2.77244332184787     -0.51930408269917      2.35971415603155
  H   -1.54243966003171     -0.21258053095822      1.61618440275674
  H   -0.55730163311307     -0.88903066111697     -0.81236939503622
  H   0.30156499347911     -0.90363950604625      1.49845434126101
  C   -0.85361506094169      1.22067879406479     -0.89220648813929
  N   -1.36108425105711      2.19426340251380     -1.31644599862752
  H   0.13483327110154      0.93029487323541      1.57709189740021
