13
Coordinates from ORCA-job run
  C   -0.27117222316785      0.07314975204069     -0.29369782279904
  C   -0.17521220875411      0.13067517893690      1.22060293952657
  Cl  1.24566970804969     -0.47565889684790     -1.12149253198728
  H   -2.40246091120518     -0.90078191212566      1.40620151181084
  H   -1.34076448843122      0.06302506789213      1.46350135616940
  H   -1.03255584465371     -0.69380257284378     -0.49053038626114
  C   -0.68860632505968      1.33515215787505     -0.89183251548441
  N   -1.03887525660944      2.34728897024358     -1.37479463757265
  C   0.51648063976655      1.30691282373599      1.70833010474212
  N   1.04825225663263      2.27558191922450      2.11608402552823
  N   0.27236014817765     -1.09126021878763      1.84306992115725
  H   0.98314068483766     -1.54878871413098      1.28530708949447
  H   -0.57581617958300     -1.67211355521290      1.86907094567564
