16
Coordinates from ORCA-job run
  C   -0.21021230833448      0.05178850458116     -0.30771732731300
  C   -0.09622587417195      0.06707268876436      1.15231351018916
  Cl  1.43878199285016     -0.16370092809412     -1.29208004661168
  F   -2.48698640876371     -0.67596879954723      1.43839397194554
  H   -1.36265854567280     -0.11888173948352      1.38543774075900
  H   -0.78443165986804     -0.81392287332997     -0.63799721647787
  C   -0.79326777125090      1.26685025780595     -0.86814270551880
  N   -1.26098045869199      2.25179779230277     -1.30643784785016
  C   0.58120864873458      1.29194359216285      1.72751687991292
  H   0.11948455587788      2.21843159451383      1.37239231413974
  H   0.50067248650927      1.28511320720372      2.81972283999284
  H   1.65215229308379      1.33281337690234      1.47402926534379
  C   0.46442724659214     -1.23468405176373      1.69244664262628
  H   1.52105668750053     -1.38881812929550      1.42889912961801
  H   0.37505298809298     -1.24580723357237      2.78361208021561
  H   -0.12498387248748     -2.07546725915053      1.31755076902862
