13
Coordinates from ORCA-job run
  C   -0.01002287109768      0.00686525921909     -0.35236487500951
  C   -0.06314696194670      0.05037013655432      1.10764374899146
  F   1.31271508581981     -0.04398078227819     -0.96100292860391
  H   -2.48471231176178     -0.20370203236605      1.73874404989600
  H   -1.38167668541163     -0.07673090029635      1.45178818888572
  C   -0.64701838741344      1.18553752478053     -0.97034316319978
  N   -1.14922923745600      2.12086983933952     -1.47296040132990
  C   0.47592294309141      1.30322547833638      1.76408115406262
  H   -0.08904789685745      2.18278103152538      1.43325432742935
  H   0.33853345413179      1.23592271096922      2.84973120143432
  H   1.53984057316182      1.50143562193544      1.57276985446577
  H   -0.50461640305365     -0.89456564606577     -0.73358646384739
  H   0.35927869879351     -0.87226824165351      1.52290530682524
