14
Coordinates from ORCA-job run
  C   -0.02279062730933      0.07009559464751     -0.37835841608994
  C   -0.21796439181558      0.15040630705446      1.06002713104411
  F   1.36611468309313     -0.12445926006663     -0.83588134276184
  H   -2.39450758479666     -0.46970197609609      1.85344329272652
  H   -1.55615829346864     -0.06719395550350      1.34660925315768
  C   -0.49600005105104      1.26484111433264     -1.08742787811681
  N   -0.88864704313055      2.17490961741517     -1.71770949003508
  N   0.10473274336058      1.43233234665945      1.64709125107215
  H   1.02069570189369      1.37290303353601      2.08352993272409
  H   -0.55953227969117      1.58595070176091      2.40433499816696
  N   0.29948135967817     -1.00101718783494      1.77739489666415
  H   0.87206683930287     -1.58800628446204      1.18402565546357
  H   -0.50586764432847     -1.54319800050438      2.11203071206142
  H   -0.52546341173701     -0.81791205093858     -0.78321999607698
