11
Coordinates from ORCA-job run
  C   -0.22639524917761      0.00781004847553     -0.33047500248034
  C   0.02000320445521     -0.01489467015726      1.04862968974269
  Br  1.72116128671544      0.11090417208798     -1.74097024597185
  Br  -3.00754837990984      0.06598126927875      2.35179363932390
  H   -1.64173278194669     -0.04085338194591      1.69258821847778
  H   -0.53113911957798     -0.92042482632347     -0.80226713620576
  H   0.27952164208297      0.91791914388475      1.54305954658811
  C   -0.87920031385640      1.18216929624775     -0.84895383412430
  N   -1.45823894973652      2.13392253156615     -1.22969051592821
  C   0.52233274220885     -1.20263899386641      1.65127347010885
  N   0.89735591874254     -2.18440458924783      2.18512217046913
