14
Coordinates from ORCA-job run
  C   -0.28409936839271      0.03694083942213     -0.42440572515384
  C   0.00337197195101     -0.09385582800199      1.06674158515147
  Br  0.76380084924573     -1.17016188879171     -1.61316147844736
  F   -2.52528870786120     -0.63484254665752      1.53710743547173
  H   -1.52922169375432     -0.55778795690985      1.48469193363331
  H   -1.30982473476753     -0.24981566741878     -0.67329774317663
  C   -0.06111814470578      1.39142254042688     -0.94343944985742
  N   0.11551965144322      2.49496112826738     -1.30996094450316
  C   0.09006274347617      1.23401515069973      1.81251765374413
  H   -0.83587179272965      1.80570200064814      1.69128019152051
  H   0.19777853385117      1.02748252414339      2.88109093706229
  H   0.92759898991740      1.87913810125443      1.50674563921941
  C   1.01010956579569     -1.01413806412855      1.44276602242690
  N   1.82296213653079     -1.77999033295370      1.83697394290865
