15
Coordinates from ORCA-job run
  C   -0.47981376091392      0.02144495405268     -0.25594476462824
  C   -0.34139693649513      0.01460239271906      1.12702621297717
  Br  1.95098263590251      0.18944650068747     -1.14897920636844
  Br  -3.04756476417615     -0.38930980324480      2.50182176667507
  H   -1.68177864441558     -0.14415721466374      1.52063452389539
  H   -0.62796297456437     -0.92295614732137     -0.76933499665680
  N   0.01147001261368      1.27665340195559      1.69016508683416
  H   0.91744171478453      1.55068428966094      1.31447164231765
  H   0.05266389904654      1.22249352406238      2.69928258413164
  C   0.24680647707065     -1.23004805650459      1.74873938178986
  H   1.32564368788933     -1.22475514665001      1.55720586640456
  H   0.05770888398423     -1.24268141565239      2.82519911425365
  H   -0.18897706733183     -2.13535140638377      1.31876788779933
  C   -0.97431221604047      1.18371424281192     -0.92809575506730
  N   -1.44578094735400      2.10595988447062     -1.49017934435768
