14
Coordinates from ORCA-job run
  C   -0.30825299924059      0.05687473094277     -0.22078555605694
  C   -0.23603044399490      0.10680556020931      1.26317960338596
  Br  1.50217032907265     -0.28693810795953     -1.19642151111765
  H   -2.42091660744331     -0.91376367584569      1.98797319643678
  H   -1.39833202055829     -0.06330679075248      1.55676759382520
  H   -0.90511605051134     -0.80368252054388     -0.53470906543613
  C   -0.80939580522874      1.28139776508812     -0.81988589749805
  N   -1.23318103645644      2.28621411516334     -1.26064329571263
  N   0.29608469020645      1.31321729298106      1.85839163520418
  H   -0.20312113301300      2.12602334586584      1.51573675770449
  H   1.28014209899763      1.40835756333329      1.62296575076810
  N   0.35904540445272     -1.07599296277835      1.83468324625399
  H   0.83274170316020     -1.62563544503788      1.12810492869097
  H   -0.43205812944303     -1.61752087066594      2.20074261355168
