13
Coordinates from ORCA-job run
  C   -0.26654616212189      0.06549242010318     -0.27437869240956
  C   -0.16161268825639      0.12247533964397      1.22226274643783
  Cl  1.30744488517017     -0.36930744336389     -1.14512386010232
  F   -2.48974113423950     -0.66261617771766      1.40937875698618
  H   -1.44869618593729     -0.00091747597095      1.44641038368129
  H   -0.95188372291128     -0.74658675088249     -0.51774923339965
  C   -0.75484728848657      1.30515584395983     -0.86843127150716
  N   -1.15475077849927      2.29713456495574     -1.35419032175246
  C   0.55555715301866      1.28024546377377      1.69874945559931
  N   1.10992511728889      2.23827148659165      2.10296506773281
  N   0.28960007859802     -1.11117083922188      1.84269030706981
  H   1.02759868743656     -1.55042705933118      1.30220748699217
  H   -0.52160796106010     -1.71836937254012      1.87502917467174
