13
Coordinates from ORCA-job run
  C   -0.18271503809485      0.07151116717151     -0.33638498922172
  C   -0.18749139821545      0.07678898437183      1.13075382210054
  F   1.07636410586789     -0.18849641629406     -0.99577484384810
  H   -2.47129889426097     -0.80238853368133      1.42002314103974
  H   -1.49402090607629     -0.23122427254876      1.34561872416831
  H   -0.84100589823788     -0.73343746994017     -0.70082304197746
  H   0.13575177791693      1.02604973329013      1.56557291490678
  C   0.45682049080572     -1.14962711192505      1.73940452648835
  H   1.47102263737891     -1.36078127459543      1.38135472112546
  H   0.49390907633231     -1.05126172172110      2.83003142946042
  H   -0.17577240757914     -2.02410821702708      1.52470382411980
  C   -0.65362065507411      1.35442803614792     -0.88182287751127
  N   -1.01549289076307      2.38327709675157     -1.31811735085087
