13
Coordinates from ORCA-job run
  C   -0.26301159005129      0.01662083906853     -0.26078425040339
  C   -0.13210468358913      0.04508136022276      1.19705386613440
  Br  1.52992423011677     -0.24544230854189     -1.34310923138912
  F   -2.62539670430019     -0.39210269480322      1.19672073245662
  H   -1.39446199124042     -0.07401091783749      1.38816479350287
  H   -0.84158301057976     -0.84155035627629     -0.59407514052218
  H   0.28519921883472     -0.90663383678006      1.54237950927893
  C   -0.81878448370261      1.23844247529303     -0.82846072429318
  N   -1.25311627622373      2.23657957802993     -1.27163177374439
  C   0.57863159941572      1.24862881664987      1.77814753165412
  H   0.07328864620137      2.17675440421023      1.49395908962918
  H   0.57550751831042      1.20093889377211      2.87151547103740
  H   1.62432752680814      1.32446374699249      1.44816012665875
