13
Coordinates from ORCA-job run
  C   -0.42084550989484      0.02694356464100     -0.24756620705376
  C   -0.21412761549447      0.00496753563013      1.12803730123713
  Br  1.74305178142675      0.05213027729951     -1.54923745830023
  Cl  -2.77683108532285     -0.56586033578724      2.46393253347193
  H   -1.54803693767011     -0.23454678928795      1.63285650538933
  H   -0.64171912390788     -0.90729404633788     -0.75376910364076
  H   -0.02313283179791      0.97261537940603      1.59276730496048
  C   0.51221847527057     -1.17217254698901      1.72259686532411
  H   1.57093593304993     -1.12210610320886      1.44501535136975
  H   0.41770819413467     -1.18589260382171      2.81055212346126
  H   0.10699197744707     -2.11161355461207      1.33758332532094
  C   -1.00191441532826      1.19573399175550     -0.84671362355318
  N   -1.53016884191266      2.14701523131255     -1.29765491798699
