15
Coordinates from ORCA-job run
  C   -0.08663145520331      0.04149262542385     -0.35800252850727
  C   -0.15287526472762     -0.07148263517361      1.09690175569553
  F   1.25503331331022      0.21631065645302     -0.91598400000153
  H   -2.37059898407621      0.18782522262011      2.07893642696975
  H   -1.42486194881271     -0.05595716191029      1.47517970111030
  C   -0.83654715800586      1.20915451066014     -0.85196128843241
  N   -1.43812597290384      2.13726676166053     -1.24818948539451
  N   0.30014637349970      1.10178322925327      1.82863836932375
  H   -0.53632707817033      1.59233473296696      2.15626106390069
  H   0.83913378209785      1.72791010895719      1.24307520442007
  C   0.43099138860506     -1.35098268095945      1.65199829984000
  H   1.52807549267611     -1.33832478325738      1.68980212592041
  H   0.06067716443532     -1.47879854461659      2.67645202115898
  H   0.11299961228125     -2.22607866277372      1.07006228011504
  H   -0.45524926500562     -0.86339337930402     -0.85352994611880
