10
Coordinates from ORCA-job run
  C   -0.28573390078119      0.07923801409128     -0.31774872333558
  C   -0.20261396365974      0.02051323531745      1.05687573811680
  Br  2.05243185350618      0.01670534339371     -1.58049623229978
  Br  -3.08743931499436     -0.41205957540451      2.23796047853267
  H   -1.71071317866634     -0.15105175958262      1.48564050845275
  H   -0.44929670510703     -0.82509222815785     -0.88892720036739
  H   0.00645834116601      0.93206387604813      1.60842735068787
  H   0.14341690855723     -0.90717468344338      1.50127811734785
  C   -0.69991016422232      1.29931295732634     -0.94870816769724
  N   -1.12591987579844      2.29631482041144     -1.40838186943794
