15
Coordinates from ORCA-job run
  C   -0.29944518030105      0.05184848249659     -0.35966179441088
  C   -0.22697602499277     -0.04644395055826      1.02861963139812
  Br  2.12483944605336     -0.14316996242198     -1.17883563842444
  Br  -2.99743924459238     -0.17071655047692      2.31337663297259
  H   -1.56581732430363     -0.07401011760102      1.36381967804950
  H   -0.53553462906093     -0.85247874690381     -0.91047182971917
  C   -0.64430208582195      1.29281819056016     -0.97841066505905
  N   -0.97469712175032      2.31308426429972     -1.46805293600174
  C   0.22630880554787      1.15867116381659      1.81988719140872
  H   -0.27158032408488      2.07234444073603      1.48876235064576
  H   0.00080086778697      1.01458686065243      2.87961829895130
  H   1.30838080223456      1.26849378333117      1.68345384012620
  N   0.22378835722675     -1.33485975699959      1.45445276322286
  H   0.25016022418376     -1.38699529424804      2.46464231360943
  H   1.15748343187465     -1.47494280668308      1.06954016323084
