17
Coordinates from ORCA-job run
  C   -0.42602281795460      0.03771392287054     -0.26496138628374
  C   -0.22378719352293      0.02684877629851      1.09330433907677
  Br  2.25060163446906      0.17476856044802     -1.05546948484346
  Br  -3.16421295192151     -0.12288962905743      2.06510079668115
  H   -1.61024610154935     -0.04720900771838      1.29531746580801
  H   -0.57499083664598     -0.92960153419094     -0.73944724046929
  C   -0.86094855373151      1.24057732499749     -1.02693661322249
  H   -0.60815401950374      1.13172168792859     -2.08062550075216
  H   -1.95283456430200      1.33203217089309     -0.92554990197246
  H   -0.40182228649704      2.14465552951911     -0.63654633406703
  N   0.15960989459179      1.27277550698255      1.68209966931148
  H   1.08859767352271      1.48909432705985      1.32213999939535
  H   0.19857409704733      1.18946796841061      2.68963608266967
  C   0.25416384479583     -1.23846965374732      1.75852858302154
  H   1.34287583352664     -1.28400220340037      1.65395758198301
  H   -0.01900324430249     -1.24090940287167      2.81821970349535
  H   -0.18555040802224     -2.12423434442222      1.29392224016829
