15
Coordinates from ORCA-job run
  C   -0.30236588771463      0.06678493423678     -0.22278390769969
  C   0.05847665656840      0.10661196380042      1.11555146458903
  Cl  1.59188783273036     -0.55816777188691     -1.47974405995038
  Cl  -2.85246181243078     -0.26224950795902      2.04838880369306
  H   -1.57386304186444      0.05465987254229      1.57309539941395
  H   -0.73873798223249     -0.87380744657551     -0.54491151170976
  C   -0.73160900991817      1.29471791154582     -0.96377866967295
  H   -0.76319085090848      1.09798461128489     -2.03423155280909
  H   -1.73107332282573      1.59843725186645     -0.62720101613710
  H   -0.03884900148305      2.11696067397639     -0.78072748097990
  N   0.53483127792675     -1.07728362639556      1.78675853353914
  H   1.20611355120728     -1.51275828497939      1.15705359474767
  H   -0.22992846576884     -1.72845698202355      1.92717863492275
  C   0.52667612321733      1.34478786377681      1.66808709353224
  N   0.86588393349647      2.37514853679009      2.12831467452102
