12
Coordinates from ORCA-job run
  C   -0.18532085792004      0.02682977446798     -0.33606387949087
  C   -0.21302498268874     -0.01946221571152      1.10645572333260
  Cl  1.64164140091236      0.00524327631570     -1.18519016908700
  H   -2.68994546036121      0.02148528567506      1.60887159026756
  H   -1.50528271728833      0.00058292899078      1.38432445004422
  H   -0.56440405186143     -0.89207890411370     -0.78659861737897
  H   0.18537094182108      0.87773595147598      1.58885355538332
  H   0.19849981930369     -0.92892904889988      1.54950898216384
  C   -0.86489707196410      1.24013978464586     -0.91408477708124
  H   -0.86409785207496      1.23844966510342     -2.00592587286482
  H   -1.89808150253163      1.23059803968469     -0.53798831446510
  H   -0.37818766534669      2.15371546236564     -0.56458267082353
