18
Coordinates from ORCA-job run
  C   -0.18037835743153      0.00663154969862     -0.34271255266558
  C   -0.15338011278024     -0.02281877475770      1.11545118888342
  Br  1.77018787056145     -0.05173850176587     -1.24815030132281
  H   -2.65314575325557      0.18340733593458      1.76579304160146
  H   -1.34924042720218      0.00976199092669      1.37895858570301
  H   -0.56044826829347     -0.93530944431834     -0.74554210155872
  C   -0.89105253948878      1.18732574092976     -0.95018224236724
  H   -1.01822073900595      1.07093644883125     -2.02866481243255
  H   -1.87444590970746      1.23735711320908     -0.45695570856135
  H   -0.35762449515226      2.12071742375697     -0.76553635944578
  C   0.39445540024241      1.21950573151831      1.78852212464603
  H   -0.19861618428033      2.10259180580981      1.53478722195941
  H   0.32909548565156      1.10198242878149      2.87538480719737
  H   1.44252576470506      1.40297137924657      1.51848416158169
  C   0.40537750603516     -1.29933333702431      1.70672094467172
  H   1.50075772573126     -1.33520064307967      1.64331352575187
  H   0.11207614659654     -1.37971528778980      2.75981089810326
  H   0.00882688707434     -2.17834295990744      1.18667757825478
