16
Coordinates from ORCA-job run
  C   -0.24561801185809      0.01079199383667     -0.31905915312568
  C   -0.00618855829526      0.09268841498565      1.03061175337710
  Cl  1.94751371252271      0.30704426341408     -1.30672682015109
  Cl  -2.92234321591924      0.09027303532282      2.11402701999969
  H   -1.69607327066342      0.02689653324605      1.50726894279544
  H   -0.34707348209939     -0.98886341325468     -0.72231620886797
  C   -0.89971815680119      1.13784463465611     -1.05226055950993
  H   -0.73904222008499      1.03906369926247     -2.12420541920459
  H   -1.97863051643277      1.11591170705064     -0.84697864083704
  H   -0.50574847469276      2.09508278662086     -0.71890754690851
  N   0.40561885993363      1.31069859819057      1.60168048439749
  H   1.33124834297399      1.52484865568259      1.23247360886843
  H   0.46630390371939      1.22295375884439      2.60668177504833
  N   0.46047905799399     -1.13660840160204      1.68117451356060
  O   0.11891346997686     -2.22558996485996      1.21516429918780
  O   1.11727855972653     -1.00970630139620      2.72358195136994
