16
Coordinates from ORCA-job run
  C   -0.12382709924052      0.06321994382116     -0.36420735493095
  C   -0.12678797173503      0.05270661442281      1.13869251109365
  F   1.18180976458762     -0.08553564582165     -0.90254703458423
  H   -2.61576139175574     -0.53424570651332      1.27845423017866
  H   -1.32246971616691     -0.08142185067523      1.33701375688023
  H   -0.68217244560488     -0.82494683588883     -0.68279250818009
  C   -0.75148534880926      1.30215068836771     -0.95267662465134
  H   -0.76571050609427      1.24194112292012     -2.04427872816304
  H   -1.77703543787002      1.36879127154274     -0.57901189690773
  H   -0.19478603665791      2.19320621640796     -0.65368487817712
  C   0.38938556020984      1.26571089529042      1.71864762291341
  N   0.77904327959683      2.26330158015054      2.21405456628953
  C   0.49813788646558     -1.20507832296129      1.72559852476033
  H   1.51945259326164     -1.37223416247594      1.37127080972396
  H   0.50596368545681     -1.15663877498840      2.81788532894004
  H   -0.12939681564378     -2.05661703359880      1.43870167481471
