17
Coordinates from ORCA-job run
  C   -0.39378069768985      0.02553076735965     -0.27664772951786
  C   -0.15598498689988      0.03652279903514      1.07289247979517
  Cl  2.15321940904674      0.18251607575106     -1.06477752627156
  Br  -3.10051070738120     -0.12158597950686      2.05507795887284
  H   -1.55510256919575     -0.03627830020734      1.27311578378066
  H   -0.54480099284730     -0.94968307969041     -0.73330635749499
  C   -0.83604199723260      1.21285471694301     -1.05598512218528
  H   -0.51572421950987      1.11774688496645     -2.09236301746044
  H   -1.93447334117490      1.25854466988232     -1.02118368931889
  H   -0.43652891315747      2.13228408269242     -0.63676431606095
  N   0.23772046135082      1.28828804816818      1.63806823773297
  H   1.14364309473787      1.51581156180591      1.23138169859914
  H   0.32725847623866      1.21094232249589      2.64250288460120
  C   0.31975191176053     -1.21979709929192      1.75450557760743
  H   1.40767661441162     -1.27088880573419      1.64879640140864
  H   0.04869353031223     -1.20663023607123      2.81476467650378
  H   -0.12421507276963     -2.11038842859806      1.30383205940819
