14
Coordinates from ORCA-job run
  C   -0.36218733222011      0.02598232852765     -0.27081317540397
  C   -0.15281229952773      0.05213150864239      1.07975693751116
  Cl  2.19445502020764      0.30043901247332     -1.07961058413519
  Br  -3.11729345929872     -0.17500990469194      2.01537203025496
  H   -1.56213822391454     -0.07289202430479      1.29340110586445
  H   -0.49345315540267     -0.95356861041856     -0.72260426199035
  C   -0.80797186637832      1.20876430755143     -1.05692516487350
  H   -0.56810162569196      1.07519709120745     -2.10992023735814
  H   -1.89794189256291      1.30283577755195     -0.94036355039389
  H   -0.34177025887287      2.12245323581401     -0.69945242731773
  N   0.23110683294103      1.28420284959232      1.68355315703926
  H   1.13035922494547      1.53484002156817      1.27721693477868
  H   0.32938784506753      1.17831860103745      2.68321305072847
  H   0.15850119070815     -0.88518419455084      1.54555618529578
