15
Coordinates from ORCA-job run
  C   -0.23365211569476     -0.10408136146662     -0.39150878009777
  C   -0.07138365936381     -0.05756948387685      1.10609658636299
  Cl  1.39678980849512     -0.23792969389887     -1.26159130282861
  H   -2.21965176350188      1.00120375812634      1.89915582046385
  H   -1.19411078708802      0.16208045402597      1.50996040787813
  H   -0.74475440703416     -1.02759186076351     -0.67365744182945
  C   -0.96300259461738      1.10617081390561     -0.92797673523365
  H   -0.35015738575887      2.00257530962709     -0.82005946042036
  H   -1.21057336955459      0.98010577139961     -1.98444505840386
  H   -1.86640467702864      1.24385462089108     -0.32244159549279
  C   0.43508369946048     -1.31325650759580      1.63046478589602
  N   0.79289444666865     -2.35106312610595      2.05753642121834
  N   0.61593139651090      1.09036907841107      1.65731299988197
  H   1.28609429311588      1.47203345898560      1.00078018201299
  H   -0.11625288460890      1.77569876833521      1.85851317059221
