14
Coordinates from ORCA-job run
  C   -0.52471316267726     -0.00875596863808     -0.20672343594812
  C   -0.38891761762605     -0.12530225734840      1.15510213391579
  Br  2.02813898700796      0.10412769295353     -1.07401721117295
  Cl  -3.23975295558135     -0.31051891623388      1.94915472949216
  H   -1.74676642690343     -0.25950495106903      1.35455927744563
  H   -0.57546590807021     -0.94171502835362     -0.75974731010245
  H   -0.25145120582598      0.80600107224175      1.71419884170952
  N   0.23559415802093     -1.31749323725681      1.64030912040337
  H   0.26684477692834     -1.31878985945913      2.65037157440241
  H   1.18335598488786     -1.32619609218851      1.26836136868147
  C   -1.07136162019001      1.21719161868317     -0.85394148314998
  H   -2.16669106416396      1.20149911508603     -0.77125093423566
  H   -0.69767247792787      2.12010527470179     -0.36995067159835
  H   -0.79270146787898      1.24725153688118     -1.90581599984284
