12
Coordinates from ORCA-job run
  C   -0.20309702964612      0.03134514360241     -0.30051608174581
  C   -0.15095686780960     -0.01637873477218      1.13946310917009
  Br  1.75397006174219     -0.02166682683166     -1.30880952960812
  F   -2.70032147640297      0.10468445850908      1.35709540409788
  H   -1.48026038767074      0.00264362057350      1.35008933765089
  H   -0.58711356724352     -0.88874688347163     -0.73967201313018
  H   0.27533439641039      0.88229505881549      1.59346590969156
  H   0.29751992102359     -0.92554502888520      1.54409112240627
  C   -0.87369582127946      1.25374320087473     -0.88153366343205
  H   -0.91915460965677      1.22246878214696     -1.97127248415112
  H   -1.87801208842135      1.26161256270611     -0.44896396788316
  H   -0.34490253104564      2.16038464673241     -0.57778714306627
