14
Coordinates from ORCA-job run
  C   -0.15066239459487      0.11781474988787     -0.22785451584174
  C   -0.11794365453767      0.17553464870272      1.21629651257380
  Cl  1.61176404585618     -0.15096945967310     -1.09376440349377
  H   -2.47382628596359     -0.36636489503707      1.72609447693575
  H   -1.40539321167212      0.05889934376551      1.47439876503090
  H   0.26171434566002      1.12539988016406      1.60893389591882
  C   -0.75001402196981      1.33575317994343     -0.88457189786914
  H   -0.73570556663320      1.26528006758901     -1.97394957813610
  H   -1.78896730675147      1.41401436070707     -0.54184315355077
  H   -0.21001265935131      2.23733653502802     -0.58592401447400
  N   0.38876919939059     -0.97906156359140      1.93337557508709
  H   1.09540858610421     -1.45182220419375      1.38017105206170
  H   -0.39711950618369     -1.61782808296984      2.06257303180943
  H   -0.63916156935323     -0.80127656032254     -0.56372574605200
