16
Coordinates from ORCA-job run
  C   -0.12022322095797      0.15711992543973     -0.29699992021252
  C   0.09223183870017      0.09992438913089      1.13672897890589
  Cl  1.56999416522501     -0.01536537170020     -1.29767787556031
  F   -2.49625262759731     -0.42610440277435      1.63052229760620
  H   -1.60316492201498     -0.05799086427713      1.51403077206707
  H   -0.55237093747881     -0.80032659291494     -0.58560774157412
  C   -0.92594600789570      1.30544613802865     -0.90121677371121
  H   -1.89485230893897      0.92131492070221     -1.23474883844359
  H   -1.08525641845059      2.08979223617716     -0.16792536688168
  H   -0.41331499697972      1.74586065337045     -1.75613884510197
  N   0.56339538711468     -1.13088685640535      1.69026908871546
  H   1.27063329685912     -1.54516196920701      1.08997685340652
  H   -0.19708859006011     -1.78396552399976      1.81439765723424
  N   0.69756761051992      1.24911158381464      1.75172544897381
  O   1.07508633582077      1.18430619893701      2.92899322645800
  O   0.77767139613447      2.30541553567796      1.09047103811825
