14
Coordinates from ORCA-job run
  C   -0.21495129629086      0.00729204643779     -0.30823265536952
  C   -0.11008668068486     -0.14857115125758      1.11466171737433
  Br  1.78609784736924      0.25766719449132     -1.30063405560252
  F   -2.54881565504890      0.28073912919982      1.65057760741222
  H   -1.41421175259143     -0.13174429497173      1.39447648063510
  H   -0.48498811023065     -0.91852635807714     -0.81737071084356
  H   0.37240905237078     -1.08291522243895      1.41318310350519
  C   -0.97612975979456      1.20823001157572     -0.81307047956547
  H   -1.05762075642769      1.20889125053917     -1.90059769994395
  H   -1.96149102588609      1.15729712328262     -0.34033401169214
  H   -0.49121254878973      2.13408529414237     -0.50156386031876
  N   0.35390856754082      0.98820266881021      1.89878489484184
  H   -0.43670249943979      1.60427584293955      2.04518035651897
  H   1.07036461790372      1.49332646532684      1.38393931304827
