15
Coordinates from ORCA-job run
  C   -0.14255780880286      0.05294605994369     -0.36658127257270
  C   -0.10230062130758      0.00680652279216      1.07471714031333
  Cl  1.64723269107922      0.02458692561835     -1.27124588851056
  H   -2.53861771916614     -0.04659244174300      1.73273097260485
  H   -1.36444101153411     -0.01356032336268      1.39038475641729
  H   -0.54038206584304     -0.87372139660979     -0.78883023666259
  H   0.25890423136963      0.94300016251650      1.51599273705293
  C   -0.84875421410263      1.26183161315097     -0.92221410502080
  H   -0.89662724285330      1.24927310589811     -2.01313477774283
  H   -1.86475414308601      1.25670031506177     -0.50344960994999
  H   -0.34564219763274      2.17827120460814     -0.60512371964976
  C   0.49974721961079     -1.22358003643220      1.71166011361749
  H   1.58679860424401     -1.28968193837849      1.58175663250442
  H   0.27354568726580     -1.24422344302314      2.78407634785551
  H   0.05657859075897     -2.12654633004043      1.27546090974344
