16
Coordinates from ORCA-job run
  C   -0.07860651594788      0.01043666691050     -0.43125248044723
  C   -0.00707046299465     -0.07164141229409      1.05950702857928
  Cl  1.60064960219644      0.08111030736634     -1.25190861208083
  F   -2.48213203194179      0.27647762362769      1.46295518501815
  H   -1.30428345378427     -0.01500467798835      1.35905531922707
  H   -0.49251876613715     -0.92025616075876     -0.82384337589357
  C   -0.87882437126112      1.19528868445980     -0.93718730539100
  H   -1.02777876364981      1.13138756594402     -2.01754868708064
  H   -1.83336327977476      1.17360736847067     -0.40737539603040
  H   -0.36339117505105      2.13292620950593     -0.72004410820140
  C   0.56769333713915      1.15849670143909      1.75259089118893
  H   -0.12327629246946      1.99704225826258      1.63738657380352
  H   0.66390814065671      0.96795421430001      2.82463637938192
  H   1.55284781322948      1.44726916655993      1.36470927057536
  C   0.59219525643973     -1.29614740668582      1.51152056562552
  N   1.05906096335044     -2.30240710911955      1.91387875172532
