13
Coordinates from ORCA-job run
  C   -0.14997129252285      0.14755727410152     -0.31715093502088
  C   -0.05233620761780     -0.03066760940410      1.16758577129462
  F   1.10332894442283      0.02489559028593     -0.97601466142920
  H   -2.52458698786025      0.29783884595776      1.70624248589334
  H   -1.26120491027653      0.07558376947971      1.53083377177474
  H   -0.77243144657980     -0.65290897740247     -0.73222364902866
  H   0.47534631618654      0.80298330475028      1.64198205511875
  C   0.51098954725944     -1.28998109875524      1.57346605119145
  N   0.92382789996426     -2.33485768487720      1.93160302041655
  C   -0.73789115795397      1.49520737647319     -0.65950927784244
  H   -0.86706504786981      1.60262525669777     -1.73982050282689
  H   -1.70320687514067      1.58167467140797     -0.15063378440847
  H   -0.07212878201140      2.28812928128486     -0.30689034513291
