17
Coordinates from ORCA-job run
  C   -0.29346346377766      0.09203985830104     -0.29193205191956
  C   -0.01252096240937      0.06023526705508      1.05909261992651
  Cl  1.76402324812190     -0.21359846801144     -1.51483402047660
  Cl  -2.99388998127155     -0.22177588086290      2.02800515772185
  H   -1.74729569961213     -0.06624050799959      1.50292138851979
  H   -0.56524298941345     -0.88232501861473     -0.68332259503767
  C   -0.79976983094002      1.25943050147581     -1.08070825814195
  H   -0.89000235953099      0.97102158455066     -2.12732440431762
  H   -1.77555434826597      1.57477010653074     -0.69422007222541
  H   -0.12462948329043      2.10748690037480     -1.00441247326692
  C   0.53017228451075     -1.18145348244908      1.69741742364752
  H   1.62056593320998     -1.19586064501148      1.61659028642727
  H   0.25693072738143     -1.24455225950524      2.75250640914172
  H   0.13705621890770     -2.05390817732001      1.17179199337801
  N   0.33074138414690      1.27975271170805      1.75498908084681
  O   1.06724979081285      1.18512191316547      2.74702884945565
  O   -0.15770046857993      2.35250559661283      1.37555066632060
