15
Coordinates from ORCA-job run
  C   -0.44414342015032      0.03225676121081     -0.23469508219906
  C   -0.15672313339827     -0.01671149362499      1.10392040945216
  Cl  1.77291426663541      0.10087028700523     -1.57460975959756
  Cl  -2.89969133829051     -0.30385992419028      2.21313150311691
  H   -1.55201819396024     -0.17841148109267      1.49633643876349
  H   -0.57105414130866     -0.91323518370854     -0.75423504124716
  H   0.02013071860666      0.94003163948113      1.59768432244482
  C   0.52083482343588     -1.21448775401015      1.71235982489154
  H   1.59936038863891     -1.14810617422229      1.54095847615404
  H   0.32803165444161     -1.28072588595811      2.78665839191332
  H   0.16563126188632     -2.13636922152630      1.24570058589980
  C   -1.04672159399939      1.23606668830730     -0.88035694080495
  H   -2.12339996415388      1.25950895350755     -0.66245256529224
  H   -0.59241004552454      2.14976304229608     -0.49475041331226
  H   -0.89733128285899      1.20528974652526     -1.95740015018288
