14
Coordinates from ORCA-job run
  C   -0.24531445636480      0.00362374055464     -0.28550662523666
  C   -0.15563428904295      0.06534080468407      1.15960429658856
  Br  1.64603014263947     -0.30449483623225     -1.27633094140831
  H   -2.57471372248965     -0.29469143477679      1.78310680310575
  H   -1.37772596839227      0.03946675282488      1.45872464516370
  H   -0.73020594186553     -0.92075151756083     -0.60797429563834
  C   -0.86656495431365      1.21792727418116     -0.92332265350804
  H   -0.91286849604374      1.13783042755154     -2.01077604978721
  H   -1.88556441094888      1.29651705982226     -0.52038284293895
  H   -0.31279439487147      2.12210655215638     -0.66047147894482
  N   0.35931531704167     -1.09534912139659      1.86213812031552
  H   1.05028235624731     -1.56718178095217      1.28808432825479
  H   -0.42505842400814     -1.72784270374522      2.01065188158135
  H   0.27618724241263      1.00500878288892      1.52196481245266
