17
Coordinates from ORCA-job run
  C   -0.25928211482446     -0.02121411973582     -0.25867594595971
  C   -0.17885336345628      0.03765209260450      1.18603590370692
  Cl  1.50733443379822     -0.30926401403892     -1.14994505852941
  H   -2.60427427235449      0.15577745350487      1.80647408347135
  H   -1.43482929435823      0.09422777682938      1.48115337852452
  H   -0.74451489699690     -0.94901036599642     -0.57262435028167
  C   -0.87068885683416      1.17660151371031     -0.93497390948393
  H   -1.01476580462193      1.00435088648097     -2.00376243095563
  H   -1.84444467669747      1.34781744721023     -0.45489128991589
  H   -0.25030490699687      2.06494567178369     -0.80975414515909
  C   0.44862439411948      1.27010269663124      1.79156599450950
  H   -0.08460614659351      2.18064997821303      1.49760669106555
  H   0.38324950676084      1.18353498597812      2.87893551699166
  H   1.50714568778878      1.37907793268526      1.51703882064253
  N   0.27895216281687     -1.18493951866839      1.83660253188855
  H   0.97548881834176     -1.64144309030578      1.25428247529303
  H   -0.51882066989164     -1.81124732688627      1.91986173419171
