16
Coordinates from ORCA-job run
  C   -0.17226409697924      0.09886836182292     -0.30103293823934
  C   -0.15812198201611      0.06051511386864      1.20328295006138
  Cl  1.50858480813036     -0.15535204528449     -1.00235249478328
  H   -2.49432835728533     -0.72499062916224      1.54118427420481
  H   -1.33870667744535     -0.02161472383081      1.44780628533191
  C   -0.81182463574138      1.28596404782491     -0.98444869477775
  H   -0.91028397233692      1.08597076058708     -2.05486785217640
  H   -1.80363345830871      1.42684115942243     -0.54825766027343
  H   -0.23359855000033      2.19542729185899     -0.83810871059130
  N   0.43200855755023      1.27572612235844      1.79503768758151
  O   1.40084979388042      1.19020663537588      2.55414128578996
  O   -0.12075735120944      2.35298422627685      1.51839584620337
  N   0.35258792300301     -1.12420849266382      1.79435618260472
  H   1.08049032644108     -1.55867443875503      1.24364393588799
  H   -0.44664557819313     -1.74821320572666      1.90227751711109
  H   -0.71556674948918     -0.81048018397307     -0.57304761393525
