18
Coordinates from ORCA-job run
  C   -0.12027885528553      0.05420945806729     -0.35778178528982
  C   -0.05193543845315      0.01635383110612      1.09105469990903
  Cl  1.65336956934705      0.01904619130595     -1.26028462373833
  H   -2.43675956614817      0.16391822444665      1.89735485553636
  H   -1.28323611573167      0.04359675006822      1.43027334333542
  H   -0.51964201270892     -0.88414369615583     -0.75138938394610
  C   -0.84273044423768      1.23928371867465     -0.94761185847884
  H   -0.98988807723398      1.12220868082969     -2.02362197139146
  H   -1.81648323044198      1.30446210173266     -0.44229993492006
  H   -0.29488788289988      2.16706558971248     -0.77818375140344
  C   0.50872052801170     -1.26458695887259      1.66547229196642
  H   1.60533899633387     -1.30495597081456      1.60959044395888
  H   0.21014271840789     -1.35973315099894      2.71718766915850
  H   0.11462626595024     -2.13819652949199      1.13358532246744
  C   0.50230851231426      1.24827827826221      1.77145658575588
  H   0.37346005798021      1.14734465769993      2.85533898429316
  H   1.56965766475849      1.39869500347187      1.55921619162852
  H   -0.04281268996276      2.15050382095621      1.47888292115845
