15
Coordinates from ORCA-job run
  C   -0.22237240738492     -0.04142296201111     -0.27890777420913
  C   -0.16802980233908     -0.00154996193486      1.17150401443114
  Br  1.73430023864605     -0.18581284939881     -1.24342819045145
  H   -2.62411282472708      0.44997635097299      1.79256569994022
  H   -1.36917352761470      0.08460291075683      1.46614283074503
  H   -0.62036814246257     -0.98793984100415     -0.64740124345459
  C   -0.90356397228957      1.13794513337707     -0.91454436338246
  H   -1.04446500893580      1.00090049370545     -1.98841624810420
  H   -1.87882224731603      1.22743682176906     -0.40621523133982
  H   -0.34638793753605      2.06178668187033     -0.75313247277534
  C   0.44248239686140      1.23128093578070      1.80734422621753
  H   -0.19961021658442      2.10221394123771      1.64272089765975
  H   0.51007037990467      1.09678134769862      2.89122425698397
  H   1.44510616310703      1.44691212525067      1.42009778740620
  H   0.21294690867107     -0.93335112807052      1.59978581033313
