16
Coordinates from ORCA-job run
  C   -0.21092068440331     -0.02700472925650     -0.34845664586447
  C   -0.25429903303706     -0.19075796998703      1.09334155610606
  Br  1.82541234638968      0.26751597566534     -1.07052792324971
  H   -2.62381173715818      0.19497572908850      1.81299196555373
  H   -1.46224226689053     -0.20159152393308      1.32753184224369
  H   -0.41954498401937     -0.96684679530255     -0.85755818866866
  N   0.15250133803932      0.95693206829184      1.88393086334661
  H   -0.69567549407135      1.46308183584577      2.14062007947708
  H   0.76872604526327      1.56472966058565      1.35497452323644
  N   0.30231264401697     -1.45981915022990      1.52723677807696
  H   -0.06490932275867     -1.61976906363896      2.46111059964997
  H   1.30606382614871     -1.33023187056358      1.63870456215866
  C   -1.00028565642843      1.13870323370784     -0.87182030605641
  H   -2.00896929593811      1.05258473963680     -0.43676467724644
  H   -0.57935832890246      2.08841767541097     -0.53966025952787
  H   -1.05242939625046      1.14209018467888     -1.96217476923565
