15
Coordinates from ORCA-job run
  C   -0.14663402797851      0.09043339128490     -0.39887936243064
  C   -0.08945004255313      0.06229183762193      1.09880303098715
  F   1.13024234756107     -0.15471623027107     -0.98316970304895
  H   -2.31353753113595     -0.91827579612380      1.44387493282091
  H   -1.28716720453642     -0.15355104543759      1.35612852945656
  H   -0.76878549941831     -0.76368857296682     -0.69347991129628
  C   -0.68845091671357      1.37420760891084     -0.97782789464367
  H   -0.73539765288140      1.31161692877078     -2.06818554873729
  H   -1.69529853341128      1.54246803386818     -0.58691857351480
  H   -0.05320892246555      2.21691652049588     -0.69754499331709
  C   0.43244633704932      1.27241767098896      1.68734746006657
  N   0.80506796782143      2.29049426153660      2.15345459189746
  N   0.50461136043378     -1.14020468102856      1.65945722522913
  H   -0.27738887089026     -1.79524007775590      1.75746689312717
  H   1.17103118911878     -1.52756984989433      1.00216332340378
