18
Coordinates from ORCA-job run
  C   -0.33151930564055      0.01633351744361     -0.26726312631824
  C   -0.12761141988350      0.03581052658100      1.09378649039021
  Br  2.13100203448482     -0.13576676125439     -1.39931971125807
  Cl  -2.92815009626442      0.05265751561785      2.04190438380006
  H   -1.52464617742299     -0.00387980816860      1.37519036576193
  H   -0.51419626304744     -0.95550517384584     -0.71875250342582
  C   -0.77696967653440      1.20988432214614     -1.04995633985075
  H   -0.76023306658385      0.99130560403766     -2.11636152753287
  H   -1.80109441536282      1.47534724916460     -0.75014862811142
  H   -0.12476007902368      2.06441769729854     -0.87383601066662
  C   0.39374530250590     -1.21683523631281      1.74961316482523
  H   1.48686921869297     -1.22449959898012      1.67521985948817
  H   0.10076838699340     -1.26116073203808      2.80319288142599
  H   0.01872168162657     -2.11215019988399      1.24812768980393
  C   0.26806222390184      1.32656518603363      1.76825697014565
  H   -0.35467644881902      2.16458630849552      1.45049859331299
  H   0.17020073332394      1.23620796150229      2.85336575147552
  H   1.31232736705322      1.54960162216301      1.51920169673411
