17
Coordinates from ORCA-job run
  C   -0.18831672843466      0.00836824791870     -0.41181830085685
  C   -0.25818991552060      0.00345084721343      1.04473753920544
  Br  1.82584788639332     -0.02193316541164     -1.15463593824659
  H   -2.51835342046466      0.21369274326680      2.07980707496329
  H   -1.45396707702817     -0.02166002970982      1.33278347961622
  H   -0.52086820727944     -0.94258165881092     -0.83480281196781
  C   -0.84132132507431      1.19787359334395     -1.06554705580133
  H   -0.79886099261717      1.14184606491643     -2.15543721729324
  H   -1.88811539224597      1.21633158866395     -0.73384484794905
  H   -0.36532500971156      2.11238613838195     -0.71593626075551
  N   0.11205392956433      1.27207200206421      1.64721654465817
  H   1.01860269088471      1.19818081184543      2.09625793955030
  H   -0.59464936078628      1.45567328785055      2.36337804518686
  C   0.32766649547056     -1.21278606891582      1.72677997886404
  H   1.42340793023717     -1.15858561191654      1.77709047499821
  H   -0.07546365764392     -1.27207703175528      2.74465996142286
  H   0.06270215425665     -2.13791175894538      1.20200139440498
