17
Coordinates from ORCA-job run
  C   -0.36448988714427      0.02836134135168     -0.29153786058829
  C   -0.18316145430786      0.03875665491916      1.07004635551165
  Cl  2.06805729321313      0.08981911675210     -1.12094626873090
  Cl  -2.96491270672154     -0.14000036608784      2.03346723907758
  H   -1.56771982328673     -0.04738694952747      1.31961912511877
  H   -0.51281843447248     -0.94526665848563     -0.75107288133635
  C   -0.81468572419412      1.21761507557024     -1.06875077458889
  H   -0.59322591385956      1.08384223703420     -2.12636806261210
  H   -1.90087668643747      1.32521820950772     -0.93670354316467
  H   -0.33375393716693      2.12365983227375     -0.71029397760990
  N   0.18674740743754      1.30354350845584      1.64188601370925
  H   1.14329678742753      1.49223403937903      1.34751620207421
  H   0.15364880267565      1.25157097839552      2.65219650600665
  C   0.33048756139856     -1.20712156884287      1.74816450065265
  H   1.42083837527843     -1.22854309540134      1.65143330374957
  H   0.05306377399562     -1.21091249355580      2.80699492386756
  H   -0.07969543383548     -2.10959986173827      1.28825919886327
