12
Coordinates from ORCA-job run
  C   -0.23083950605480      0.02434681659837     -0.33523090107196
  C   -0.23070607943833     -0.00136929199718      1.11032408500109
  Br  1.75416113661879     -0.05133731090300     -1.27601594278101
  H   -2.72610779453423      0.27048099695739      1.64596134733300
  H   -1.45776940116963      0.07774177976585      1.39666053624030
  H   0.20383505526958      0.88981590869350      1.57042308386086
  H   0.16971578396009     -0.91384094577816      1.55646398121635
  C   -0.90591755392307      1.23418940855245     -0.91607317744454
  H   -0.95030195334071      1.20942998803906     -2.00637598807100
  H   -1.92300190970683      1.24181700735111     -0.48989887071181
  H   -0.40000385522266      2.15038507457731     -0.60320600799668
  H   -0.60693392245820     -0.90100943185671     -0.77293214557461
