14
Coordinates from ORCA-job run
  C   -0.27110211196253      0.02093020277133     -0.21974832158304
  C   -0.10265587253477      0.10985446135453      1.20267544960591
  Cl  1.46791186379955     -0.33309652432633     -1.24165484561315
  F   -2.62383840905649     -0.03317423755129      1.52892301992901
  H   -1.47235767461644      0.14864227631190      1.45804135152942
  H   -0.78246288934545     -0.89696231640236     -0.51090288380993
  H   0.41120960114424      1.02284848131140      1.52155195724594
  C   -0.85324524277288      1.23784939803176     -0.89559463641335
  H   -0.91762197962666      1.11074690039823     -1.97721771300064
  H   -1.85354133891194      1.37764294110020     -0.47789285591837
  H   -0.24504878875623      2.12010773145247     -0.68285798515491
  N   0.39680801327809     -1.07128419118414      1.89826766189961
  H   1.13133169887446     -1.50142759611122      1.34079252117713
  H   -0.36304686951293     -1.73938752715648      1.96526728010637
