12
Coordinates from ORCA-job run
  C   -0.14954625386904      0.00632473526628     -0.39732037776326
  C   -0.08781466780588     -0.02602674309840      1.10051114727900
  Cl  1.51877598200195     -0.06095111526081     -1.19025400470701
  H   -2.52746591517718      0.53399890708759      1.32121935690888
  H   -1.33273994692377      0.17328441987910      1.35746710499243
  N   -0.84348303905595      1.16327736169136     -0.91271155455026
  H   -0.34902552651641      1.98475782838110     -0.57429247519559
  H   -1.73774175505045      1.15231450349734     -0.40179640571323
  C   0.40967204055634     -1.24042946582793      1.68031579169381
  N   0.74036444741031     -2.25678054568137      2.17955588248777
  H   -0.64952905450463     -0.89074676971068     -0.76779913818545
  H   0.42505368893471      0.85456688377642      1.49967467275290
