14
Coordinates from ORCA-job run
  C   -0.07898203368535     -0.04063326651825     -0.40649230026928
  C   -0.05045729798145     -0.09324112400357      1.09530816734094
  Cl  1.63346283736368      0.02204375357313     -1.12557206407745
  H   -2.30224632304085      0.79694916609210      1.46752200196030
  H   -1.28146391591639      0.10821774468149      1.34525157108211
  H   -0.49231312381643     -0.96847693460961     -0.80869840298631
  N   -0.80693905476819      1.08573110036049     -0.94408368932069
  H   -0.29146972885252      1.92410984469062     -0.69336747239886
  H   -1.66341265775167      1.12601699522196     -0.37489376863983
  C   0.42199673989251     -1.35428699688940      1.61033611263921
  N   0.75060122935540     -2.40916848752166      2.02274418712308
  N   0.50783739713659      1.04961284503429      1.78014483662421
  H   1.27071142475380      1.46263574295996      1.25579839958761
  H   -0.25003549268913      1.72534961692845      1.88666242133497
