14
Coordinates from ORCA-job run
  C   -0.13329752124009      0.05117213308592     -0.33279820749673
  C   -0.08896767983391      0.01465504731146      1.12909511932091
  F   1.15664338408877     -0.08648681082572     -0.99533979650332
  H   -2.60578136772275      0.23234535666921      1.36958625907919
  H   -1.62848273338371      0.11290259614963      1.35049852546471
  H   0.33777801366409      0.94272585954234      1.53956100803646
  N   -0.72933892839111      1.25730114725755     -0.89112662544350
  H   -0.28920264546638      2.03291866355032     -0.40169712794130
  H   -1.69116085159780      1.24333388301546     -0.54865633834490
  C   0.49944207267263     -1.24204643094173      1.73003797563642
  H   1.56235031709862     -1.42493992754290      1.49614584857955
  H   0.40358055005797     -1.24188425612527      2.82427814133850
  H   -0.05269134513874     -2.12336239409966      1.37047227272006
  H   -0.70211126480758     -0.80613486704662     -0.72493705444603
