16
Coordinates from ORCA-job run
  C   -0.18255491324337      0.00724057432824     -0.30949894720566
  C   -0.04511087664552     -0.05489488118678      1.11507966372711
  Cl  1.67784845572423      0.14621698519349     -1.24828302584767
  F   -2.56564874726297      0.27404909262161      1.40453881021946
  H   -1.46164513244820      0.00169154319780      1.34482167331930
  H   -0.46371174607055     -0.95358940365497     -0.74467713757528
  N   -0.92583750005794      1.08865726669733     -0.91442597945912
  H   -0.42016217110779      1.94891963928652     -0.73753886051997
  H   -1.78747746966546      1.12365484944830     -0.36836646434871
  C   0.45417318285642      1.18939998132983      1.80951897280190
  H   -0.15294385227416      2.06215451256465      1.55445070176770
  H   0.38945961726129      1.04266348230402      2.89032731661074
  H   1.50206061722457      1.40765040762786      1.55185511551116
  N   0.61122560085083     -1.25127489217331      1.63327417305585
  H   0.04107892251748     -2.05979352393972      1.40940697738753
  H   1.49184601234114     -1.37026563364485      1.13027701055564
