16
Coordinates from ORCA-job run
  C   -0.35878098897288     -0.03566930442147     -0.12441414802194
  C   -0.15353627497359      0.00875236091589      1.29601454883181
  Br  1.64518340789783     -0.25352490450017     -1.19194715895467
  F   -2.67601558519675      0.40191300778909      1.46021014292781
  H   -1.49895876665768      0.14408359343013      1.50069378303068
  H   -0.76203887446080     -0.99293104624683     -0.45787260223627
  C   0.49134350458481      1.24953368518355      1.86436442288479
  H   -0.05956701906202      2.15365200655208      1.59055609797679
  H   0.49641990085881      1.17679700212841      2.95416443674568
  H   1.53000072025923      1.35501614670909      1.51733944165412
  N   0.39255195702460     -1.20188021874770      1.89359337390783
  H   1.24176170405675     -1.44423101615409      1.38031845713314
  H   -0.26288407215782     -1.96133373852061      1.74182334027219
  N   -1.00066475548866      1.05019498793266     -0.80291595439021
  H   -0.49743847988291      1.90254867878850     -0.58498578158000
  H   -1.90846637782893      1.10378875916147     -0.33422240018176
