13
Coordinates from ORCA-job run
  C   -0.20166504738266      0.07003985256530     -0.34770324088488
  C   -0.10340304445103     -0.02217958981059      1.08667433906834
  Br  1.90179336996479     -0.05442344726572     -1.30632875847975
  H   -2.59764380145510      0.37715404065146      1.16819002602384
  H   -1.36144462307868      0.06318986030848      1.27140725227325
  H   -0.55486213209624     -0.85346107879543     -0.81024464499154
  H   0.26483519416479      0.89756476882680      1.55348370242915
  N   -0.88381520158535      1.18622013418187     -0.86015068038028
  H   -0.56043508963284      2.00659082772789     -0.35453881585069
  H   -1.86019983126012      1.03284924722330     -0.51831825552563
  N   0.47675357828584     -1.20744085597105      1.68481546489321
  H   -0.12639904203608     -1.99608517448232      1.47777540243466
  H   1.36443567056268     -1.38610858516000      1.21919820899033
