15
Coordinates from ORCA-job run
  C   -0.12771948704243      0.09386328548849     -0.34353057799270
  C   -0.05579312569192      0.05633396114056      1.15963840917494
  Cl  1.52003498606711     -0.07437595540628     -1.13964206533533
  H   -2.57516980931876     -0.13447645034305      1.13754406483659
  H   -1.28776311461846      0.03320570840248      1.32900156869320
  H   -0.67910219366087     -0.79554287375987     -0.66004692668334
  N   -0.80362715019503      1.24243508611392     -0.88377032817839
  H   -0.39563187832888      2.07659082910592     -0.47080007432041
  H   -1.75341341480857      1.15316540789179     -0.50914932901062
  C   0.50866483384894      1.25285806207293      1.71734705025865
  N   0.92919172127896      2.25397429718350      2.18003315006815
  C   0.48791132774116     -1.22981215058959      1.75214608181365
  H   1.52044869807295     -1.43353373520367      1.45159886339763
  H   0.43880917624920     -1.19806645275768      2.84412290282744
  H   -0.14696056959339     -2.05817901933944      1.41742721045054
