14
Coordinates from ORCA-job run
  C   -0.08585918999021     -0.09065154400988     -0.30882466625224
  C   -0.07267450459505     -0.05848210303273      1.15555623458545
  F   1.23665549216398     -0.06983131700782     -0.93255035372468
  H   -2.44008192053933      0.61350247518137      1.56490883658630
  H   -1.54786552993549      0.19508892488757      1.45153643388219
  H   -0.52557682466767     -1.02378855722564     -0.68376281597294
  N   -0.77572207623964      1.03203383271682     -0.94314207894730
  H   -0.20754481230050      1.85084269446339     -0.74763249974346
  H   -1.63114045439999      1.16210360194822     -0.40013180266188
  C   0.49505189609400      1.20120953791807      1.77056240594314
  H   -0.26307932015805      2.00539687446989      1.77571877957648
  H   0.75813289945878      1.02857229780465      2.82067838884943
  H   1.39486644819918      1.59822721829265      1.27448492274041
  H   0.31791789690999     -0.98463393640655      1.59254821513912
