15
Coordinates from ORCA-job run
  C   -0.16208665541445      0.07404466600418     -0.30964582673898
  C   -0.05110333266100      0.03940295609527      1.17351904445342
  Br  1.66367189344639     -0.06182382209940     -1.24958640912104
  F   -2.58302285069156      0.06608260527955      1.14166454386843
  H   -1.42538527797725      0.05654527581052      1.32679467070552
  H   -0.65374426812919     -0.83705110925765     -0.65370934795126
  N   -0.84052493594198      1.21152955967982     -0.88018247935270
  H   -0.38852509436862      2.05244697900088     -0.53209363511272
  H   -1.76344349110241      1.16467167269871     -0.44565100386809
  C   0.51277246381318      1.23819660186915      1.71951499322297
  N   0.94068333808501      2.23640277494031      2.18258527800552
  C   0.53041835685739     -1.23817963339326      1.75106013580629
  H   1.59126923836299     -1.36947301422563      1.50268447971891
  H   0.42485679253222     -1.25460690164032      2.83973242191700
  H   -0.01946617681071     -2.09809861076211      1.35377313444671
