14
Coordinates from ORCA-job run
  C   -0.20119277911314     -0.04068916522945     -0.29992903942089
  C   -0.11978680785607     -0.07606630273058      1.12728327373510
  Cl  1.64314437528244      0.09637414299872     -1.23307517853570
  F   -2.59683409416526      0.45514181982122      1.44231217935467
  H   -1.53741468050397      0.06085782506279      1.36595176851741
  H   -0.49642051545908     -0.99083872656518     -0.74459186135851
  H   0.30835274180554     -1.00936564883720      1.50297290470299
  N   -0.91337872116077      1.06310422710127     -0.92425637749144
  H   -0.34841125283561      1.89789138729443     -0.82402297836059
  H   -1.73959886292629      1.18147993231691     -0.33754740829099
  C   0.41179907269893      1.15888169306220      1.82689544727908
  H   -0.23001178094391      2.02279950590332      1.63220085058043
  H   0.41184340412079      1.01158098740824      2.91163928018572
  H   1.43492990105640      1.41365832239330      1.51567713910276
