15
Coordinates from ORCA-job run
  C   -0.14076402562168      0.00307014208849     -0.37205771133464
  C   -0.11030027509471     -0.01387409435635      1.13303367393232
  Cl  1.55345845947390      0.01135562332507     -1.11654223803009
  H   -2.52729365492256      0.61590634561693      1.34444880395066
  H   -1.34550414248937      0.12575380522403      1.35101647680763
  N   -0.87907216204628      1.10788007301805     -0.93679311384731
  H   -0.38263904913292      1.96422048296912     -0.71141956296893
  H   -1.74893597303723      1.13063163159601     -0.38360594488164
  C   0.47612084996535      1.22453946703605      1.78730210573563
  H   -0.20663583331675      2.06563474029870      1.62356784112467
  H   0.54606964917482      1.07727038062000      2.86793462328137
  H   1.47045091053109      1.47858424298540      1.40525465590830
  C   0.39100224765785     -1.24577113214621      1.67375558852082
  N   0.77025819960847     -2.26035617337011      2.14221030508349
  H   -0.57402520074999     -0.93086553490519     -0.73660550328229
