14
Coordinates from ORCA-job run
  C   -0.21634551034339      0.15319544980435     -0.30554388584669
  C   0.20124788073748      0.04932439797249      1.09963007481695
  Cl  1.21099907437176      0.24260068143874     -1.50972527288533
  F   -2.55766654723358     -0.10125309686227      1.58245409357706
  H   -1.61933180717552      0.05222849538824      1.60527487465650
  H   -0.66524915173505     -0.80961314475728     -0.56754120187478
  N   -1.10429981012646      1.27738318407202     -0.57935331575076
  H   -2.05444619986003      0.93038137566771     -0.60675405662899
  H   -0.87182606868045      1.69812021155684     -1.46648910157048
  N   0.91850964793605      1.12359080275548      1.70153634087717
  O   1.34025247299571      0.96565801758208      2.86010675775782
  O   1.06580543335708      2.17275689634341      1.06177741950381
  C   0.55256009484508     -1.23792540347908      1.58157040448815
  N   0.78180049091132     -2.34114786748272      1.93304686887957
