15
Coordinates from ORCA-job run
  C   -0.17521176422305      0.05948728188990     -0.32597138796274
  C   -0.06222182335166      0.02983057599013      1.17339643357098
  Br  1.60862409693253     -0.14396998697065     -1.24804478570344
  H   -2.62178863405880     -0.02974220099951      1.18083687807606
  H   -1.27123368087789      0.04586243746927      1.37194730425170
  H   -0.71944531131235     -0.83735965697191     -0.63229038444149
  N   -0.86089131497583      1.19986772766115     -0.85809683148030
  H   -0.44418193906223      2.03965506729988     -0.46567026703322
  H   -1.80118541154965      1.10911726349510     -0.45088438133533
  C   0.48604605547794     -1.25434289327029      1.76720103684017
  H   1.52533542348834     -1.43956823529979      1.47919195063643
  H   0.42059185238939     -1.22735130426741      2.85842388011030
  H   -0.13030994352494     -2.09008541358284      1.41888365862818
  C   0.53508452307942      1.22500014019953      1.70839553340614
  N   0.98579787156879      2.22017919735744      2.15287136243656
