12
Coordinates from ORCA-job run
  C   -0.14797846027254      0.01822961511284     -0.38840757119428
  C   -0.07830261173137     -0.04442814633090      1.11274745182032
  F   1.12067959272317     -0.08800268573511     -0.99072104222331
  H   -2.57867108350229     -0.09891998450995      1.19385662783869
  H   -1.35786608491790     -0.08666339150435      1.32097876656183
  H   -0.72618324773442     -0.84589572505210     -0.73271141871452
  H   0.36644944318334     -0.97316461533657      1.48165795440390
  C   0.50896787226826      1.11232095693659      1.71925476775868
  N   0.92363796700388      2.09580598877483      2.22461550721562
  N   -0.79188003655413      1.20101930284989     -0.89812890945538
  H   -1.74614514188829      1.14343710413172     -0.53678537672258
  H   -0.36361820857771      2.00706158066307     -0.45070675728894
