15
Coordinates from ORCA-job run
  C   -0.25568296802545      0.03470467449482     -0.26647317242659
  C   -0.06798985898384     -0.12254569391318      1.14758006940575
  Br  1.80650068008331      0.36095412090369     -1.23720051301915
  F   -2.55901851145252      0.24560380785037      1.49585787599481
  H   -1.41794348907834     -0.11504051907787      1.38206933461926
  H   -0.48880933270677     -0.89472441554370     -0.78812679921768
  N   -1.02961280291446      1.12960688853810     -0.76941408425352
  H   -0.62447700974424      1.97970245724142     -0.39174564590626
  H   -1.92909700103873      1.01397141730568     -0.29475328581174
  N   0.38671964184416      1.04777393552971      1.86452517233859
  H   -0.40852460225681      1.62151720848975      2.11303125173752
  H   1.02571179310166      1.58531536511882      1.28344616234683
  N   0.61156419547413     -1.32328136388886      1.59346713557034
  H   0.17685697283535     -2.12132440052004      1.14133544042027
  H   1.57123229286254     -1.28045348252869      1.24614105820156
