11
Coordinates from ORCA-job run
  C   -0.13210967062014      0.01998993835569     -0.33654394189582
  C   -0.16625269108533     -0.02096449818725      1.13233235632573
  F   1.18745502886983     -0.05720172609536     -0.93548237919595
  H   -2.67221278402388      0.33964326276823      1.30148646858444
  H   -1.69286289072247      0.14782685651172      1.33144825861973
  H   0.31971862641513      0.86443546331948      1.56905772732825
  H   0.26643479285340     -0.94298391896306      1.54363228445032
  N   -0.73547591744669      1.21720783080218     -0.91395055328153
  H   -0.29678685835608      1.99944149265032     -0.43312544123643
  H   -1.69556679759921      1.20720977500558     -0.56547483491860
  H   -0.65440083828455     -0.84544447616752     -0.76674994478013
