13
Coordinates from ORCA-job run
  C   -0.21774960240263      0.09747029227128     -0.30884750120773
  C   -0.03023129116678      0.04321763788344      1.10993216127347
  Br  1.82330646541120      0.06722334198651     -1.38016502969802
  F   -2.58894255398724     -0.00179270957478      1.17438295898972
  H   -1.39712706796820     -0.01438765159679      1.28460447708963
  H   -0.55240813685074     -0.84307290792630     -0.74405663721308
  H   0.30434656575390      0.99700424991986      1.53338542686667
  N   -0.91776872657223      1.20142033036338     -0.87031102464221
  H   -0.59676552435152      2.04163403516753     -0.39963195908396
  H   -1.87975910007679      1.04426188853171     -0.56754956194922
  N   0.67620685647582     -1.09157691427501      1.67483551119622
  H   0.10440433040599     -1.92027194076782      1.55748164503144
  H   1.52407778532924     -1.23770965198299      1.12827953334707
