15
Coordinates from ORCA-job run
  C   -0.12483278241354      0.00852715585415     -0.39069262704597
  C   0.00497378038803     -0.05799902467035      1.08837052666092
  Br  1.68687406804700      0.23268238015560     -1.35033976225422
  F   -2.46574391297664      0.36465939559886      1.41274259812389
  H   -1.35042683213382      0.02154104252976      1.37541908550131
  H   -0.45533280254580     -0.95122367025084     -0.79111841858530
  N   -0.96848252340124      1.06650381302283     -0.91575044438269
  H   -0.51170105747419      1.95439486931969     -0.73886874666760
  H   -1.79772606468794      1.03413990324273     -0.31755646788744
  C   0.55326465488484      1.18860162134317      1.76515678721553
  H   -0.10704216158397      2.03636641390781      1.56540287836200
  H   0.57167983069494      1.04772827144599      2.84898015865454
  H   1.56764447566812      1.43973567758866      1.42946927425502
  C   0.61153039131991     -1.27108386269868      1.54793233142909
  N   1.08668093621429     -2.27546398638938      1.94647282662091
