15
Coordinates from ORCA-job run
  C   -0.09484725218177     -0.05977559680585     -0.33283729633943
  C   -0.05835868990017     -0.03358911601803      1.17334720243810
  F   1.20537477493526     -0.03572624116850     -0.88485121520794
  H   -2.43394583351163      0.60475654113109      1.44730150747889
  H   -1.32163902095729      0.12494074286045      1.42061681341961
  H   -0.54951538127275     -0.99623113801243     -0.67373363369612
  N   -0.81667544684948      1.04479611657854     -0.92242309412979
  H   -0.29934379466361      1.88899559212935     -0.69618537027069
  H   -1.69106641032502      1.10463496392234     -0.38912414988024
  C   0.53042053468902      1.23923070742102      1.76086035098757
  H   -0.21109127063936      2.04363470101806      1.67237443325968
  H   0.73266565863666      1.10753550525735      2.82690221694918
  H   1.46136118272450      1.54675284454155      1.27149864660059
  C   0.47207573446382     -1.23740574754723      1.73896495217308
  N   0.85729521485181     -2.24073987530771      2.22998863621752
