13
Coordinates from ORCA-job run
  C   -0.17584892460380     -0.05635967741223     -0.33480624030463
  C   -0.19857325569930     -0.02269979323349      1.10750529104032
  Cl  1.71320515338836      0.08435572915661     -1.09958484356884
  H   -2.52427172588935      0.65597440045364      1.34897996242037
  H   -1.51225189187678      0.10990523268541      1.27745782927339
  H   -0.44684059815819     -1.03331276122291     -0.73952733635487
  H   0.18610743856740     -0.92753684330955      1.58604617144970
  N   0.22147645844477      1.19398213744124      1.77087941654725
  H   0.97909764909135      1.63463457518714      1.25952674855606
  H   -0.57653289676882      1.82930567742552      1.79369095090268
  N   -0.89031606420999      0.99339930751153     -1.01348516950106
  H   -0.42790892983526      1.86771761783334     -0.78744068988099
  H   -1.79018241245038      1.03406439748374     -0.50902209057939
