16
Coordinates from ORCA-job run
  C   -0.19430145593027      0.04678380462986     -0.29829360073471
  C   -0.22547547732402     -0.11830975027789      1.15465727720822
  F   1.17944042795738      0.42479410980309     -0.80134520766492
  H   -2.38948066463086      0.46250763982343      2.10928242152531
  H   -1.61272974659118      0.03615116506967      1.62731313856675
  N   -1.08273257328066      1.06632995778232     -0.77598735216798
  H   -0.65341514131665      1.54365464517872     -1.55816022790962
  H   -1.23572165543145      1.72840224517701     -0.02544934611208
  N   0.24578615363620      1.05094281523217      1.87938641626990
  H   -0.56495743802126      1.57931899959228      2.22110940443534
  H   0.81954764467877      1.64648284656665      1.29336729213506
  C   0.42249397654240     -1.38265388719344      1.66426688186868
  H   1.52515584112301     -1.34869021244891      1.63866426782700
  H   0.13055484819302     -1.54815848516925      2.70940293895674
  H   0.09863635488427     -2.25938204944072      1.08675760016081
  H   -0.35572109448872     -0.89097384432498     -0.83975190436450
