14
Coordinates from ORCA-job run
  C   -0.22918379119291      0.02743396476675     -0.27005137940930
  C   -0.10816195742678     -0.03153802185588      1.15362361370390
  Br  1.77378901207692      0.07338778637135     -1.30270187889643
  F   -2.64366577574777      0.27330424867496      1.29719277634988
  H   -1.48333491209046      0.04135623141347      1.33328698029228
  H   -0.56452922388587     -0.90755585735928     -0.72104500002659
  H   0.24586223937668      0.91598082380613      1.57673550061211
  N   -0.91556164404430      1.14926372916092     -0.86066740934813
  H   -0.44804015852723      1.99026937741239     -0.53631844177696
  H   -1.82324237903099      1.12317067005402     -0.38941847662844
  C   0.56102490075958     -1.25318085977572      1.73770634447884
  H   1.63050391900932     -1.29470604350623      1.49001223802343
  H   0.45991154053582     -1.28055917052643      2.82793270976114
  H   0.10206823018799     -2.16821687863646      1.34666242286427
