17
Coordinates from ORCA-job run
  C   -0.18877162878159      0.00163819921846     -0.26785732404824
  C   -0.01679787638116     -0.02121457490058      1.15446383854120
  Br  1.78744774905501     -0.02482488289294     -1.34977065894618
  F   -2.46761005093472      0.60297052983555      1.47066899149988
  H   -1.34737861621434      0.16301744280240      1.39528904518790
  H   -0.55403139870192     -0.94491349989115     -0.67005531781183
  N   -0.86372227369598      1.11756917547888     -0.88968624963325
  H   -0.28844982914315      1.94317825609857     -0.76966057243373
  H   -1.69411030974650      1.23635190569469     -0.30275515970539
  C   0.56429987290867     -1.30511186913570      1.69760056912983
  H   1.64289095320538     -1.37190900050509      1.49041302816140
  H   0.42096090834645     -1.37588213805115      2.78207907515498
  H   0.08868043687191     -2.18050939227540      1.24207168184848
  C   0.58140316146496      1.22044649419023      1.77935586131104
  H   0.01962596028702      2.11441187694318      1.49918500854582
  H   0.54067962082565      1.15002814155885      2.87158087893709
  H   1.63125332063433      1.35433333583121      1.47891730426099
