15
Coordinates from ORCA-job run
  C   -0.07754899869286      0.08266982690605     -0.35877657281683
  C   -0.04330270650204      0.06012010483834      1.14561437792063
  F   1.20834419009615     -0.06809969871517     -0.91626128188859
  H   -2.52871357394482     -0.19300609138049      1.14907990561502
  H   -1.30574888860624      0.01268473419937      1.30369154318945
  H   -0.65982735514556     -0.78749397308017     -0.68331425475797
  N   -0.68863749736759      1.25227060546431     -0.93137897479194
  H   -0.29561113713764      2.07079212883333     -0.47484362885184
  H   -1.66568711557029      1.19666016488512     -0.64231718689550
  C   0.50528814753190      1.25748479255069      1.70776059975564
  N   0.91035678577541      2.26702882791568      2.16952712835761
  C   0.50898653553963     -1.22540483389949      1.73489678969815
  H   1.52547274972628     -1.44793740286647      1.39370090945358
  H   0.50821131775640     -1.18496970814563      2.82791298535413
  H   -0.14956245345875     -2.05056947750547      1.43688766065845
