15
Coordinates from ORCA-job run
  C   -0.09927075555731      0.01832811373359     -0.39029981435756
  C   -0.01723155123347     -0.06126661283097      1.09458051342749
  Cl  1.57042226457819      0.27825214156169     -1.20739684213587
  F   -2.50512180191708      0.33538143584341      1.41326493221762
  H   -1.43540086374537      0.01564687021895      1.37470126803655
  H   -0.41429524108820     -0.94228287777319     -0.80179713590728
  N   -0.95640231561469      1.06501954588228     -0.92682361770673
  H   -0.51679818200800      1.95825589689485     -0.73333913070499
  H   -1.79841390965999      1.02083573261468     -0.35219976620361
  C   0.50424535427086      1.18537789910722      1.79304240983301
  H   -0.14979852326247      2.03434738806097      1.57511633157199
  H   0.48433973717928      1.04144880258621      2.87657807292573
  H   1.52940668982388      1.44639881186330      1.49852945795614
  C   0.58654070867374     -1.27044366183385      1.55902786567997
  N   1.05583838956063     -2.27582948592912      1.96454545536751
