14
Coordinates from ORCA-job run
  C   -0.21325799901178     -0.02486314327888     -0.31058227853553
  C   -0.14950018347950     -0.04933769517961      1.13121090931919
  Br  1.81792804177506     -0.00466477943586     -1.26570057975413
  H   -2.57628506563075      0.53108136464184      1.35120248047280
  H   -1.40480847475057      0.06443321704524      1.33684596743367
  H   -0.54592830104968     -0.97165015505744     -0.73838640783583
  H   0.22869019148438     -0.99449522897182      1.53010105583036
  N   -0.91881283590812      1.06526136595624     -0.90553022661852
  H   -0.46611697241257      1.92793731858847     -0.62163438042773
  H   -1.82444962813558      1.05307006782377     -0.39212581583264
  C   0.40657978015212      1.17080289507916      1.83227137334718
  H   -0.26230996469131      2.02728771588997      1.69328208578246
  H   0.46854863335864      0.99421317485215      2.91037224341339
  H   1.40496277829965      1.43413388204676      1.46476357340532
