13
Coordinates from ORCA-job run
  C   -0.23687495345319     -0.03567069189691     -0.29459307535184
  C   -0.08440960688815     -0.17076859608087      1.11683382536413
  Cl  1.59124499966769      0.34173617770874     -1.25788539676070
  F   -2.54110275115836      0.27601696505807      1.59591433911579
  H   -1.50603896985237     -0.12806901450992      1.41782870985925
  H   -0.46843742680288     -0.97158501083200     -0.80366702593060
  H   0.42128013733212     -1.09164857580749      1.41708653643418
  N   0.36906337514872      0.98729242080747      1.87597770061964
  H   -0.41014483111115      1.62214155431563      1.99831765348418
  H   1.09649104477666      1.47109397161500      1.35442448934479
  N   -1.03077630990074      1.06343359475809     -0.81291558417968
  H   -0.52076016471881      1.92070381690820     -0.63578188488425
  H   -1.85232454303955      1.07588338795597     -0.20829028711486
