14
Coordinates from ORCA-job run
  C   -0.16148440238685      0.04279512526159     -0.33068899880390
  C   -0.07548205791194     -0.00707904915908      1.10385681691162
  Cl  1.65205228088597      0.06283273760572     -1.26472482585182
  H   -2.54241000092199      0.22307601403085      1.42337210050756
  H   -1.40081129377822      0.05713089231272      1.34513830905017
  H   -0.53533519281218     -0.89075876096833     -0.75831536398653
  H   0.27535150823121      0.93666026480425      1.53834451405669
  N   -0.88703133398864      1.14856142574812     -0.88807162638499
  H   -0.50177790608406      1.99416009908964     -0.47686254437836
  H   -1.82377536480206      1.04590164173113     -0.47072141739087
  C   0.54177016655413     -1.23644806548773      1.72465049335838
  H   1.61654583432627     -1.32255781174366      1.51981568228968
  H   0.39748663519588     -1.24021658212532      2.81103812212825
  H   0.06063112749249     -2.14054793109991      1.33283873849411
