17
Coordinates from ORCA-job run
  C   -0.12736810297998     -0.02003604443773     -0.39700871251523
  C   -0.08289636394164     -0.04516028369458      1.06359367069992
  F   1.17718962371822      0.12379604618891     -1.04487444226894
  H   -2.44502814344106      0.27877748601157      1.80693091891820
  H   -1.52472804944553      0.07056548141804      1.47278727205044
  H   -0.49552729881317     -0.97946307277838     -0.78572100742483
  C   0.42764083667757      1.20155125880862      1.73552725949629
  H   -0.06310257134530      2.10160327300484      1.34482050346970
  H   0.18055862620651      1.16832067864052      2.80763800825160
  H   1.51847622730982      1.35096394145120      1.65094979243571
  C   0.48655027431738     -1.30329836019796      1.66334960095171
  H   1.59243958661499     -1.34196026518060      1.68077338708784
  H   0.14733610335895     -1.41943436500913      2.70571757917202
  H   0.14457847189526     -2.19191160692641      1.11547254967368
  N   -0.92175429187266      1.05148032587603     -0.99953913842204
  H   -0.40308465374240      1.91033467663285     -0.84839752753125
  H   -1.75858027451697      1.12364083019220     -0.42145971404482
