16
Coordinates from ORCA-job run
  C   -0.14983446704196      0.02509323411347     -0.32767740101113
  C   -0.07301123589451     -0.02933408206750      1.11405477476852
  Cl  1.70177668231473      0.01418605281177     -1.19417821403369
  H   -2.53564936878653      0.22242590535450      1.37330599532052
  H   -1.38496434184054      0.01669534668879      1.31313398583708
  H   -0.51156320547932     -0.92069207045461     -0.73957647456341
  N   -0.86332082713171      1.11402579042101     -0.91952782321640
  H   -0.45969773970963      1.97834617602018     -0.57526591029716
  H   -1.79838756372738      1.04518139111116     -0.48872050455210
  C   0.43837950607163      1.19592111851338      1.82750215548058
  H   -0.18975126794042      2.06948103710991      1.61890634823586
  H   0.39460548816249      1.00978949856898      2.90326513689528
  H   1.47562324873092      1.43657043756737      1.55665354371875
  N   0.46268161054553     -1.26112216930876      1.67474090670009
  H   -0.21013899961469     -2.00467037115752      1.51151244255835
  H   1.31010248134141     -1.51048729529211      1.16752103815886
