13
Coordinates from ORCA-job run
  C   -0.29509925800260     -0.16785065086860     -0.36016556022512
  C   -0.10577878877910     -0.16279686155987      1.11751697304107
  Cl  1.14679818061301      0.23082328818229     -1.30764306536575
  H   -2.39818827529692      0.89110830907109      1.19803238033287
  H   -1.19847164121045      0.00327890343139      1.49912101933603
  H   -1.06871145259488      0.60311272526895     -0.51994308454615
  H   0.39635151572800      0.75061281759293      1.43217218783224
  N   -0.93791875887245     -1.44135902671211     -0.86311735245960
  O   -0.72083314927306     -1.79716243987993     -2.01633521760578
  O   -1.73067504390545     -1.96147334495218     -0.08921888256160
  N   0.64938463259260     -1.28483844921048      1.66514112902432
  O   0.87446511583719     -2.27526658192988      0.95880781248333
  O   0.99464692316414     -1.18715868843360      2.84837166071415
