15
Coordinates from ORCA-job run
  C   -0.25759435994840     -0.05961550514477     -0.27003045144391
  C   -0.25892904896312     -0.06932744517363      1.23269494569771
  Br  1.45254822319488      0.35450641289071     -1.09978813329193
  H   -2.39353452350957      1.11031035611840      1.56317669948662
  H   -1.40323312892544      0.01964363937244      1.48819814220591
  H   -0.94511417588082      0.75015345368470     -0.54152320694898
  N   0.24092232491832      1.10377255611005      1.84889060032277
  H   -0.59128103428383      1.69776625823313      1.97463227475688
  H   0.94520628009586      1.56790802422164      1.29126980387696
  N   0.35885357045197     -1.29569208397219      1.78615179745118
  O   0.77213435908760     -2.15507370416264      0.99256513093028
  O   0.38367444210764     -1.41723504189260      3.00943791276421
  N   -0.86635950952241     -1.30423320995116     -0.88955092734569
  O   -1.80706744806412     -1.77283645054704     -0.26005545329940
  O   -0.47032597075856     -1.69438725978703     -1.98005913516260
