12
Coordinates from ORCA-job run
  C   -0.32140040160041      0.00167739631330     -0.35529294614683
  C   -0.15599196894423     -0.17402543102611      1.12018671146546
  F   0.74287143138329      0.59378640779469     -0.98736238144439
  H   -2.52414200794802      0.72085665448192      1.30784833917950
  H   -1.28256960899456     -0.02516139337151      1.46952731554051
  H   -1.22799372608737      0.61436026060251     -0.49940550852584
  H   0.32014403933892      0.73430934997681      1.50158414559128
  C   0.56726292063093     -1.34296613862059      1.56006533032446
  N   1.16356836392337     -2.27281829983266      1.96784929963899
  N   -0.58637947770349     -1.30538305796355     -1.05280682928228
  O   -0.11464179684390     -1.46978964550619     -2.17530996052458
  O   -1.32588776715453     -2.08690610284863     -0.46221351581629
