15
Coordinates from ORCA-job run
  C   -0.10594068696023     -0.00748621461525     -0.35721491177943
  C   -0.29855196457634      0.08898331026978      1.06460496983707
  Cl  1.71972793285433     -0.30452863964541     -0.97646489551085
  F   -2.47164537920029      0.09886733179977      2.23264492600222
  H   -1.59346132445042      0.07754876074947      1.42306297056378
  H   -0.37717485160980      0.90026567256611     -0.88049543249903
  N   -0.85613948498781     -1.12866327267698     -1.00341162007734
  O   -1.66375539144936     -0.81159379660267     -1.87815753622342
  O   -0.65512674018104     -2.27873326297831     -0.62083003157430
  N   0.09568154857191      1.41199738374842      1.52330455453600
  H   1.03063620776187      1.32458067633239      1.91487035332081
  H   -0.53187592222509      1.63935648365172      2.28742951955100
  N   0.27456235128532     -0.98603780814712      1.87346219401720
  H   0.45098125179771     -1.79602342019221      1.29128653221589
  H   -0.44791754663077     -1.24635320425971      2.53813840762038
