13
Coordinates from ORCA-job run
  C   -0.28628938995489     -0.01432101938597     -0.24489916347433
  C   -0.10814863737719     -0.09149248331262      1.12097892292547
  Cl  1.72720947519799      0.39273750930834     -1.41187167619180
  Cl  -2.82090412336106      0.17323346590939      2.25797712894652
  H   -1.54937635497571     -0.05821683628739      1.51798151479906
  H   -0.69219540265568      0.86813722375784     -0.71711798471663
  H   0.15577619657897     -1.06583050700749      1.52943518643216
  N   -0.71629177317199     -1.22543739416945     -0.93467599204561
  O   -1.45839535698597     -1.06781444498708     -1.90744628952304
  O   -0.34780155699610     -2.31616104329883     -0.49851497298005
  N   0.43541372721705      1.04941874918804      1.78881979922262
  H   -0.24023353798258      1.50014594529442      2.39327716356882
  H   0.79991673446713      1.70775083499080      1.11160636303681
