15
Coordinates from ORCA-job run
  C   -0.17124054902070      0.01100750403410     -0.35057716990403
  C   0.08993742380841     -0.04344826277095      1.02883396205520
  Br  1.65217005481731      0.30135311177501     -1.69399487756505
  Cl  -2.70908097753771      0.34524930814130      2.14658237384693
  H   -1.44447378089356      0.03237337501001      1.58122101872136
  H   -0.69757679189342      0.88956284573322     -0.70568203206759
  N   -0.77598635727518     -1.18094174972935     -0.98449235768452
  O   -1.69109706410993     -0.96011642101476     -1.77982092044009
  O   -0.35377290674329     -2.29027051257343     -0.67393801627051
  C   0.54238568003624      1.26473761385044      1.64578377210149
  H   -0.08312032952196      2.08681021204151      1.28784027282327
  H   0.45699501947697      1.22555157190776      2.73397626798855
  H   1.58304422193100      1.47538998638861      1.37344822956324
  C   0.66035702481097     -1.20337160507095      1.63559378865556
  N   1.14460933211487     -2.08249697772249      2.25481568817620
