12
Coordinates from ORCA-job run
  C   -0.18337031111608     -0.04070791228984     -0.32169085961457
  C   -0.11499155468258     -0.14887096122768      1.16554803898903
  Br  1.52440879560176      0.25761854300642     -1.21971948590346
  H   -2.52660680706126      0.71902372716660      1.05664098271808
  H   -1.26437574525121      0.00588308083173      1.40183290402675
  H   0.33269522172223      0.77505813161798      1.54448748805445
  N   -0.84106027160043     -1.23273466526213     -0.97650732080353
  O   -1.12050986707316     -1.11262997702707     -2.16520031454851
  O   -1.08290170158212     -2.21245183431112     -0.28073399186439
  C   0.57250083174168     -1.28961969382186      1.72223739376967
  N   1.12184727870347     -2.18539811037379      2.25285770260765
  H   -0.85098586940228      0.79574967169077     -0.55651253743118
