11
Coordinates from ORCA-job run
  C   -0.15141760420735      0.01118861721767     -0.32994604392366
  C   -0.21676105049357     -0.00417518288891      1.11933575788529
  Cl  1.56198117161202      0.03524007696976     -1.13812257971068
  H   -2.70258024817879      0.24410584810249      1.75825322244674
  H   -1.42747530460202      0.09115076743163      1.44417853503978
  H   0.24238925700694      0.89168741801965      1.54287387193464
  H   0.20473167640700     -0.91148185557233      1.55154238156528
  N   -0.79960099936151     -1.20706473354075     -0.92553072753143
  O   -1.58306073073506     -1.01447400937921     -1.85518818047288
  O   -0.51486617480582     -2.30256066282037     -0.45379817763913
  H   -0.64875999264185      0.85573371646036     -0.79956805959395
