16
Coordinates from ORCA-job run
  C   -0.22276943685576      0.00335815623126     -0.29550330832516
  C   -0.05505974698409      0.00038545556716      1.09174799119554
  Br  1.89380534939632     -0.05289826540701     -1.51918371698510
  Cl  -2.68795247820223      0.11529415946351      2.35084935993293
  H   -1.39200642774455      0.06664538906673      1.45046621710952
  H   -0.55358677347804      0.92280984659405     -0.75933248645046
  N   -0.86789304547463     -1.12894294329157     -0.95217135135350
  O   -1.59895046611723     -0.86613539298884     -1.90975621358338
  O   -0.67731828362161     -2.26908185737255     -0.51630956232052
  C   0.43616836458660      1.30728139479333      1.66458687656504
  H   -0.08148818391359      2.15736085874383      1.21546672398524
  H   0.25912372709065      1.33322579638160      2.74297353571166
  H   1.50991650289845      1.38607931204859      1.46873338560693
  N   0.46607007592664     -1.12605137176032      1.78186621252458
  H   0.25992178061412     -1.98004867297287      1.28108385531858
  H   0.05960904187899     -1.16894186509696      2.70991248106810
