15
Coordinates from ORCA-job run
  C   -0.11345811580490      0.01196965494596     -0.35406488566679
  C   0.13756980175179      0.01266750552161      1.02828532984405
  Br  1.69002254286145     -0.44108084874862     -1.64970754405184
  Cl  -2.49879501759280     -0.04854024595542      2.46315144277237
  H   -1.35556521125536      0.05178252334437      1.62613985215922
  H   -0.39065138678120      0.96452924378251     -0.78104662737434
  N   -1.03064423190395     -1.03918831847953     -0.83413796604272
  O   -1.88001545116721     -0.68698096291671     -1.65278403682127
  O   -0.91638663010331     -2.18183708598730     -0.38831706755689
  N   0.73373549893901     -1.07908203930943      1.69399603637072
  H   0.45863140540789     -1.93085139179887      1.22285710447778
  H   0.43931780576411     -1.10461507810682      2.66272228345102
  N   0.57641516330048      1.29459681856230      1.55191848589317
  O   1.06637748220521      1.28335950611398      2.68712098535477
  O   0.35771634437882      2.32368071903202      0.90172660719075
