16
Coordinates from ORCA-job run
  C   -0.23183872441487      0.15898420656389     -0.27325174723007
  C   -0.23199814424424     -0.12639845955769      1.15794969020394
  F   0.97263927506534      0.67961181541006     -0.82722576050439
  H   -2.51789788741814      0.21397242589712      1.86024077580630
  H   -1.58778588558008     -0.16353949462830      1.47773650635716
  H   -1.01058782309707      0.88057804587379     -0.53815972295218
  N   0.03832133496110      1.07522419200246      1.93136032990263
  H   -0.87293793901331      1.48494840127056      2.17259696917857
  H   0.57510920488749      1.75480221961974      1.40598472019743
  C   0.56263851620927     -1.31770107105627      1.63903503416488
  H   0.25526898302324     -2.25158692718418      1.15661682566706
  H   1.64914290126891     -1.21099517445545      1.49760626511149
  H   0.38062279669876     -1.42071764027899      2.71335055994303
  N   -0.52315835068633     -1.07496012141532     -1.08765094634561
  O   0.41818693985411     -1.79931683982025     -1.40554523118780
  O   -1.70479519751419     -1.29642557824116     -1.35126426831245
