13
Coordinates from ORCA-job run
  C   -0.23433588159560     -0.06562167367082     -0.23711074136455
  C   -0.24413649787409     -0.13791266912353      1.25077314257811
  Br  1.48767965511813      0.32282478842788     -1.03116004003690
  H   -2.47410881126402      1.03852229782875      1.06140844259660
  H   -1.37072278161131      0.05969586604580      1.48573210918859
  H   -0.92854072306932      0.76468414992998     -0.45783058619354
  N   0.37871500677748     -1.32116823503926      1.83563717874117
  O   0.65132673509189     -2.28902770036483      1.11531528304772
  O   0.56400984847542     -1.29463614435269      3.05780271094892
  N   -0.87788301925837     -1.26763543642814     -0.88877583785277
  O   -1.77229689663332     -1.79155878181636     -0.23706291207222
  O   -0.56174022242558     -1.55984616800958     -2.03708364735750
  H   0.24398358826868      0.73498970657281      1.68061489777637
