13
Coordinates from ORCA-job run
  C   -0.03854956573213     -0.01526153163572     -0.40904599751255
  C   -0.18169386840723     -0.00183228364222      1.03995932651295
  F   1.27659393521968     -0.10416686636410     -0.93919190158581
  H   -2.29335740654036      0.30852114748013      2.16711009319712
  H   -1.46692310674890     -0.00934048030626      1.49079668857215
  H   0.28912315935066     -0.88073128180865      1.49783424680346
  N   -0.73236991691769     -1.23086018359997     -0.96465453331581
  O   -1.79503726574118     -1.05546156817627     -1.56451558187776
  O   -0.21479524639352     -2.32770510680878     -0.75827454531563
  N   0.15995688594222      1.29484185674394      1.59570169628935
  H   1.04639536803593      1.27075662440034      2.08211792097445
  H   -0.57852885655234      1.50115435970044      2.28171410895802
  H   -0.50476411551515      0.84716531401711     -0.88180152169991
