16
Coordinates from ORCA-job run
  C   -0.20411747985377     -0.00395479073251     -0.24954688061561
  C   -0.08413627340885     -0.04929903217000      1.19467970585797
  Br  1.56705265237703     -0.00912979448615     -1.34750594098369
  F   -2.57403930842768      0.42597635836140      1.33359120707292
  H   -1.32892074753883      0.01829152111675      1.39544135436922
  H   -0.71157015516056      0.89436172434612     -0.58404525988588
  N   -0.97313773023014     -1.13236367915751     -0.87325526283335
  O   -1.70302431376589     -0.84309589056557     -1.81675205622958
  O   -0.82876502390570     -2.26871296318359     -0.42419720987168
  C   0.43007312286171      1.27095385958666      1.73261348167376
  H   -0.23347236432295      2.08060782798080      1.42075412718142
  H   0.41388243232478      1.24579701607352      2.82761317180088
  H   1.45901582722912      1.47074944730487      1.40863920943926
  N   0.69733032812511     -1.15980257558556      1.74523384717538
  H   0.37068836026547     -2.01595384226903      1.31398905556153
  H   0.45073067343118     -1.22408518662025      2.72817745028746
