11
Coordinates from ORCA-job run
  C   -0.03127079460351      0.01420609893089     -0.34581500147097
  C   -0.22554325885675     -0.00970032919960      1.09519519075348
  F   1.29956691241656     -0.08500253280935     -0.84401337918751
  H   -2.67273369547611      0.27674025749052      1.66490462136167
  H   -1.54205190752046      0.10281568157942      1.37164621391541
  H   0.19670927673697      0.88510560830875      1.56002853434457
  H   0.17084191450237     -0.92261632525394      1.54415961527704
  N   -0.72147350890323     -1.17019269692220     -0.97981384527244
  O   -1.63671159906332     -0.93777264005646     -1.77181674047030
  O   -0.32966996562835     -2.29238816822767     -0.66681041878681
  H   -0.46433337360416      0.88488504615963     -0.83877479046415
