14
Coordinates from ORCA-job run
  C   -0.22420757804914     -0.03668866751384     -0.33213589632292
  C   -0.13582650704601     -0.00425596816482      1.04793371001669
  Br  1.98536650546765     -0.25108265549426     -1.47765811419923
  Cl  -2.85090113279799      0.40503635077339      2.18689324278240
  H   -1.57969395065354      0.20508605584029      1.47529317358928
  H   -0.45303933934653      0.86341080349519     -0.88569588241374
  H   0.21728334638381      0.96746687380739      1.39489610408464
  C   0.26695557085035     -1.17399309280911      1.90809635311935
  H   1.25465945342291     -1.53133887904812      1.59584088732201
  H   0.30967860338204     -0.86214541565979      2.95423202779165
  H   -0.42890492530301     -2.00724639105146      1.82385051019107
  N   -0.84486953821768     -1.18806704246266     -0.99987733016457
  O   -0.65822315885049     -2.31679320144440     -0.54867895797470
  O   -1.55834734924239     -0.92734877026779     -1.97156982782193
