13
Coordinates from ORCA-job run
  C   -0.31694897131320      0.03691135763766     -0.26856412931334
  C   -0.05004363004630     -0.00062445591808      1.08795377104298
  Cl  1.65874349658825     -0.04667479627462     -1.69658134977459
  Br  -2.85013511443911      0.22099130318813      2.42481937072918
  H   -1.52466404563530      0.15228449428378      1.48041205541698
  H   -0.60137079353074      0.97057663108243     -0.72804053232750
  H   0.26944559555395      0.95698111720330      1.49693331062741
  N   0.41594267166076     -1.11302845224182      1.80388685720573
  H   0.14731017815493     -1.97406056454164      1.34850116307777
  H   0.09443457169052     -1.09125967555079      2.76279723420198
  N   -0.96889849073504     -1.08415916583658     -0.91433648650756
  O   -1.71947084057433     -0.82476109882869     -1.85596310458205
  O   -0.77635462737440     -2.22262669420307     -0.47087815979700
