16
Coordinates from ORCA-job run
  C   -0.14040575255202     -0.03711007451659     -0.25594684097103
  C   -0.13632551936631     -0.17310537754308      1.20284414384867
  Cl  1.53043491921721      0.18296338067915     -1.08566013580024
  H   -2.36000449020528      0.57685806648416      1.97108440859345
  H   -1.34873661937604     -0.04929755722171      1.50120289379119
  H   -0.70271699472218      0.84182448491521     -0.56507412287496
  N   -0.79542612930888     -1.19305107469388     -0.95109345938093
  O   -1.92151128575097     -0.97617618741645     -1.40269410046980
  O   -0.21394500999808     -2.27422510812037     -0.98938594675445
  N   0.34470283127655      1.03772973266281      1.85092256440653
  H   -0.49457298602269      1.58909588777591      2.06236947274893
  H   0.96107266248541      1.57055184441055      1.24870102727397
  C   0.48020189989701     -1.41912054924927      1.79522097309756
  H   0.01161531101812     -2.33684746550568      1.43292672874157
  H   1.55730749794706     -1.48067493980141      1.59395778384538
  H   0.34144966546110     -1.35960506285937      2.87750460990418
