15
Coordinates from ORCA-job run
  C   -0.21638837170130     -0.00741075172428     -0.31059588704716
  C   -0.10889761632530      0.09769367439020      1.07475144700425
  Br  2.04053435054629     -0.25152293624278     -1.33002239653566
  Cl  -2.73629260495421      0.31238173769495      2.29686198512360
  H   -1.50691403862017      0.18738804657056      1.39290304278000
  H   -0.45419318175775      0.89173946737557     -0.85819556603126
  N   -0.83291835560289     -1.17538154979294     -0.91899119758642
  O   -1.45564526187048     -0.98279960817743     -1.96605157871807
  O   -0.73059470397649     -2.27652745642117     -0.36715302249665
  N   0.36496442257206     -0.97525795565751      1.87141093792043
  H   0.20869254811293     -1.86001499301741      1.40532801178792
  H   -0.10600785836245     -0.97426475786351      2.76989142709387
  N   0.30394177091150      1.41209664317563      1.47734810858147
  H   1.32195130139704      1.40262794667256      1.48668262199686
  H   -0.02426240036878      1.59198249301756      2.42034206612682
