14
Coordinates from ORCA-job run
  C   -0.06840180476496     -0.01056827480847     -0.35087111214502
  C   -0.14663669198300     -0.07547939465143      1.09769578575085
  F   1.22841388563775      0.00721526403624     -0.94255541995402
  H   -2.44907030506355      0.19917218002093      2.01695849996056
  H   -1.41857176866350     -0.02457795733483      1.48750979349307
  H   0.27643197960903     -1.00994024112820      1.47646868231613
  N   -0.72376880912255     -1.22423019398958     -0.95610835540076
  O   -1.76002906529532     -1.04720228679140     -1.60029452934059
  O   -0.19398049375891     -2.31631967049805     -0.75944560259951
  C   0.37977337350208      1.16094784182199      1.79432029702726
  H   -0.05798485663194      2.06041839457170      1.34464885828112
  H   0.04093223651291      1.15153631633928      2.83788155867348
  H   1.47089950402202      1.27052735728445      1.77538933583191
  H   -0.59732718400004      0.84328066512738     -0.77899779189448
