11
Coordinates from ORCA-job run
  C   -0.39167012068227      0.02908234182676     -0.27521951285422
  C   -0.20933447419711     -0.05263824012842      1.08771136948028
  Br  1.65932401366857     -0.12656493877861     -1.68375984755413
  Cl  -2.83875945564280      0.41444086708842      2.45084204195742
  H   -1.63363142070192      0.17015831035604      1.67447035412391
  H   -0.64714141835944      0.95142168632782     -0.77571571051669
  H   0.26677517960347      0.79913350381364      1.56302836602096
  H   -0.00087955009298     -1.03129588194533      1.50618313243557
  N   -1.08483329109025     -1.10364613031901     -0.91568034279121
  O   -1.83472251836829     -0.82394691923454     -1.85209986348172
  O   -0.91245694413697     -2.23081459900676     -0.45987998682017
