17
Coordinates from ORCA-job run
  C   -0.20731100437680     -0.02306510391581     -0.24745588207080
  C   -0.08992071267122     -0.07874887510958      1.20981245355858
  Br  1.55235338915934      0.10704854362909     -1.31227775240033
  F   -2.50249988947327      0.66144051807512      1.39552016188632
  H   -1.30315570151370      0.05403698469610      1.43473496184790
  H   -0.76979753087450      0.84741361392473     -0.56985512676217
  N   -0.90678128408400     -1.18533108276614     -0.89322705111891
  O   -1.81319632648652     -0.90590367599700     -1.67602186125872
  O   -0.54167157335999     -2.32587875630341     -0.62025674843783
  C   0.41895209949215      1.26191494289758      1.72209957477802
  H   -0.23047472772888      2.06117682178609      1.35961640096096
  H   0.35684589446831      1.27376434464253      2.81460437535207
  H   1.45880627335349      1.46456889407369      1.42999415707307
  C   0.64972561946144     -1.24736297433529      1.82884758412435
  H   1.69225520300022     -1.29784459051364      1.48216601601094
  H   0.66604540776299     -1.11876931439924      2.91625585037937
  H   0.17996486387093     -2.20498029038481      1.60939288607719
