11
Coordinates from ORCA-job run
  C   -0.29235976367184      0.00237044668142     -0.28750015064962
  C   -0.14760117576572     -0.01585313358037      1.06874929883959
  Br  1.95596892133627      0.06762096357704     -1.67377502458408
  Br  -3.07536683191131      0.22509330729114      2.36807041687167
  H   -1.74954335469079      0.07554069136957      1.58959328435996
  H   -0.55198602563689      0.87664729977900     -0.86287509615324
  H   0.17451378309178      0.89994367406896      1.55169047160542
  H   0.08768271645418     -0.95798328374229      1.54995398066932
  N   -0.77015394459007     -1.22363161843878     -0.93869848319525
  O   -1.47309354308397     -1.06602214918369     -1.93775525599894
  O   -0.49596078153162     -2.30677619782200     -0.42945344176482
