15
Coordinates from ORCA-job run
  C   -0.14114521898097      0.04220012632453     -0.26637809913466
  C   -0.03755226038552     -0.13408453891187      1.21891412299852
  Cl  1.32409132073586      0.60102787618802     -1.10659866557572
  H   -2.30429084105536      0.87625008346381      1.19475754637860
  H   -1.20298635883793      0.02507754726451      1.45395444292624
  N   -0.67588843662565     -1.19520592501824     -0.95133914582486
  O   -0.47566594026213     -1.33851476216720     -2.15439229857136
  O   -1.37751663458248     -1.92443740393687     -0.25626872303758
  C   0.56380504233465     -1.37059368671430      1.65140932544775
  N   1.06546466223497     -2.35362583709640      2.06516521650259
  H   -0.94241225921100      0.79713273490623     -0.39887585714687
  C   0.58176230163396      1.08568756417145      1.88835551531734
  H   0.54846589126744      0.95531746597674      2.97304021868155
  H   1.61377396220988      1.26778892520845      1.58184145757045
  H   -0.04503523047570      1.94718983034116      1.63530494346796
