16
Coordinates from ORCA-job run
  C   -0.26934061327207     -0.00240667040877     -0.24745152586941
  C   -0.10515392478737     -0.03300088886287      1.23978249450796
  Cl  1.13885566149992      0.50927458931651     -1.18954514628760
  H   -2.43668061943789      0.90515901812124      1.31296038510523
  H   -1.22651116643050      0.02123669785971      1.56416274971250
  H   -1.08740017230784      0.72554043815211     -0.39153932622322
  N   -0.83785293832008     -1.29508312797158     -0.79423428739627
  O   -0.59743963774363     -1.60415307107344     -1.95591325001080
  O   -1.60168288423443     -1.88508977576082     -0.04032622997156
  C   0.47369568855113      1.24342076801629      1.80472641138099
  H   -0.21724231769550      2.04568838819516      1.52900336040917
  H   0.48963331254287      1.17009314350575      2.89211313003249
  H   1.47833340157532      1.45477822686575      1.43159679093595
  N   0.61451792919557     -1.20713048056840      1.73476126702942
  O   0.73217146155868     -1.31946550724418      2.96074161169401
  O   1.05336681930582     -2.03496174814245      0.92497156495114
