12
Coordinates from ORCA-job run
  C   -0.29901256948466     -0.04242300821899     -0.29587043096040
  C   -0.14994219699644     -0.17607123155633      1.18600783322085
  Cl  1.08577712994936      0.67469878859536     -1.15486473707003
  H   -2.47148010570279      0.69255462650642      1.22867387921546
  H   -1.31489044474444     -0.00119423790590      1.48435458797957
  H   -1.18131410249222      0.61578071645013     -0.43318596041146
  H   0.31216237369316      0.73848595345209      1.56720588780920
  N   -0.68895989010644     -1.34787258630210     -0.94303987238154
  O   -0.41238893343853     -1.54024453701867     -2.12370933398336
  O   -1.36282030540118     -2.09497117028211     -0.23891402758989
  C   0.55572199962248     -1.33533160320756      1.66642847258804
  N   1.11751704510170     -2.26364171051234      2.12573370158355
