13
Coordinates from ORCA-job run
  C   -0.13305655286554     -0.04453493616730     -0.39797292309802
  C   -0.28079157868178      0.01969571420303      1.05336947749881
  Br  1.79318130274410     -0.13609274808285     -1.12279104306728
  H   -2.45029589157878      0.62729221047026      2.12956371391388
  H   -1.45639534358122      0.06899143292886      1.35438817467610
  H   -0.53757773868145      0.82093448394156     -0.91312737433115
  H   0.12429518728666     -0.87129714855267      1.54284823636966
  N   -0.79546078334006     -1.25440827302066     -0.97167124188675
  O   -1.58863500414328     -1.06615891189984     -1.89593193698028
  O   -0.53676602407105     -2.34658896501650     -0.47402740836682
  N   0.16319842243149      1.30453271653651      1.56067407295664
  H   0.99566129571439      1.19819822089162      2.12488119946489
  H   -0.60787729123346      1.61420620376797      2.16475705285032
