14
Coordinates from ORCA-job run
  C   -0.24469196249643      0.00217247739788     -0.27819813614924
  C   -0.16860624677089     -0.04118379458137      1.16834080076153
  Br  1.54692885072502      0.11110721775807     -1.32820933692754
  F   -2.53734608341496      0.81207860560980      1.27668566548000
  H   -1.39927308782199      0.15977505442302      1.35920985605513
  H   -0.80037705119288      0.85134421483271     -0.66314535495435
  N   -0.89090663007890     -1.21637284354819     -0.87015516516559
  O   -1.67153464321195     -1.02975944601335     -1.80171531107667
  O   -0.60309536576034     -2.31290005479158     -0.39951679704222
  C   0.45063487304382      1.20288412424358      1.77581737276154
  H   -0.15859328577877      2.06760706654509      1.50220035156203
  H   0.42776761532738      1.13174320617143      2.86714972988663
  H   1.48774983929190      1.37513487526503      1.46104044137833
  H   0.24984317813897     -0.98052070331214      1.53144588343042
