16
Coordinates from ORCA-job run
  C   -0.09813989625461     -0.00029917727624     -0.30045777932923
  C   -0.11965971078671      0.11096541123245      1.15030741579853
  Cl  1.60409812157192     -0.32996105437580     -1.09276148171832
  F   -2.44316542643376     -0.50899596362860      1.83927124127586
  H   -1.39213399894797     -0.00743246383275      1.44653197626146
  H   -0.43342074336386      0.89479158626389     -0.81672030824073
  C   0.49711265946733      1.41541528367661      1.61738562687669
  H   0.09430125799119      2.27901347757033      1.07477983552939
  H   0.27728994930048      1.54527478804856      2.67954102811176
  H   1.59040779700495      1.41331884780245      1.49967269212701
  N   0.40966929481014     -1.02376953027777      1.89836338744310
  H   1.07498446279421     -1.54590037066036      1.33756156808749
  H   -0.37999925778010     -1.62961443498243      2.09028588850874
  N   -0.96518688493534     -1.10819521012901     -0.82811193835887
  O   -1.92685975164386     -0.75845103004016     -1.51219303729645
  O   -0.68779787279401     -2.26488015939116     -0.53356611507644
