16
Coordinates from ORCA-job run
  C   -0.33003697011103      0.01046172121345     -0.26396491730290
  C   -0.06373517941570      0.00449609534765      1.10315700208243
  Cl  1.56574711686766     -0.05000538859177     -1.58139764218249
  Cl  -2.63486312963666      0.17906902585954      2.48893372179175
  H   -1.41098677328026      0.09496117828553      1.53939706210538
  H   -0.67654418284768      0.93313207773213     -0.70706312459759
  C   0.46606709171276      1.30544904920238      1.65197326730369
  H   -0.05727156033364      2.16101096182305      1.22036857389182
  H   0.33179601533339      1.33803831260155      2.73659457025952
  H   1.53197247482425      1.37276889706358      1.41545262274934
  N   0.46762414746523     -1.12906644227625      1.77152361817883
  H   0.21740458772302     -1.98088297322822      1.28764802597183
  H   0.11323919702827     -1.15766625409341      2.72108233928481
  N   -1.01816116810499     -1.11604188175427     -0.88061928590429
  O   -1.80191828420139     -0.84888438075748     -1.79421144263049
  O   -0.80970338302322     -2.25787999842746     -0.45656439100165
