13
Coordinates from ORCA-job run
  C   -0.27074479959693      0.02463293117484     -0.25814033610936
  C   -0.20492350860046     -0.16155923591806      1.18713071120566
  Cl  1.33137462697641      0.45165225193102     -1.15707396515523
  H   -2.43854641570528      0.54164274371780      1.92440524276742
  H   -1.42695869017022     -0.08650900203091      1.51422807454621
  H   -0.94059253116810      0.83355328307850     -0.54601511946802
  H   0.26728827876398     -1.10349726294755      1.47050015614566
  N   -0.77994712194969     -1.20419835554263     -0.93921460563320
  O   -1.78168495089079     -1.07281550264184     -1.64520194061939
  O   -0.19450521492244     -2.26440543634793     -0.73335543788939
  N   0.27141138167752      0.98602791321479      1.93023714791325
  H   -0.56265193918874      1.53448789448179      2.16243568335671
  H   0.90471088477474      1.55312777783016      1.38003438893968
