15
Coordinates from ORCA-job run
  C   -0.17785934368290      0.05116413348972     -0.42239451055812
  C   -0.22217423670702     -0.04165283640916      1.04532276973996
  Br  1.65999106950177      0.25898510210918     -1.20923659207074
  H   -2.09603198885444     -0.64422818134971      2.59571407014864
  H   -1.31751611486353     -0.06760190740644      1.48542308425292
  H   0.24647100510458      0.84626773966008      1.47891445261420
  N   -0.92194829405959      1.25664554967350     -0.97529613251495
  O   -1.01715050109816      2.22919837052413     -0.23618840972170
  O   -1.33870537381587      1.17931079677925     -2.12589026973523
  N   0.28264511579631     -1.32781813653642      1.47464426845046
  H   -0.39278834298376     -1.60840859752564      2.20088602702386
  H   1.19976144106726     -1.24107388653548      1.89151490687887
  N   -0.84870603610559     -1.17023459661581     -1.04000988071816
  O   -0.18307883956716     -2.00369168942883     -1.62942142568803
  O   -2.05615955973192     -1.20234186042834     -0.83408235810198
