17
Coordinates from ORCA-job run
  C   -0.00158912018265      0.02937399908026     -0.37665642494193
  C   -0.17556408770348      0.00938025181184      1.07787172862589
  Cl  1.72656382894870      0.02350155435250     -0.99768617540399
  H   -2.04729042167697     -0.40082764191298      2.48997541802548
  H   -1.31986466705623     -0.23478340230930      1.44820482294800
  N   -0.63465747865128     -1.15217068592127     -1.10835147205161
  O   -0.94451991447697     -0.97020532986971     -2.28112228339482
  O   -0.76884555490797     -2.20077259080915     -0.48641428689415
  N   -0.71993283483708      1.25918179069714     -0.93370690726211
  O   -0.07568167494812      2.16285657886248     -1.43577350008210
  O   -1.93566650789741      1.21239049155557     -0.79625451318092
  N   0.01489873349227      1.33928119765324      1.59844580282448
  H   0.95429699380916      1.39350939660907      1.97928487822093
  H   -0.64868886254647      1.41357376810092      2.37379973649062
  N   0.65030853310348     -0.96908862998006      1.77506695808451
  H   0.07237045267793     -1.18061350474827      2.59822131870326
  H   0.65829258285310     -1.83046724317230      1.23745489928845
