15
Coordinates from ORCA-job run
  C   -0.08656071573943     -0.00507516753157     -0.39582244189448
  C   -0.18566168324643      0.01028505958448      1.05578322385867
  F   1.17979151551290     -0.03102983190182     -0.95935782904436
  H   -2.14449468698201      0.26381870848618      2.43614423282096
  H   -1.35934731443642     -0.04837985454537      1.56588419016556
  H   0.32523358213223     -0.86647796302021      1.46818202165949
  N   -0.75185051892465     -1.21566571224744     -1.04670981197354
  O   -0.97281135926267     -1.12965369928285     -2.25371382025301
  O   -0.96212760806727     -2.20190169089293     -0.34889973943000
  N   0.19253983547852      1.30967632228976      1.57242470720751
  H   1.11223694065711      1.29878137606272      1.99122107201959
  H   -0.50471371621154      1.50067836784222      2.30564036144913
  N   -0.78457340956617      1.20181080666017     -1.00097843074877
  O   -0.09842989196081      2.04585152920399     -1.55773049891139
  O   -2.00003096938334      1.21971174929267     -0.85847723692534
