15
Coordinates from ORCA-job run
  C   -0.10474929023222     -0.12004354260788     -0.30318630827634
  C   -0.34329685512648     -0.02335134438292      1.12872510260463
  Br  1.84035797085853     -0.21841217929040     -0.86862760108286
  F   -2.47024977667941      0.36764845737625      2.32168246717026
  H   -1.56095805311276     -0.00123577561780      1.49396943853126
  H   0.09794837592130     -0.88535701752030      1.63809080405321
  N   -0.74549897834267      1.06501327110729     -1.02690391779242
  O   -0.05062970422809      1.90035683334813     -1.58006480278899
  O   -1.96776301821064      1.06716021568527     -0.94623410018314
  N   0.06600113845429      1.29263157262332      1.60194505822555
  H   0.96942814440956      1.26194243061094      2.05781110557064
  H   -0.64960788471062      1.54486053575197      2.27572556449988
  N   -0.68504767147841     -1.37414924475670     -0.93827175072780
  O   -1.03772370557613     -1.30250770618352     -2.11050571151858
  O   -0.71811069194628     -2.37644650614370     -0.23603534828528
