14
Coordinates from ORCA-job run
  C   -0.04842369777181      0.11032489916952     -0.26173910490517
  C   -0.10961723884490      0.17180671953987      1.21553798683539
  F   1.17106280761172     -0.33639421377596     -0.78924874397208
  H   -2.27502401382410     -0.71457017728548      2.02984473891535
  H   -1.28439409801608      0.04859201806639      1.53964691391879
  H   0.28747778840237      1.13056559725277      1.56251172098137
  N   -1.06621883306318     -0.91714213865876     -0.75783107931817
  O   -2.17948750803439     -0.49397813973379     -1.05153838704064
  O   -0.72102933831925     -2.09232321818366     -0.70626052272049
  N   0.44493952773218     -0.97686906871736      1.89345352063759
  H   1.03873703814121     -1.52273863621597      1.28372811285918
  H   -0.36865436728527     -1.54333564423146      2.16199371805947
  C   -0.35163673144461      1.39705538574110     -0.89565836798997
  N   -0.52458133528390      2.45913661703281     -1.36781050626061
