15
Coordinates from ORCA-job run
  C   -0.26418141825443      0.02907335933609     -0.29417238797194
  C   -0.14356317893917     -0.03389200592815      1.16817496417671
  Cl  1.34411958912793     -0.09956986397786     -1.27471144032535
  F   -2.63970317893047     -0.30295203526867      1.13851235391620
  H   -1.40609876571273     -0.11835317835509      1.37165443504372
  H   0.22955986831565      0.93909119705466      1.50156433926574
  C   -0.86262897933683      1.28996237168820     -0.72328734175486
  N   -1.26615675635708      2.34670686024423     -1.04039603768262
  C   0.63282073805922     -1.18489724007812      1.78333242178881
  H   1.58488661581541     -1.38353876008846      1.27550166575538
  H   0.85440090173418     -0.93924297784596      2.82664404943577
  H   0.04730435166496     -2.10337707432682      1.77366718352038
  N   -1.07987469806656     -1.12042956846606     -0.90274210419256
  O   -1.85332525061412     -0.84143724918911     -1.80788641484998
  O   -0.83828983850598     -2.24037383479889     -0.48048568612540
