14
Coordinates from ORCA-job run
  C   -0.12237521028263      0.02064451927071     -0.46741656809867
  C   -0.27106087696862     -0.01127653443326      1.00315115840450
  Cl  1.63593765111704     -0.07503715671292     -1.07803380780161
  H   -2.36626268959234      0.40656283842877      2.27924287815420
  H   -1.42543157809320     -0.03825482640277      1.34798000875600
  H   0.18948870139809     -0.92634160768028      1.38962993452404
  C   -0.68836666483145      1.21411610134929     -1.08070284173466
  N   -1.12944514222359      2.17291800296356     -1.59726555757368
  N   0.15130224632510      1.23493995980406      1.59573805553179
  H   1.00942167468325      1.12099794370973      2.11774405318037
  H   -0.61151758547281      1.47022950737883      2.24580558963209
  N   -0.79560136496942     -1.22214009248521     -1.04534491426506
  O   -1.76070873513128     -1.05685811891341     -1.78576586412187
  O   -0.34970042595814     -2.29989053627711     -0.67303212458744
