14
Coordinates from ORCA-job run
  C   -0.16262836023839      0.08854143299103     -0.29741020366008
  C   -0.24781076819652      0.17732749234411      1.19893325219528
  Cl  1.51473442374867     -0.25910428883383     -0.94892810094448
  H   -2.41587971862862     -0.93641041650351      1.99331489106417
  H   -1.38581332107414      0.05635391137983      1.45944668767244
  H   0.12246296463913      1.16301428824062      1.50047671683619
  N   -1.05546641155017     -1.05604542324328     -0.77529634685465
  O   -2.16216232940420     -0.73446197222032     -1.19325038585634
  O   -0.64211988984960     -2.19162339112472     -0.59432889431430
  N   0.31971017377115     -0.91084621721121      1.94883793244656
  H   0.99362790850163     -1.44031345052901      1.41220781110141
  H   -0.48608857369825     -1.50658536742554      2.17895519166896
  C   -0.60504317097764      1.32347941597726     -0.93168692326541
  N   -0.91351292704305      2.35271398615856     -1.40851162808974
