14
Coordinates from ORCA-job run
  C   -0.10373317196102      0.07023178536211     -0.47421517364348
  C   -0.33152027137312     -0.02038281835735      0.99487256058851
  Br  1.84715715504347      0.05226569255034     -1.02191152322091
  H   -2.42901947804031     -0.76843652842208      2.16908538614182
  H   -1.48438889938361     -0.10212243584497      1.25012488922510
  H   0.02395448488790      0.91126288744459      1.45316071524148
  C   -0.64361291895017      1.29826784889817     -1.04100985417460
  N   -1.05491924124327      2.31513268913374     -1.46508596032359
  N   0.16559364417272     -1.24953105376292      1.55295492296054
  H   -0.61458319398020     -1.57797952358350      2.14041212322086
  H   0.98083639533653     -1.09384643452965      2.12945908140461
  N   -0.78444988043898     -1.11775279587106     -1.16396271582681
  O   -1.98578843043148     -0.95287110097610     -1.35610901189100
  O   -0.13925619363845     -2.12461821204133     -1.39707543970254
