14
Coordinates from ORCA-job run
  C   -0.31217089022915      0.05377115263631     -0.27371269531854
  C   -0.15247829854037     -0.01685761882612      1.11599097102378
  Cl  1.62078488389618      0.21014979606872     -1.39158260471356
  Cl  -2.70470933879596     -0.20266792642314      2.49527409104069
  H   -1.42875762366800     -0.15416407030784      1.53165570701466
  H   0.23262125708406     -0.97272146189575      1.46934415336100
  N   -0.79898194720649     -1.19772080244972     -0.90907848168606
  O   -1.51023241417152     -1.07838301836080     -1.90395054909708
  O   -0.46313898053925     -2.25822808462107     -0.39092233258389
  N   0.35879290403066      1.12484765238614      1.80246224204331
  H   -0.17222615975974      1.27674056669903      2.65291477655604
  H   0.29847754794788      1.95789925233618      1.23010631987848
  C   -0.92108022478935      1.23700595816462     -0.81563354778391
  N   -1.42078071525894      2.24900860459343     -1.15333804973491
