14
Coordinates from ORCA-job run
  C   -0.32075142871212     -0.01364087946301     -0.28539468590292
  C   -0.26266218723233     -0.03295675423324      1.12094576370786
  Br  1.80377909108189     -0.21507867124231     -1.31547668054926
  Cl  -2.86487159514203      0.25119920224388      2.40009252919560
  H   -1.51926880019663      0.04741327328776      1.45413479165321
  H   -0.03146486174121     -1.01624617803313      1.53011035101270
  C   -0.71796128866334      1.21685250995974     -0.91402922362111
  N   -1.04874603714654      2.27132226007235     -1.32305891767265
  N   0.40528946212252      1.04460432431969      1.78052720170911
  H   -0.09613733865356      1.26706960866202      2.63389749520572
  H   0.42251525287749      1.87459938011089      1.19994017812680
  N   -0.96955717382661     -1.21038505787740     -0.89062925097793
  O   -1.59607535752251     -1.03722504559491     -1.93296408805110
  O   -0.83454773724502     -2.27823797221234     -0.30224546383603
