17
Coordinates from ORCA-job run
  C   -0.25852744895890      0.03551468371186     -0.29328210069452
  C   -0.12326196671616      0.06765582570491      1.12138537807012
  Br  1.79346010586511     -0.25182123172108     -1.36954465694194
  Cl  -2.66633393974740     -0.06898744158216      2.55220785896533
  H   -1.34750223880250      0.04989998343517      1.49260266407427
  N   -0.96864350414252     -1.14282655363285     -0.89176417392891
  O   -1.73524343699579     -0.91579920355163     -1.82395977904929
  O   -0.75444535242404     -2.25120643724288     -0.40746942119876
  C   0.37122716194057      1.38334585397114      1.68749224293318
  H   -0.23935563136415      2.22596988888783      1.36289474024753
  H   0.32209396222205      1.32924270066754      2.77714718369815
  H   1.41154827669141      1.53021146102960      1.38044500772631
  N   0.50525467255436     -1.03861238405706      1.77646668743269
  H   0.33273674113014     -1.89815333574425      1.27305336004998
  H   0.09334708420028     -1.12355762460753      2.70086065252878
  C   -0.69623573698305      1.25820120132358     -0.91571408832818
  N   -1.03710874846940      2.28837261340781     -1.37433155558472
