15
Coordinates from ORCA-job run
  C   -0.07312581395648      0.02117730599342     -0.38066625499662
  C   -0.16798459244228     -0.02620681266183      1.08455727548325
  F   1.22449458531195     -0.08661657283578     -0.90638528883535
  H   -2.48719361635984     -0.11517422442987      2.21514973748811
  H   -1.31905192567596     -0.11446966099417      1.46766662644511
  H   0.31551596605478     -0.95202300454744      1.41370857438531
  N   -0.80909258854482     -1.19979612626303     -0.94084399130523
  O   -1.94690212383268     -1.02997174494574     -1.36707216325409
  O   -0.21377679646070     -2.26786087010873     -0.85540821668534
  C   0.36813053565859      1.19819080067861      1.80027721058559
  H   -0.10304042090806      2.10916161812554      1.41985849198348
  H   0.07614861493615      1.11727663326104      2.85270166548460
  H   1.45517222866734      1.31185773988208      1.73341873877283
  C   -0.66187462352887      1.22457501273656     -0.98505262184889
  N   -1.06321942891912      2.22656990610934     -1.44860978370277
