16
Coordinates from ORCA-job run
  C   -0.18791274444586      0.05173889242369     -0.32519325606764
  C   -0.19769759126279     -0.03373463987762      1.14365742594219
  Br  1.68902361956079     -0.09208202542939     -1.19115543437262
  H   -2.79464231207225      0.06141080937191      1.81531783504086
  H   -1.34839904718961      0.00162559702762      1.40628233702393
  H   0.20289098458161      0.91353871268091      1.51942385176486
  N   -0.91284563578799     -1.12564620458403     -0.96217358292336
  O   -1.56129271781074     -0.91728826275913     -1.98456620475131
  O   -0.80540118342298     -2.22548108059816     -0.42474028383769
  C   -0.82885034586331      1.33400706320934     -0.78631475000693
  H   -0.88295768345118      1.39420160349765     -1.87036775614001
  H   -1.83836092572769      1.35856496815629     -0.35239266039620
  H   -0.25132807346716      2.17482092692837     -0.40075210932765
  N   0.51526683664944     -1.12879967050314      1.79412124877131
  H   0.07093610082105     -1.99000456246539      1.50078270395683
  H   0.30648071888868     -1.03347212707896      2.78393063532346
