14
Coordinates from ORCA-job run
  C   -0.21944767930453      0.07949625491119     -0.30214665964376
  C   -0.13298794837668     -0.07045585029863      1.13535620773196
  Cl  1.47296372969693      0.09843797149308     -1.25526882001312
  F   -2.60442063104992      0.30249210563697      1.62149876559388
  H   -1.45237267664592      0.02928634714708      1.47674702723066
  H   0.33532895618276      0.80829858962217      1.58493942275037
  H   0.35856273156575     -0.99206098073493      1.44193693371648
  N   -0.84762294723117     -1.17056911617503     -0.91622199327083
  O   -1.69706784788904     -1.01918320015415     -1.79257152468791
  O   -0.46240981936720     -2.25882818781347     -0.50334941962416
  C   -0.94617999000640      1.31695226758603     -0.76494265116919
  H   -1.02908915425518      1.36422843485718     -1.84834629651237
  H   -1.92739423430869      1.29603087147023     -0.28875172933802
  H   -0.38993248901072      2.18393449245227     -0.40359926276400
