16
Coordinates from ORCA-job run
  C   -0.18890038723424      0.00950539549678     -0.43456334060512
  C   -0.21598610319123     -0.01082378688288      1.02512202402053
  Cl  1.57049877183773     -0.06183951241651     -1.22736032161498
  H   -2.40262051519070      0.49025460628085      2.01116252150408
  H   -1.42718945592648      0.02413848470789      1.37614410517005
  H   0.21968142433483     -0.92545124077303      1.43385228631533
  C   -0.86405534884629      1.20694284097498     -1.03503377384713
  H   -0.88333867882608      1.15936657811707     -2.12262677654203
  H   -1.88316667038521      1.25748647318039     -0.63760668789830
  H   -0.31662824173105      2.08365754089083     -0.69433547696618
  N   0.22728866742582      1.23605543094411      1.61611765311225
  H   1.06513680390147      1.09267110661715      2.16343772535433
  H   -0.53258961038611      1.52028889823575      2.24509066294597
  N   -0.80722259572298     -1.28420503761237     -0.92500128932675
  O   -1.76212381854991     -1.21002531934887     -1.69972800021852
  O   -0.34278424150956     -2.33549245841214     -0.49235131140353
