16
Coordinates from ORCA-job run
  C   -0.42957237394846      0.05754531417911     -0.21209135170137
  C   -0.15748623377415     -0.08528370660109      1.13410883363422
  Cl  1.83637471432734      0.37521589218145     -1.20206026760185
  Br  -2.93103505222118     -0.18453232225879      2.47981915011087
  H   -1.52562155075574     -0.14304183919323      1.58550681466664
  H   0.13016301840975     -1.08436324282371      1.46060181569691
  N   -0.82383494987323     -1.18608029477254     -0.89228442338857
  O   -1.49477710863239     -1.07568437385398     -1.92182872835658
  O   -0.47671595642519     -2.26270650312601     -0.40258912841359
  N   0.38138565545503      1.05542993164743      1.78372670527745
  H   0.61503978119393      0.84521923052682      2.74331207070320
  H   1.21836112152081      1.32608042748156      1.26908893968809
  C   -0.99990447198933      1.30115655760434     -0.79397098895179
  H   -0.82953521516689      1.33952964937633     -1.86537602746750
  H   -2.07939310323080      1.31942816176360     -0.59434029911912
  H   -0.53579827488950      2.16096711786866     -0.31725311477702
