20
Coordinates from ORCA-job run
  C   -0.14037968611285      0.02285069113221     -0.37142973929806
  C   -0.17634634165580     -0.06922067627810      1.10173947600726
  Cl  1.60760060667744      0.03083474918844     -1.12217688789364
  H   -2.61590444407755      0.42135611253452      1.75553634577652
  H   -1.36344270092361      0.00924453587528      1.36986554061323
  C   -0.85460945640433      1.23662134922877     -0.90915516522649
  H   -1.01071934711754      1.15700220563208     -1.98528939521486
  H   -1.81609973124575      1.31063161278849     -0.38526997929609
  H   -0.25746311182748      2.12436836201861     -0.70518902763279
  C   0.35160727886550      1.19514528985881      1.76129738499513
  H   -0.29707840103922      2.04694009434158      1.54252186510093
  H   0.31865546431215      1.05993552432729      2.84644949263969
  H   1.38227077039744      1.42832350680448      1.46744455729243
  C   0.40979193456789     -1.31951031211880      1.72876945922974
  H   1.48359382773664     -1.42106501683869      1.52822213452346
  H   0.26348705246545     -1.25753096711832      2.81210309194397
  H   -0.08235876653181     -2.23092633851015      1.38613607427560
  N   -0.78624652882526     -1.22823206247094     -0.95636625006443
  O   -1.95336317703414     -1.11612897335611     -1.33172792866377
  O   -0.14887524222717     -2.27822968703946     -0.95696104910784
