18
Coordinates from ORCA-job run
  C   -0.21916589354000      0.07843271999816     -0.23451456958215
  C   -0.08877292223737      0.05472872703500      1.27088068042091
  Br  1.53135036272543     -0.30158610506618     -1.18135364951744
  F   -2.58447180631991     -0.00186400786281      1.40214787201264
  H   -1.35426451449925      0.09595048534973      1.53214836469424
  N   -1.09446567049240     -1.11423099775712     -0.67936244135202
  O   -1.91097104078437     -0.90975977486154     -1.56855974208202
  O   -0.89183529295695     -2.20562903781290     -0.16234705962606
  C   -0.80402731479162      1.33983797612886     -0.81579105646350
  H   -0.95550104427026      1.22839797744043     -1.88685033852579
  H   -1.75791854497149      1.49243662106418     -0.30896212132137
  H   -0.14194539122919      2.18080500168322     -0.62458070674479
  N   0.56516529107644     -1.03996652030490      1.90877188552886
  H   1.40076485572842     -1.32141690652445      1.40460890691743
  H   -0.07899775106192     -1.81660934728777      1.91644567461902
  N   0.59011805060207      1.31158432803042      1.69179025407790
  O   1.78114630130817      1.25193462960480      2.01111781638709
  O   -0.07118767428582      2.35545423114286      1.71678023055704
