17
Coordinates from ORCA-job run
  C   -0.18773900936874      0.06993027900546     -0.24346045331356
  C   -0.14746322234439      0.04988231389746      1.21096849076322
  Cl  1.52966299556520     -0.04513974922016     -1.12552279668703
  F   -2.63791427564027      0.44559083833267      1.57570048243188
  H   -1.45854438494595      0.20031352488266      1.48366141153634
  H   0.26176946569882      1.01514511421737      1.53050177876907
  N   -0.87899929860591     -1.17486430356926     -0.78803396435595
  O   -1.88340160661060     -1.01729285073012     -1.48027160824109
  O   -0.40986916101125     -2.26775636296531     -0.48394685784330
  C   -0.84187414301918      1.30940920017961     -0.80535416370012
  H   -0.92631546147307      1.26819376865719     -1.88994106939108
  H   -1.82345551641563      1.38503597806289     -0.33619227610728
  H   -0.22974904231933      2.16780253422042     -0.52331642481880
  C   0.52282783599785     -1.10220543834543      1.93533266973424
  H   -0.08327057486436     -2.00951109761517      1.91008298986273
  H   1.50694430814507     -1.35410179239039      1.51916131302575
  H   0.65743109121175     -0.82847195661989      2.98715047833500
