20
Coordinates from ORCA-job run
  C   -0.09524329156493     -0.00681297525197     -0.31497091829087
  C   -0.04409260059707     -0.08976034911618      1.13975095725228
  Cl  1.63406687242906     -0.01052848085639     -1.19682979178426
  F   -2.41198799590359      0.55457253693833      1.76877392525771
  H   -1.34079960635132      0.09031411172485      1.47241971509487
  N   -0.75430259964219     -1.26093830097897     -0.88511579867482
  O   -1.91318251204254     -1.14285676748165     -1.28346166179874
  O   -0.13231384436902     -2.31879248915325     -0.86444376939910
  C   -0.79931104941606      1.21520953012676     -0.86326641181655
  H   -0.98039520258705      1.11388267260428     -1.93299614402882
  H   -1.73820534747989      1.32113193644379     -0.31815274557543
  H   -0.17026014307011      2.08889364838757     -0.69777479137400
  C   0.51364386578475      1.18682177238085      1.75665165450662
  H   -0.12574002362087      2.04417474315889      1.54291980936926
  H   0.52246694475662      1.07408756288411      2.84490969176762
  H   1.54009688949048      1.40641481411351      1.42527331832444
  C   0.60621204079822     -1.32026696644622      1.74256512514675
  H   1.66709791855223     -1.40797075575467      1.46340092328899
  H   0.54843808066241     -1.24655080434847      2.83361438693589
  H   0.11487160417086     -2.24989543937517      1.45213252579816
