17
Coordinates from ORCA-job run
  C   -0.23468383513086     -0.01797755339797     -0.32970366513442
  C   -0.14798078287864     -0.08187056559095      1.11359949555946
  Br  1.65503829235204     -0.09518787336700     -1.33894803543702
  F   -2.54175882434617      0.61576426994787      1.62051110067054
  H   -1.38706223564793      0.07414628313479      1.40515653025611
  H   0.26007393149779     -1.03315783317043      1.45323663958748
  C   -0.92057488089518      1.19904376757664     -0.89011799674789
  H   -1.06105978991573      1.12620322845114     -1.96561584952545
  H   -1.87448399426496      1.27125560101603     -0.35919773638129
  H   -0.31478246012982      2.07694731913628     -0.66425895553324
  C   0.48318241575451      1.12786691329492      1.77790752562783
  H   -0.17774349078154      1.99194861734368      1.68884562275134
  H   0.59896599781391      0.93221692893682      2.84772370372338
  H   1.46962434988080      1.37669825846865      1.36451094622708
  N   -0.86135553686866     -1.29956086413083     -0.86742286802651
  O   -1.69517435310653     -1.19858200776698     -1.76575811012998
  O   -0.50237480333302     -2.36164448988266     -0.36998834748743
