17
Coordinates from ORCA-job run
  C   -0.05669161946346      0.08989940163420     -0.34725507199414
  C   -0.16891876656041     -0.00027584093411      1.10597505487715
  F   1.26635558300181      0.02070389812340     -0.89388521231660
  H   -2.60857953774700     -0.00129484293534      1.67142520255579
  H   -1.49400878259469     -0.01055337031784      1.38527813864029
  H   0.12515207170178      0.95938403335977      1.54408852533028
  N   -0.71663692778448     -1.14433828461607     -0.95513254279565
  O   -1.85590255355122     -1.02971592855039     -1.40924650934942
  O   -0.08705274780885     -2.20180593445435     -0.90463228101054
  C   -0.70656303332252      1.32736526248531     -0.91306851739894
  H   -0.70197925397927      1.30823577407869     -2.00469474780017
  H   -1.73204806965231      1.39590259486829     -0.54567916972427
  H   -0.13451012078248      2.19118991054848     -0.56825969537633
  C   0.46128573910623     -1.18639510114182      1.80457718371818
  H   1.50375681450115     -1.37704472108154      1.52159457797529
  H   0.42624065611671     -1.01852173352578      2.88687306039017
  H   -0.10330945118099     -2.10409511754092      1.60911200427892
