14
Coordinates from ORCA-job run
  C   -0.19985256076267      0.05658749375337     -0.28240080714512
  C   -0.17566460753845     -0.01844811641505      1.16587340046920
  Cl  1.53793328388616     -0.07826569059560     -1.16943624288646
  H   -2.61249743019305      0.50389163036716      1.78928690614434
  H   -1.36721557279938      0.15184577688803      1.49843959208922
  H   0.33711128739365      0.83992709247013      1.60292277429177
  N   -0.89017250571579     -1.17969143199223     -0.84210809253387
  O   -1.69205798255944     -1.02417800229154     -1.76200057259646
  O   -0.60497815166390     -2.26343086331380     -0.34265966246816
  C   -0.84868270339845      1.30464590387055     -0.79943085377233
  H   -0.92154668139269      1.31757926211514     -1.88445637195378
  H   -1.84568609033748      1.35394928893309     -0.33673079347079
  H   -0.26522328137397      2.16152672252122     -0.45922019039838
  H   0.20133299645545     -0.96051906631046      1.55838091423082
