14
Coordinates from ORCA-job run
  C   -0.20432757853174      0.05295590574060     -0.28996888000490
  C   -0.14504772590411     -0.05388573714442      1.15171396535028
  Br  1.68177392651234      0.00808930994573     -1.28133701022440
  F   -2.63612746777054      0.37115231093087      1.49273295010517
  H   -1.42011039469136      0.06646308497081      1.42941475371900
  H   0.33250198028550      0.82602551600064      1.58732540851784
  H   0.30370973820150     -0.98004622533924      1.50393785595090
  N   -0.82777641157502     -1.20503079327566     -0.88825860770557
  O   -1.59168967330111     -1.06957882623117     -1.84179726164761
  O   -0.52553019977744     -2.28238667757077     -0.38670378519779
  C   -0.89316352805762      1.28892072461551     -0.80709035047089
  H   -0.96198446967743      1.30197575873112     -1.89188634890443
  H   -1.88002423882351      1.28935679242415     -0.33728448813471
  H   -0.33041395688945      2.15901885620182     -0.46404820135289
