17
Coordinates from ORCA-job run
  C   -0.16226596549273      0.01314849216145     -0.32550106702378
  C   -0.10029075856278     -0.07302263748444      1.11524248354668
  Cl  1.57434902650034     -0.05128760122981     -1.24281757427716
  F   -2.49634548881448      0.56816316929160      1.64070765938562
  H   -1.40040339686937      0.09905676958133      1.42561693055640
  H   0.30536428745822     -1.03049297225292      1.44195029475768
  N   -0.80146774571365     -1.25493828764559     -0.88068315187332
  O   -1.69023175432026     -1.13226041494817     -1.72254580919515
  O   -0.39809820949807     -2.32981613915412     -0.44965495745180
  C   -0.83411993683057      1.24088280897418     -0.88287521563290
  H   -0.94208739351418      1.18380517256121     -1.96353645467944
  H   -1.80467401749869      1.31923207335811     -0.38928176603574
  H   -0.22704197204374      2.11056390612335     -0.62977832370728
  C   0.53239251975643      1.12329570281601      1.80279969204553
  H   -0.12039422142728      1.99626832262373      1.72880843386747
  H   0.64463480035976      0.90979945613887      2.86984964305157
  H   1.52221022651104      1.38220217908521      1.40166918266563
