18
Coordinates from ORCA-job run
  C   -0.23756581691657      0.04568303079032     -0.22091507629561
  C   -0.38139755611298     -0.15617642199081      1.20537121364311
  Cl  1.65266020362557      0.27319708963781     -0.76988581539190
  F   -2.76323463598427      0.56402531448812      1.64305511773774
  H   -1.79389180269869      0.05099321222416      1.39987435020444
  N   -0.69640826858308     -1.19289304590013     -0.97510630579033
  O   -1.90614457919989     -1.22191669688027     -1.20581190713480
  O   0.09295150309936     -2.07711555135267     -1.27242628604483
  N   0.08112823829428      0.97622319378764      2.00088861277086
  H   -0.67960907721541      1.63579826886577      2.10597293370258
  H   0.87752257565187      1.43854324486230      1.56673545499723
  N   0.14046567401036     -1.43959189792784      1.62225039427182
  H   -0.14452955214360     -1.57213444730920      2.58506794166682
  H   1.16074803811995     -1.39928215553250      1.62137239340087
  C   -0.91660976136828      1.26908479949947     -0.79190525207378
  H   -1.95820686483451      1.25666367380028     -0.47428032333328
  H   -0.43006862434610      2.15868108187885     -0.39365722873453
  H   -0.84024969339797      1.28486730705871     -1.88025021759642
