19
Coordinates from ORCA-job run
  C   -0.38516630838350      0.01900445583861     -0.31708309281771
  C   -0.18134368817464     -0.02742771405263      1.05953829453095
  Cl  1.88952659602481      0.28865473269842     -1.21068500045908
  Br  -3.01996685297043      0.01686678616919      2.24710032638504
  H   -1.56464962852608     -0.01374185855049      1.40894559048660
  C   -0.94729921509528      1.23193658578333     -0.98017659154145
  H   -0.75889145357529      1.19810023554139     -2.04991197269599
  H   -2.02989313241458      1.26293635911710     -0.80540300665600
  H   -0.48995785635580      2.11954107216971     -0.55506237352752
  N   0.27436909356665      1.23110822430514      1.56544822892711
  H   1.15421689292055      1.44160225612774      1.09427389439897
  H   0.41930805992343      1.17694579638073      2.56447803668621
  C   0.27518592015448     -1.25144981559371      1.81545953683103
  H   1.30827551158986     -1.47507921551990      1.53066725236962
  H   0.22704530967384     -1.02818695095320      2.88572135750344
  H   -0.33889453959210     -2.12822390227317      1.62397091875417
  N   -0.75185071784188     -1.23648280697867     -0.99469376886087
  O   -0.18884136539827     -2.28243427821733     -0.66859848694052
  O   -1.62124262552575     -1.16306996199228     -1.86943914337400
