19
Coordinates from ORCA-job run
  C   -0.26654452859667      0.06845175020888     -0.29365327034550
  C   -0.06191420375322      0.06818495510238      1.09666273621843
  Br  1.89497531370284     -0.21895611540730     -1.46637102041454
  Cl  -2.72636501535713      0.22241221511062      2.28945000187096
  H   -1.37701594121503      0.12206642289959      1.43162577332991
  N   -0.92389584824944     -1.13474896009302     -0.85889538201853
  O   -1.75230034674732     -0.95819841416257     -1.75518207117543
  O   -0.64700662619249     -2.24696733213944     -0.40036468768806
  C   0.42085633703693      1.36649818224583      1.70440836277064
  H   -0.24009136585348      2.20278525424365      1.47839904319755
  H   0.46014246235302      1.25576662041521      2.79027213764146
  H   1.43079371743972      1.56963155968755      1.33132321656259
  N   0.47889545199225     -1.05159410079058      1.78410862288819
  H   0.32600667927589     -1.90628208646107      1.26794307039825
  H   0.05098281524417     -1.12112110336903      2.70120335426342
  C   -0.70825278429224      1.33235310184744     -0.96738007149142
  H   -0.75025792912650      1.18418737454890     -2.04239153325297
  H   -1.70178044906277      1.62988724806361     -0.60938509316316
  H   0.01238226140148      2.12124342804934     -0.76016318959180
