16
Coordinates from ORCA-job run
  C   -0.07128620982473      0.03557662542112     -0.39407256321084
  C   -0.25325906089391      0.00698010916845      1.05660161079345
  F   1.27912318432985     -0.05807583493647     -0.87442124699746
  H   -2.47990539032787      0.41628021898449      1.88749789759702
  H   -1.60224408412996      0.04299255249273      1.38143158453750
  H   0.17392007825064     -0.89904360379724      1.49973794617510
  N   -0.68424257745448     -1.25319738667950     -0.92275243428726
  O   -1.75064605480369     -1.19394343929704     -1.53842856036097
  O   -0.08692311244730     -2.29890746043366     -0.66881943423500
  C   -0.68400805646237      1.23087676175194     -1.06906929748805
  H   -0.57859494145469      1.15795602172475     -2.15327305761678
  H   -1.73777937647673      1.30998694326078     -0.79966095036383
  H   -0.15808911833227      2.10528761552691     -0.68952500399006
  N   0.07678151548330      1.26529273934334      1.69816037553793
  H   0.89170766576029      1.17293291163081      2.28979777402560
  H   -0.72984446121607      1.49863522583860      2.29376535988365
