16
Coordinates from ORCA-job run
  C   -0.38675462158662      0.00541356556575     -0.22932098394072
  C   -0.11797928058830     -0.03220364717862      1.14160381326415
  Br  1.85956080998855     -0.33931710660679     -1.41745633287273
  Br  -2.93447202948420      0.58751674419671      2.28907552833295
  H   -1.46627836272779      0.18224490216307      1.54418354213099
  H   0.26083355418557      0.92192505443746      1.50477568825649
  N   -1.02475964833483     -1.17746169519504     -0.83992951937911
  O   -1.61555190826603     -1.02024536650101     -1.90872358945632
  O   -0.95592667592989     -2.26004682167222     -0.24802489131777
  C   -0.83611597984087      1.29135000928382     -0.84058980995751
  H   -0.72026413801351      1.25523706794493     -1.91986806037228
  H   -1.88947880838387      1.47417771626588     -0.59494221413405
  H   -0.22664517431236      2.10473938434926     -0.44543952119522
  N   0.35131737414644     -1.12552106906413      1.90605625418150
  H   1.34394486435196     -1.00309089326962      2.07109621380495
  H   0.20131002479576     -1.98613784471939      1.40058388265467
