19
Coordinates from ORCA-job run
  C   -0.14882161627119      0.01780535981286     -0.29177139915315
  C   -0.18881312048353      0.04799154833082      1.19272094941435
  Cl  1.58372038070232     -0.24046690398293     -1.00508944539708
  H   -2.69602343019915      0.40794090694159      1.71602152454466
  H   -1.37463921475054      0.14961391113740      1.43099637542805
  N   -0.92715442702697     -1.19762921966009     -0.77106031968558
  O   -2.02849973439971     -0.98769113754318     -1.27908375096493
  O   -0.45919258513057     -2.31385757707763     -0.55341112233069
  C   0.39999259366312      1.32471181233495      1.76608943497281
  H   -0.22819046081682      2.18920177516466      1.53299792010151
  H   0.41237116848208      1.20646145715655      2.85062712088001
  H   1.42551361514257      1.51325308288130      1.42317572066942
  N   0.30727978903450     -1.12498778934473      1.89074740481049
  H   1.07396847372152     -1.54449171735522      1.37556173712367
  H   -0.43484607303951     -1.81521488869880      1.92874487150608
  C   -0.72533190572504      1.25478095322722     -0.92617043243071
  H   -1.69592228562853      1.44359128973898     -0.45262552558136
  H   -0.05514771880188      2.09437201382285     -0.74699179430869
  H   -0.85436344847268      1.12393512311339     -2.00062926959885
