14
Coordinates from ORCA-job run
  C   -0.19083874314948      0.09381314241952     -0.36601475166828
  C   -0.16492670619462     -0.02357564508072      1.13079165477555
  Br  1.65947099336132      0.07304494672344     -1.20099802168380
  H   -2.68940272563327      0.52382725716966      1.09130805004442
  H   -1.35362332950531      0.09592441896855      1.32870451600781
  H   0.22594077318435     -0.97266426800326      1.49395906633539
  N   -0.92338603333157      1.18383566748724     -0.86498482489244
  H   -0.44538522901462      2.03702260443279     -0.59321791084282
  H   -1.82241874126265      1.13989348268879     -0.32364212979288
  C   0.48570551015294      1.10513827691320      1.74609005660350
  N   0.98797179533132      2.03726444578587      2.26014520627847
  N   -0.82926612846357     -1.20842284599920     -0.90247628786970
  O   -1.64095820182610     -1.11728910932314     -1.81095573929966
  O   -0.46064323364874     -2.25364237418274     -0.37415888399557
