17
Coordinates from ORCA-job run
  C   -0.14601135467162      0.07978286380240     -0.35651716707689
  C   -0.12658183536797     -0.03604900158205      1.14331826083132
  Br  1.68542727821786      0.21750664629552     -1.17721563842330
  F   -2.58323235717047      0.54262353949309      1.27609386370241
  H   -1.42082115187309      0.14730592518038      1.35061685670910
  N   -0.91974073319686      1.15824031094175     -0.88028382380703
  H   -0.40484098892104      2.01531514240748     -0.71564979023356
  H   -1.76924608537203      1.17238947420322     -0.30149216126896
  C   0.45357276465120      1.16365442478662      1.68964024273775
  N   0.89928386250143      2.14738937164547      2.16244983591655
  C   0.46374019366619     -1.29423805252672      1.76404539575877
  H   1.48310356610174     -1.49486842092631      1.41472190879283
  H   0.48585202200451     -1.17722376932455      2.85072037696955
  H   -0.15064386487371     -2.16705644209728      1.53773363765178
  N   -0.74341270370556     -1.23180896207272     -0.90535186822859
  O   -1.93324407909792     -1.19976186775661     -1.19403894072462
  O   -0.02738453289267     -2.22825118246971     -0.94523098930713
