16
Coordinates from ORCA-job run
  C   -0.00825832618439      0.14104644722680     -0.24667743779542
  C   0.02969330438384      0.05982230471518      1.20694941155326
  F   1.21378400236786     -0.02336594625950     -0.97946514821423
  H   -2.34177316159249      0.73262000176270      1.57952472468106
  H   -1.33973911274556      0.35379031739555      1.49843575434010
  H   0.47810810104125      0.98600326981324      1.57703036497929
  N   -0.78661233659598     -1.09857046675864     -0.80344309357153
  O   -1.86624904825176     -0.90038711902891     -1.36564070570372
  O   -0.28618367236829     -2.21063969613578     -0.64119741252277
  N   -0.59903290092739      1.34429139686981     -0.67273404119966
  H   -1.44449768518987      1.47609671761330     -0.11115642988136
  H   -0.86649821139682      1.27660269549187     -1.64673506075177
  C   0.58189076519998     -1.17869953208688      1.87889470690323
  H   -0.11448739333168     -2.02149322529832      1.82136122011248
  H   1.53727180461065     -1.52885389612504      1.46534210239750
  H   0.73794387098066     -0.96377326919534      2.94228104467353
