16
Coordinates from ORCA-job run
  C   -0.53886534371504      0.11728673075174     -0.12624694338948
  C   -0.24722202466251     -0.01236500375393      1.21655537122993
  Cl  1.90122934347828      0.10322726128599     -1.29385751201145
  Cl  -2.83146366864376     -0.19423385069941      2.60321386077125
  H   -1.57140632065194     -0.12241806196567      1.77316058393285
  H   -0.01184577086773      0.96093570225939      1.64954917524651
  N   -0.93732162810890     -1.06963721697419     -0.92237936435099
  O   -1.40596439501768     -0.86164747893987     -2.04171666067366
  O   -0.81522682735497     -2.17717458033796     -0.40707952248580
  N   -0.91384748007256      1.27885757948570     -0.72001622465237
  H   -0.26793075305112      2.02327762765130     -0.50162827354212
  H   -1.01952226987747      1.16057394965030     -1.71864453776145
  C   0.49367324492967     -1.17730865038800      1.82876945885978
  H   1.36075926429434     -1.41487502844946      1.20627315872800
  H   0.83218895634142     -0.89381544628928      2.82788506477022
  H   -0.13092432701998     -2.06423353328669      1.91677236532879
