16
Coordinates from ORCA-job run
  C   -0.20643739969868      0.03099906040415     -0.31339058802857
  C   -0.18091148445916     -0.10836465659149      1.12447566224845
  Cl  1.54102606486127      0.23409168183305     -1.16244237811555
  F   -2.60793979538665      0.58147405464902      1.47585059208554
  H   -1.58465318753464      0.11796962234369      1.39662230661938
  H   0.16579603408337      0.84728830189014      1.53525165838356
  N   -0.96146752907751      1.12196868378080     -0.85523601639567
  H   -0.39606410571992      1.95578932052284     -0.76640616003875
  H   -1.78090314369219      1.21197514295578     -0.25479016176760
  C   0.53572989200568     -1.29076257901131      1.74340919043611
  H   1.56730292225940     -1.39973752489894      1.38138359393307
  H   0.56797917035300     -1.16630695275199      2.83089700596348
  H   0.02451650241589     -2.23525201993211      1.54176941515677
  N   -0.72991869182547     -1.27056861731107     -0.94398912833931
  O   -1.89886773285946     -1.26182289020028     -1.31740105599339
  O   0.00261248427508     -2.25622062768229     -0.95031393614751
