18
Coordinates from ORCA-job run
  C   -0.37897267229994     -0.03147495921527     -0.28785056446708
  C   -0.26335166695566     -0.02129806311060      1.19647932261169
  Br  1.69246456427623     -0.41545879228834     -1.17760729248387
  H   -2.15529789939196      0.58381201896446      2.84917320206216
  H   -1.32939750139031     -0.11291787901716      1.62686549557515
  N   -1.04802318399692     -1.22633120750792     -0.92966485620565
  O   -1.42434059886137     -1.08833293299751     -2.09090712861949
  O   -1.20106948677577     -2.23755570349161     -0.25402041835833
  N   -0.89569766878345      1.10299341730340     -0.80544043655369
  H   -0.56518956696667      1.89949937723667     -0.26662002402011
  H   -0.93539648580627      1.16345076192526     -1.80975759681200
  N   0.07128156971974      1.33993655029113      1.60093021279547
  H   1.00579607634803      1.36401858417935      1.99170913422487
  H   -0.62366611217884      1.52490088551063      2.34779851934817
  C   0.59184260546371     -1.07906901335038      1.86214420553446
  H   0.40689256480053     -2.07714579551476      1.46909477806237
  H   1.65438560847094     -0.84935107119567      1.73673111610182
  H   0.33897985432799     -1.06352617772168      2.92674233120402
