17
Coordinates from ORCA-job run
  C   -0.12787655051219      0.04139846436008     -0.38268391036983
  C   -0.09245506235387     -0.09627276439608      1.10676512598673
  Br  1.73437362311527      0.25413481147373     -1.18671244885774
  H   -2.48229692215717      0.64537974338196      1.30801117398436
  H   -1.28880110466225     -0.03030786873031      1.33563696455295
  N   -0.96458222282051      1.08435167767659     -0.84052900491606
  H   -0.47367190966811      1.96771505904611     -0.80017477552607
  H   -1.75578409341830      1.10978100784763     -0.14652638130359
  C   0.40651655483850      1.16710432783536      1.79856044057751
  H   -0.33133446809706      1.95958286430104      1.64577007657729
  H   0.46809345537163      0.98494084584780      2.87419343610072
  H   1.38851846014032      1.48346621692707      1.43661228205783
  C   0.56656962008818     -1.27360507352492      1.61454887257009
  N   1.13094418215526     -2.19119939521309      2.09145785051530
  N   -0.67681996821521     -1.25347430836975     -1.04256071491196
  O   -0.64545933333202     -1.31867892831965     -2.26257469108287
  O   -1.17579426047246     -2.08977668014356     -0.29349429595464
