16
Coordinates from ORCA-job run
  C   -0.21842190096547      0.10040154803745     -0.21589888038285
  C   -0.21967051914503     -0.01038516195104      1.20531166476716
  Br  1.83901793825026      0.03034363704256     -1.17278555252710
  F   -2.57771874778394      0.90294317352116      1.35004369325313
  H   -1.53480627221428      0.28819776689911      1.37205755559843
  H   0.06101793196062     -1.00407576680061      1.54451433185617
  N   -0.71773092522024     -1.20289092293544     -0.89235849463030
  O   -1.38329343712915     -1.07172123939668     -1.91826754536663
  O   -0.43506571705761     -2.27642994226226     -0.37567360898395
  N   -0.77865289127113      1.25070193678111     -0.74413518282230
  H   -0.94112778021506      1.16986509781062     -1.73696937525754
  H   -1.63264190185782      1.43501600924776     -0.21090704559291
  C   0.45725858588446      1.12891776955779      1.94173763950461
  H   -0.05772151978753      2.07079230568056      1.74895901094145
  H   0.42304265750160      0.94896175822255      3.02050291386218
  H   1.50513449905029      1.23643203054538      1.63464887578041
