17
Coordinates from ORCA-job run
  C   0.08959587231351     -0.00699475120100     -0.42469624084376
  C   -0.18231476158804      0.00034706459405      1.06548265682837
  Cl  1.86080739598181     -0.11641386375186     -0.82816640396318
  H   -2.35257122712217      1.29670377446121      0.85680925919484
  H   -1.34110998781717      0.34107032372635      1.07963024577093
  N   -0.57069275547394     -1.28909460712570     -0.98710078326156
  O   -1.74176428866895     -1.16345320079157     -1.32304200940009
  O   0.07176784402729     -2.33355700410009     -0.98845468255862
  C   0.46356022083893      1.18269004196561      1.77593050219639
  H   0.25112126596328      1.11420763547656      2.84559010155909
  H   1.54537510863879      1.22688977138906      1.62865099237486
  H   -0.01401390676323      2.09710616970715      1.41282263244577
  C   0.07259628590441     -1.24627146400706      1.74338272769828
  N   0.25144697894238     -2.23032979957383      2.36701895069341
  N   -0.48004026887041      1.09615133166398     -1.11098317134019
  H   -1.35031508255116      1.33872934034632     -0.59051506780889
  H   0.15358130624467      1.88229923722082     -1.05025970958563
