16
Coordinates from ORCA-job run
  C   -0.24154411010076      0.02850356129106     -0.30385746411395
  C   -0.19072451579018     -0.11316112940631      1.13220862434986
  Br  1.68133685091854      0.26340717858101     -1.24501826985860
  F   -2.60077933224708      0.59980492059842      1.45383985694983
  H   -1.51559139845114      0.08834458834593      1.38219014576144
  H   0.15692912555331      0.84219055215534      1.54061141189117
  N   -0.99218544156205      1.12252719848582     -0.83039643302484
  H   -0.42369902764282      1.95485674132931     -0.74815780534613
  H   -1.80402080686959      1.20736345998934     -0.21199405306897
  C   0.50855909973561     -1.29667351522637      1.76469492207299
  H   1.54214435179952     -1.40347176107652      1.41036400223017
  H   0.52966979532820     -1.16521804441665      2.85133991128414
  H   -0.00326722765931     -2.23875821481979      1.55865346212541
  N   -0.75545255198039     -1.27150494437868     -0.94108780490735
  O   -1.90381597009074     -1.25043077463890     -1.37300812364050
  O   -0.03698884094112     -2.26671981681300     -0.89901238270468
