13
Coordinates from ORCA-job run
  C   -0.60083804359567      0.15817842019888     -0.10650401275268
  C   -0.29707835576343     -0.01373963328350      1.22172144158741
  Cl  1.77783113748763      0.44791250083926     -1.52047535448654
  Cl  -2.85058145702683     -0.14022845614586      2.68992393407730
  H   -1.59815407922044     -0.10554928623408      1.84449996237229
  H   0.07050892541830      0.86204607158017      1.74696399728548
  N   -0.90601279127810     -1.06578319932454     -0.90229401326584
  O   -1.44704221940795     -0.89882294278258     -1.99309770226120
  O   -0.62832817311531     -2.15128867632414     -0.40502380950539
  N   -1.05392085674519      1.28121018517471     -0.69543334974252
  H   -0.57601788737198      2.10407799198706     -0.35921096242471
  H   -1.02303188390329      1.21318497795014     -1.70374885662831
  H   0.13324568452227     -0.96708795363552      1.49375872574471
