15
Coordinates from ORCA-job run
  C   -0.19328563601515      0.11307067006626     -0.37704270373618
  C   -0.10348499510366     -0.03167116605930      1.11763965326590
  Cl  1.43688704164348      0.19605439817378     -1.18136785999213
  F   -2.56834532006933      0.40229185475880      1.29121340887489
  H   -1.37891981259114      0.11807508516324      1.40085354499861
  H   0.33542189312566     -0.97136528664820      1.43578080102864
  N   -0.79115316912107     -1.23582211028487     -0.85355631309150
  O   -1.82492920093354     -1.20454429771854     -1.50525686906022
  O   -0.18316743564075     -2.25082612109783     -0.52653354022756
  N   -1.00440804561256      1.15510174990145     -0.89756430366300
  H   -0.54876792815591      2.01425667869772     -0.60956689256171
  H   -1.87000081617988      1.08702514910552     -0.35078169415360
  N   0.61796016998658      1.03722654380372      1.76635104026260
  O   1.16963961414335      0.77842392238037      2.84260524095725
  O   0.61266364052393      2.17399292975791      1.27136648709800
