15
Coordinates from ORCA-job run
  C   -0.24513178737204     -0.00132523536664     -0.20958001079012
  C   -0.24122739323979     -0.03341276227584      1.24437083873039
  Cl  1.51932483544466     -0.11429057070321     -1.03024129624007
  F   -2.64205169447542      0.80540170706643      1.44112401723190
  H   -1.64743567107918      0.29619571890977      1.45948713870311
  H   0.16516292758220      0.92362382493411      1.59387201492323
  N   -0.93464233771294     -1.25774770262849     -0.75453573319470
  O   -2.04580402202195     -1.10945442151860     -1.25351923982816
  O   -0.38726676179881     -2.34330154132991     -0.57169658759532
  N   -0.84415827410073      1.14139907691619     -0.82491965531930
  H   -0.20633157841821      1.91619327805763     -0.69239136045238
  H   -1.69309321688583      1.32283192121670     -0.28860921996918
  N   0.36910216562667     -1.14787778059088      1.94543418009145
  H   1.22487875305035     -1.41969503960563      1.46637714533240
  H   -0.24304594459900     -1.95171047308166      1.89699776837672
