14
Coordinates from ORCA-job run
  C   -0.16490603403611      0.07869507081322     -0.35225111732206
  C   -0.07029480222949     -0.02198799386623      1.13425740329767
  Br  1.62934222261881      0.02111388142003     -1.28667906603585
  F   -2.56319227209039      0.31761899165665      1.16200377092738
  H   -1.38755893862164      0.08524065188597      1.34992240839133
  H   0.35605480974198     -0.96392255069087      1.47436749470864
  N   -0.86802703819161      1.19715911886306     -0.87436658566256
  H   -0.34209290283760      2.03043596291612     -0.63488763084961
  H   -1.74885168025263      1.20011349731825     -0.34868547785044
  C   0.58152150867609      1.11991612728367      1.70564500424154
  N   1.08318744182490      2.07354351664566      2.18365094536393
  N   -0.85663426111673     -1.20723610687526     -0.85006116727598
  O   -1.74446584402009     -1.10002212724394     -1.68299566014525
  O   -0.45456220946550     -2.26134804012633     -0.36746032178873
