16
Coordinates from ORCA-job run
  C   -0.56710178835457      0.09353447124262     -0.13375549656541
  C   -0.22600238864787     -0.06894880735931      1.23273194887772
  Br  1.89140189153100      0.23951330122147     -1.55593323377305
  H   -2.33054869487856      0.94206426106583      1.56092807260816
  H   -1.39800946439681      0.21393990882424      1.66411361610657
  H   0.07527673965728     -1.07938608525036      1.49250144627725
  N   -1.24812102293423      1.19202551797249     -0.44487849525644
  H   -1.70733348670920      1.11596759499579     -1.34720957196398
  H   -1.94654607584072      1.36346202507452      0.42989643216913
  C   0.61605362231700      1.03537614191749      1.84098437248854
  H   1.56663790832140      1.08147783869730      1.30361695209877
  H   0.11544824767511      2.00067969347202      1.74347597099656
  H   0.79371455855072      0.84400357595773      2.90327842179033
  N   -0.90201576277046     -1.14462447380197     -0.90933700258733
  O   -1.60602796518636     -0.99806918751732     -1.91065030766304
  O   -0.48907631833373     -2.22320577651255     -0.49495312560378
