15
Coordinates from ORCA-job run
  C   -0.32070170467598     -0.01651292339896     -0.22925354320592
  C   -0.20559973910725     -0.02477042770053      1.22025493987208
  Br  1.57377931369083     -0.15336932717333     -1.24297132312774
  F   -2.60799737052374      0.74981820059962      1.46690253340271
  H   -1.53044752524912      0.24059221061627      1.47494342196260
  H   0.20309519254988      0.94473252461689      1.52680390668939
  N   -0.95159417054072      1.11498430734805     -0.81735688566317
  H   -0.32772793344493      1.90232210606871     -0.68827133361836
  H   -1.78975387896267      1.26625754823427     -0.24778968493893
  N   0.44461705321399     -1.11126291450062      1.92159013179174
  H   1.30562465941242     -1.34536170111842      1.43013666725541
  H   -0.13607289243423     -1.93770319342927      1.86410005865563
  N   -1.02714312758203     -1.28178769828450     -0.72308368957271
  O   -2.11488405167536     -1.13842269529229     -1.27142852503657
  O   -0.50810382467107     -2.36657601658588     -0.46666667446615
