17
Coordinates from ORCA-job run
  C   -0.13744460154799      0.04745644977814     -0.36204305652788
  C   -0.02830542780228     -0.06321652580072      1.13729281017864
  F   1.06734373642908      0.35073087863498     -0.96266785395471
  H   -2.30652599423356      0.75286001775389      1.65454843547490
  H   -1.21861744357161      0.08583050731645      1.49770395415781
  N   -1.11435767790016      0.97582114118407     -0.81394123370743
  H   -0.65787950661452      1.86709417370744     -0.95605175544714
  H   -1.81453517147731      1.07258279943489     -0.05942780161255
  C   0.58761978998038      1.19331780111156      1.73943078803484
  H   -0.14019482205966      2.00617148485380      1.63895971603344
  H   0.75067188714852      1.04113776058806      2.80927070472558
  H   1.53570955656476      1.47464757396983      1.27343143255722
  C   0.59580032177677     -1.27341677579507      1.59479980273380
  N   1.07609434001243     -2.26138284343542      2.02578235280298
  N   -0.53361061029373     -1.33020518688866     -0.92262008647427
  O   0.26442743975128     -1.92972809346407     -1.63503982662533
  O   -1.64841581616239     -1.71965116294918     -0.59935838234990
