10
Coordinates from ORCA-job run
  C   -0.20103785984292     -0.06675568757795     -0.35542202132697
  C   -0.26835967830576     -0.06459673243698      1.10813247526310
  Cl  1.53452889161993      0.15044109931566     -1.15068862312201
  H   -2.67989972005048      0.46375651871347      1.77670081392523
  H   -1.48082561831634      0.12257425359974      1.42144301509193
  H   -0.72956814953003      0.78892389463975     -0.78205500579192
  H   0.21747419662889      0.81676824520496      1.53250780364531
  H   0.11203753448389     -0.98185618638514      1.56175153746588
  C   -0.72158859024922     -1.29299278459003     -0.94936500333961
  N   -1.14325100643795     -2.28763262048348     -1.41151499181095
