14
Coordinates from ORCA-job run
  C   -0.30352157704704     -0.04790908850508     -0.26556878251214
  C   -0.10071309969818     -0.14580823458554      1.12370207747638
  Br  1.81250498842241      0.55656164514197     -1.45021459844767
  Br  -2.93643777259952      0.17638592887200      2.28644551996450
  H   -1.45059761399198     -0.10350282788314      1.40142330895872
  H   -0.78925435659005      0.85162777924918     -0.63160431484532
  C   -0.60791361518675     -1.25280215236108     -0.97432639877876
  N   -0.88569122461040     -2.26934719249609     -1.50307080124897
  N   0.43551375259391      0.98564551875404      1.78173862278163
  H   -0.07307424229878      1.16845753498014      2.63922185673548
  H   0.44235486687396      1.79933386885372      1.18157403524960
  N   0.32652319229363     -1.34723546384844      1.75700157709644
  H   1.34065652836349     -1.38482935269324      1.70550619442973
  H   -0.07068982652471     -2.16150796347846      1.30484170314038
