15
Coordinates from ORCA-job run
  C   -0.06955124936912     -0.01935834820071     -0.42065032499262
  C   -0.18048197309011      0.05927497311675      1.05370732016085
  Br  1.86051777481863     -0.06319079536227     -1.14810138066159
  H   -2.23198406802946     -0.22266632280271      2.57830292705081
  H   -1.30829118631745      0.08797198202746      1.34005546185606
  H   -0.45290568647865      0.88465608723949     -0.89615145598840
  C   -0.70880079634715     -1.19221224921346     -1.00141774432917
  N   -1.23683832122694     -2.13567401730159     -1.46376825485692
  C   0.40797552259794      1.33139891096521      1.62659174549782
  H   0.06137311475999      2.21758525747447      1.08204882602582
  H   0.05947875852683      1.41297463387689      2.66019616940927
  H   1.50041330096919      1.29390110098499      1.61295171000248
  N   0.35127594422496     -1.09801295494003      1.76713101417208
  H   0.21476017050838     -1.92738224472079      1.19386314760341
  H   -0.33054130554702     -1.19847601314369      2.53346083905008
