12
Coordinates from ORCA-job run
  C   -0.43693076026191     -0.04076923356708     -0.22051440975838
  C   0.30035076217818     -0.06656236100285      0.93001038576993
  F   1.76789137894729      0.00309213574615     -0.74776969314371
  F   -2.90068971981011      0.33326474671445      1.59711773960767
  H   -2.07119174630262      0.07227359206453      1.27937793209851
  H   -0.67905136937799      0.91209859095181     -0.67380607466676
  C   -0.83170883941298     -1.23398649632633     -0.87778905009111
  N   -1.21643443450287     -2.20651956571701     -1.42224141403935
  C   0.72817068365127      1.15847018442559      1.52493173018465
  N   1.03132796682825      2.16499901644634      2.05423109799468
  C   0.73521157899084     -1.28700814174269      1.52769546196156
  N   1.05532449907263     -2.28464246799293      2.06484629408232
