13
Coordinates from ORCA-job run
  C   -0.14006053907114     -0.03802553946437     -0.39556282470822
  C   -0.04686524491684      0.02724471191165      1.00983215416121
  Br  1.90052116567581      0.40594998737366     -1.42253859519825
  Cl  -2.88560120038779      0.20184738175118      1.96303890351504
  H   -1.57494248116931     -0.00926801559879      1.40154165878120
  H   -0.62671276342350      0.82227235376132     -0.84648156385886
  C   -0.47131693013891     -1.30708329680162     -0.99095940323760
  N   -0.78406088361463     -2.33599626850771     -1.46968476324699
  N   0.25764842675928      1.34285643055075      1.50717485915879
  H   1.24854900418012      1.52993075502481      1.36860541815937
  H   0.04051787180214      1.40653033837348      2.49423330599363
  C   0.51529347130618     -1.10029072887414      1.70546582451764
  N   0.94378010299861     -1.98151810950023      2.36137502596301
