13
Coordinates from ORCA-job run
  C   -0.13996732326106     -0.00269064666801     -0.34174822023622
  C   -0.09518103814107     -0.03167082448339      1.12214403634425
  F   1.13479823586441      0.15954268391291     -1.03911492143280
  F   -2.60920742975311      0.35602471739004      1.38972355045399
  H   -1.52755857551900      0.10719227074057      1.37388283952649
  H   -0.74381693390850      0.83764745883514     -0.69484463154758
  H   0.29445043161047      0.93498709963226      1.46957146017789
  C   -0.69261383080254     -1.24841031384335     -0.91201600838728
  N   -1.10754185143695     -2.24177840776229     -1.38138661877355
  C   0.67251958034556     -1.20428329476689      1.71055100293561
  H   1.72615301006318     -1.25980301998996      1.39439570112266
  H   0.66406245138295     -1.15498099343453      2.80504266094349
  H   0.20431327355567     -2.15680672956249      1.43633914887306
