11
Coordinates from ORCA-job run
  C   -0.36112640522905     -0.10110265933726     -0.37370529590661
  C   -0.08402835343950     -0.12512362541286      1.12648768926476
  F   0.54570117960068      0.75068415594966     -1.01192104757700
  H   -2.31922945161327      1.26439280905719      1.07445213197219
  H   -1.00496253031002      0.46178685024491      1.50654399649774
  H   -1.36881991360636      0.35736531098862     -0.46526686064073
  H   0.81241503197654      0.46725136505042      1.32322578026035
  C   0.03541884723406     -1.43088876832191      1.73745263207789
  N   0.14473227897567     -2.47625281050527      2.26612642754540
  C   -0.29619972962989     -1.40061623949987     -1.04969883974848
  N   -0.28492095395886     -2.42548638821367     -1.62386661374552
