16
Coordinates from ORCA-job run
  C   -0.20917463527730     -0.04192311137399     -0.33324756740180
  C   0.05079252400369     -0.00108415659866      1.02112986627786
  Cl  1.99651939230341      0.22905269376401     -1.55128794159349
  Br  -2.71496101968375      0.08697485012400      2.45883741121623
  H   -1.41084033311122      0.01413113670189      1.52840544032587
  H   -0.49438727699484      0.86640247666772     -0.85167319251882
  C   -0.57239562590059     -1.26877047472991     -0.97415740187907
  N   -0.93783116368272     -2.28107034291880     -1.45350106456826
  C   0.51076007773906      1.31572687284174      1.58647198194712
  H   -0.01145652835378      2.15394176187278      1.11899886753522
  H   0.34270346953599      1.36137726481288      2.66587789618534
  H   1.58083026686131      1.42540677323901      1.37655466399789
  C   0.56401087474801     -1.23363279195061      1.71524325921276
  H   0.06997084598936     -2.13890980199359      1.35665439252487
  H   1.63761247455065     -1.32672623692866      1.51254153465105
  H   0.40980665727271     -1.16042691352982      2.79524185408723
