14
Coordinates from ORCA-job run
  C   -0.26806307948103     -0.02830962454753     -0.28831751363085
  C   -0.27875343856601      0.10649388884164      1.10289719199949
  Cl  1.95957945857399     -0.10304128025360     -0.94613494373929
  Cl  -3.07926872916670      0.34394402549112      1.93374762847362
  H   -1.64889600700186      0.23190168224984      1.30592910266597
  H   -0.47777796554359      0.86134466668958     -0.87279093088268
  C   -0.68645865888698     -1.27979858319856     -0.84802456951642
  N   -1.07230919646722     -2.30805750962302     -1.27368124941528
  N   0.23303119954244      1.36247769398409      1.54660218458712
  H   1.20858580835738      1.42052463967274      1.25997199785444
  H   0.17905971770330      1.38513556141719      2.55705553196055
  N   0.02856336051886     -1.02883522764659      1.94012113348354
  H   0.91773780947712     -1.41626199160647      1.62742699099789
  H   -0.68321027905969     -1.74374794147041      1.83933744516190
