12
Coordinates from ORCA-job run
  C   -0.21076975962135     -0.05320949212741     -0.51115385469822
  C   -0.17067788919353     -0.01753274932723      0.95263578845932
  Cl  1.51507931791653      0.00925634833590     -1.37463924562132
  H   -2.15497017442130     -0.17725823192779      2.41838829331299
  H   -1.30545222370815      0.02850612236691      1.46952033399499
  H   0.29779424488653      0.91699592747724      1.29170700981531
  C   -0.84959220876264     -1.24776758354326     -1.04952873239800
  N   -1.39554367821938     -2.18208106704617     -1.50674581306510
  N   0.33578109787637     -1.23550809265048      1.54443206852125
  H   -0.27899947538288     -1.42882194052660      2.33925460551345
  H   1.28177789921695     -1.12264342847303      1.88325932371813
  H   -0.67719715058716      0.83924418744192     -0.93350977755279
