15
Coordinates from ORCA-job run
  C   -0.28299134571916     -0.02966960386969     -0.28856260875188
  C   -0.03914258847031     -0.04916514230340      1.07756640668433
  Cl  1.80813445228050      0.50279843795933     -1.49386916269005
  Br  -2.80866629360287      0.14256295841298      2.39161016294988
  H   -1.44914723206665     -0.04702967930324      1.42974246769973
  H   -0.64337879225178      0.88899602378390     -0.73583062846633
  C   -0.61459251966953     -1.23643897659460     -0.97613039519491
  N   -0.94426629858384     -2.23766523912622     -1.50322463266037
  N   0.45230477567343      1.14607653843269      1.66927401068478
  H   -0.13934999635165      1.45803815945339      2.43101679995740
  H   0.57249478775110      1.87601190257247      0.97884386336430
  C   0.42242841476659     -1.30490756134747      1.76635315197337
  H   1.49994109786011     -1.40590944875475      1.60502131502365
  H   0.23304367897727     -1.22552799363184      2.83965391502507
  H   -0.08965214059323     -2.19015037568357      1.38516533440104
