14
Coordinates from ORCA-job run
  C   -0.29742698101999      0.00970198812893     -0.29584032627434
  C   0.02574100961892     -0.09556230544286      1.06557395935590
  Cl  1.53206270190279      0.75568171472065     -1.59756892796882
  Br  -2.75094921102112      0.08115451214645      2.39546015218884
  H   -1.32395302976680     -0.13381620331966      1.42491596770448
  H   -0.86885625852152      0.87992558215286     -0.60074815691664
  C   -0.57272842807971     -1.20204527204741     -1.00468189045574
  N   -0.82199626634808     -2.22883433713004     -1.52692659884234
  N   0.52599177358907      1.05920630894513      1.71096719732785
  H   0.03546404995679      1.22086597402212      2.58308067752120
  H   0.47924956460232      1.86962273758509      1.10834674847875
  N   0.55306580138706     -1.27818410434022      1.65404209617930
  H   0.19882564366489     -2.10881726719991      1.19607345690104
  H   1.56503963003537     -1.24601932822112      1.57954564480052
