10
Coordinates from ORCA-job run
  C   -0.17380752816205      0.01409062058600     -0.30892042671413
  C   -0.00174742000280     -0.05007559041951      1.06529498052486
  Cl  1.81121798209473      0.27930201780931     -1.58792668024754
  Cl  -2.70068010692214      0.02548577904077      2.34481207753491
  H   -1.43908281558691     -0.04010213689793      1.59225168416805
  H   -0.51148020823956      0.94291683027332     -0.75198951592075
  C   -0.60816635487556     -1.17222755150583     -0.99817361879000
  N   -1.02500282937685     -2.14975715597837     -1.50446618800364
  H   0.33077811399140      0.85488256569585      1.56516976163297
  H   0.33979116707973     -0.98692537860362      1.49553792581527
