13
Coordinates from ORCA-job run
  C   -0.12348327180675     -0.04879349379665     -0.34555502787997
  C   -0.13855359793236     -0.09645866744163      1.11408640283920
  F   1.18072829973773      0.10615463855648     -0.99781948651097
  F   -2.55679153206787      0.61668957174219      1.50537074271044
  H   -1.56766022649745      0.15516236024888      1.38536200664778
  H   -0.68769339063717      0.81556467468872     -0.71357373093912
  H   0.29796900682840     -1.02836868152117      1.49018746877721
  C   -0.68013299160185     -1.27480772261035     -0.94488958686936
  N   -1.09794868005925     -2.25737336504966     -1.43458612902931
  C   0.46802704887280      1.14469361300833      1.75031420500894
  H   -0.08993982052955      2.03264556596351      1.43050639162499
  H   0.36956837723054      1.09686470208716      2.84027210635767
  H   1.52975077846280      1.31207680412419      1.51534463726249
