14
Coordinates from ORCA-job run
  C   -0.19918921190574     -0.02266720576175     -0.25733548469905
  C   -0.17066125354736     -0.11967778949407      1.20442311671165
  F   1.06544803101548      0.32168025386639     -0.91672320754427
  H   -2.38040628003470      0.64743599260311      1.82290654007713
  H   -1.50549566216339      0.09500845951358      1.52036341710616
  C   -0.62661368838292     -1.27824598227028     -0.88889034861320
  N   -0.97936906196670     -2.28156007000981     -1.38865298394764
  N   0.34090772436439      1.08407000543978      1.81735394549562
  H   -0.46997411151179      1.62817397492622      2.13511534315570
  H   0.86411990214610      1.64374332552277      1.15614016325786
  N   0.35232430029197     -1.33592260311964      1.80152575702344
  H   1.25940583436959     -1.58975732103908      1.41696850704894
  H   -0.28616346047367     -2.10311505082873      1.62807691047606
  H   -0.87147306220125      0.79282401065150     -0.55704167554840
