15
Coordinates from ORCA-job run
  C   -0.28492367125091     -0.01468395438772     -0.25777815039727
  C   -0.18936756555657     -0.11356628283121      1.20530634001361
  Cl  1.33177036447578      0.47353811715702     -1.16933649361717
  H   -2.44732170897629      0.57537897071094      1.90289430820742
  H   -1.41159659858321     -0.03571709858067      1.52004709820310
  H   -0.94550872961455      0.81645297901745     -0.52428555486954
  C   -0.73546644860592     -1.23302558157875     -0.91575771567609
  N   -1.12563070936273     -2.21248829460494     -1.43584627502076
  N   0.25596330370786      1.11038537801192      1.84422955156019
  H   -0.59557234260246      1.64561362632895      2.04386098155626
  H   0.85283270129193      1.65031119371102      1.22786228158662
  C   0.50691876957283     -1.33847863461225      1.75034959340860
  H   1.59057767909576     -1.30636444126190      1.57405237102115
  H   0.34771547186017     -1.36648736428327      2.83154912893962
  H   0.11293948454831     -2.26465861279658      1.31935253508424
