13
Coordinates from ORCA-job run
  C   -0.00531355891230      0.08948297421320     -0.35942828082128
  C   -0.27421412477358     -0.01645712817907      1.07440838125750
  F   1.38093467333735      0.32211585568720     -0.74885004414728
  H   -2.69064370292210     -0.26085244014275      1.67924563945996
  H   -1.59645141018735     -0.13542936765791      1.30126381383763
  H   -0.53885305653512      0.94045003747022     -0.79846904766189
  H   -0.06339453005594      0.94241930274288      1.56263218776336
  C   -0.38681485745536     -1.13082170363979     -1.09565613049245
  N   -0.68738897265640     -2.09443641733320     -1.69656246094711
  C   0.34479374071553     -1.19294195745705      1.79613492622516
  H   0.12313332273616     -2.12841642930968      1.27019518727949
  H   1.43355792254141     -1.13236919168650      1.92266304543959
  H   -0.11303544583232     -1.28084353470818      2.78987278280733
