12
Coordinates from ORCA-job run
  C   -0.14803670684361     -0.10198943269722     -0.40722688831905
  C   -0.33452889830662      0.03515605842949      1.03049867232169
  Br  1.88037609842892     -0.16119006328422     -1.04375703390557
  F   -2.52711609018214      0.60259865190909      2.06579946482199
  H   -1.56926207327546      0.14206863188385      1.35163927769090
  H   -0.46701748314411      0.79004271122555     -0.94360972012626
  H   0.04311796805953     -0.83999710559220      1.57681919015876
  C   -0.70811357601383     -1.31590027747051     -0.98109995457842
  N   -1.17548223791787     -2.30395664068344     -1.41427155162546
  N   0.13051599160111      1.33081057286574      1.50827129387311
  H   1.02861338797589      1.25157181341922      1.96960223906998
  H   -0.57072638038181      1.62529507999463      2.17917501061833
