14
Coordinates from ORCA-job run
  C   -0.15231535220556      0.03962528621054     -0.35322019695039
  C   -0.02349526103621      0.05794235113294      1.14585076871469
  F   1.08567792262773      0.12683333651541     -1.03022095438945
  F   -2.51552839812986      0.00479518966676      1.03379430222667
  H   -1.27892149308600      0.07455536612723      1.34595066895471
  H   -0.75676133337590      0.88756323574536     -0.67691981678870
  C   -0.78670434556256     -1.20360796654232     -0.82767180751892
  N   -1.18647829007856     -2.21017173019727     -1.27943207466263
  C   0.64565878959822     -1.18616483345682      1.71975267119515
  H   1.62354512378996     -1.38841629302642      1.26662488905856
  H   0.78778052834676     -1.07524809851630      2.79759802034323
  H   0.00043460044397     -2.05353712488449      1.55786944258164
  C   0.60799623116675      1.28062553060074      1.57263796283142
  N   1.10489127750127      2.27601575062464      1.96271612440403
