15
Coordinates from ORCA-job run
  C   -0.28933984184831     -0.02108138654745     -0.26867376552646
  C   -0.07363398923856     -0.06363398027935      1.10613224618067
  Cl  1.74008483235486      0.48624278862539     -1.40338627290410
  Cl  -2.72525661598358      0.15680208269524      2.31415689922308
  H   -1.43657340292008     -0.06137581533342      1.48176615948063
  H   -0.68846929469653      0.89686202792337     -0.68568139970959
  C   -0.63406708521529     -1.21950950140091     -0.97416493646796
  N   -0.96880198057656     -2.20959975616340     -1.51779922735156
  N   0.41707885793606      1.14419028907031      1.70946759660629
  H   -0.29272798757355      1.58918595228275      2.27975618158327
  H   0.74508401746691      1.77872506528496      0.99080019565689
  C   0.44151127205341     -1.32059971466466      1.75832850512784
  H   1.52116934074781     -1.38348984567552      1.58757458766154
  H   0.26227320860010     -1.26743863362659      2.83448806366692
  H   -0.04117133110670     -2.21725957219073      1.36386516677255
