16
Coordinates from ORCA-job run
  C   -0.04999859452048      0.04860015664171     -0.38706886155086
  C   -0.20612843191830     -0.04061563540422      1.08087906157987
  Cl  1.72020622238173      0.32342743300025     -0.99320009634684
  H   -2.66064282539901      0.05989310005211      1.92595620192469
  H   -1.38781906051146     -0.05938088950892      1.30820576991902
  H   -0.56611080548333      0.93044751351902     -0.77593073435942
  C   0.23701566345535      1.22666157396491      1.78424310014631
  H   -0.16054671115351      2.11339364195505      1.27862647057182
  H   -0.18583616377504      1.22205304672208      2.79428384686516
  H   1.32797546688927      1.31933927606656      1.84362142334196
  C   0.37469886088714     -1.28900728240869      1.71030739108542
  H   0.04773991377892     -2.19339854656007      1.18833379271483
  H   1.47200759365444     -1.27780552754021      1.73117887396181
  H   0.00442007462121     -1.35911108075349      2.73865712271003
  C   -0.52149818332502     -1.13295000154171     -1.10313854085514
  N   -0.91074301958192     -2.07984677820439     -1.68008482170865
