12
Coordinates from ORCA-job run
  C   -0.40966241920489     -0.03985121162295     -0.20144113080326
  C   -0.17379539314005     -0.10396581116750      1.16508242381048
  Cl  1.60133451293814      0.41445488903530     -1.40292823229128
  Cl  -2.83093692961867      0.27023953050643      2.38605977680208
  H   -1.56652821603706     -0.03938732853277      1.62414165910152
  H   -0.77064164104328      0.89510111618596     -0.61400630481460
  H   0.11571398384057     -1.07436670721128      1.57145765205161
  N   0.40501218800135      1.03743144432344      1.81791346697768
  H   -0.30452227226038      1.65061869145046      2.20077738998431
  H   0.96207705982960      1.54264509332119      1.13616566809661
  C   -0.82283078064030     -1.22742108740993     -0.89202591486103
  N   -1.20611009266503     -2.20992861887836     -1.41551645405411
