13
Coordinates from ORCA-job run
  C   -0.24077367070247     -0.10736884982296     -0.29947796643487
  C   -0.19464248693535     -0.16213418837505      1.16699443976165
  Cl  1.38863288829738      0.29057245407554     -1.21146936523140
  H   -2.57304348583571      0.38905232075858      1.86287543092100
  H   -1.39840428900787     -0.05359990594853      1.49230136203019
  H   0.22236999169450     -1.10211968167049      1.53911591891188
  C   0.39677404582556      1.06575463137272      1.82429441965166
  H   -0.17289565185124      1.94988698947855      1.51690350123252
  H   0.28140452480770      0.98585028322391      2.90955022836929
  H   1.45367782018822      1.22649651910409      1.58772452082471
  H   -0.88073993604782      0.71729132530624     -0.63026791501714
  C   -0.70830831604896     -1.35297252261147     -0.89468443603793
  N   -1.09078143438395     -2.36080937489113     -1.36263013898157
