15
Coordinates from ORCA-job run
  C   -0.15484129616025     -0.02604056765868     -0.33919260943811
  C   -0.20145030261692      0.08352474240933      1.13076497835974
  Cl  1.59868084225110     -0.18669455624357     -1.06976071257247
  H   -2.46376890032946     -0.19678578752886      2.23216920424710
  H   -1.36349138739752      0.12983991246435      1.44398151898936
  H   -0.51381461993312      0.88361545723711     -0.82458256230038
  C   -0.88058364465827     -1.18152947590449     -0.85489499135739
  N   -1.46822209095311     -2.10962524154970     -1.27224833751535
  C   0.45156609786286      1.34559468724167      1.65518607652935
  H   0.11418810286703      2.23456304027712      1.10789589319245
  H   0.16010302933939      1.45977028408680      2.70285502491142
  H   1.54373069228026      1.28557504670258      1.60188659185628
  N   0.24572472536266     -1.09656455094094      1.85623975827941
  H   0.66049511901443     -1.78207667196698      1.23630293446473
  H   -0.60304636692908     -1.49480631862575      2.26857723235386
