12
Coordinates from ORCA-job run
  C   -0.14100979096454     -0.02444372767552     -0.41586121553219
  C   -0.37449313285527     -0.03723896150005      1.02168047670790
  Cl  1.73086972584323      0.02175049034864     -0.94245502230471
  F   -2.60938829322276     -0.15120569052773      2.11613578962774
  H   -1.64473687484617      0.00326632083447      1.38116894818082
  H   -0.49673933177925      0.88922479640465     -0.89413353265268
  H   0.04680038348360      0.87362766383704      1.47325954962049
  C   -0.66658716307790     -1.19048124683708     -1.11908061778468
  N   -1.12071058626168     -2.08372888673998     -1.73187790312818
  N   0.03449901270960     -1.28727637098306      1.64396164439519
  H   -0.64295677628277     -1.47612087146376      2.37257659646881
  H   0.95711282725389     -1.21986351569763      2.05661528640148
