14
Coordinates from ORCA-job run
  C   -0.11423331516025     -0.08352565321556     -0.36293566654861
  C   0.10650567108576     -0.08491299948653      1.02549855969806
  Cl  1.68407300431585      0.28761433200581     -1.55895711733987
  Cl  -2.77583737794913      0.40581414061397      2.00645546016381
  H   -1.53046369002057      0.04623988681965      1.50050556063750
  H   -0.60345960492465      0.80559404442080     -0.75301032562477
  C   -0.57453841151407     -1.30547656985642     -0.97612632874943
  N   -0.99135476834927     -2.29377102420986     -1.46024902719493
  C   0.54097234016786      1.21260467224761      1.66573543721063
  H   -0.06056777107460      2.03995785748079      1.27900156674796
  H   0.40947310326884      1.17830647070558      2.74976266862326
  H   1.59277003343740      1.41770533925402      1.43684452434931
  C   0.58251134325947     -1.28004372616484      1.64244229278259
  N   0.95396944345737     -2.24606677061502      2.20817239524450
