13
Coordinates from ORCA-job run
  C   -0.22158603823143      0.01645482340969     -0.28101806762146
  C   -0.04925584704437     -0.09520444166656      1.20638779916606
  Cl  1.29158358084876      0.55966128201793     -1.19768727699391
  F   -2.39943479941023      0.58101969128877      1.51175628545837
  H   -1.32814755063808     -0.03529303372599      1.48754342644197
  H   -0.95350741547886      0.80381725473249     -0.46150828307807
  C   -0.67712056590504     -1.22103628931639     -0.90470835299858
  N   -1.04400638881217     -2.21943419508868     -1.40323203223837
  N   0.37837903905035      1.13082317469582      1.85802109923152
  H   -0.45395778691339      1.70294400081621      1.94644086653946
  H   1.07464531234448      1.62080267975728      1.30579304362815
  C   0.73309754868518     -1.23986565703055      1.60556485577426
  N   1.34460091150480     -2.18684928989002      1.94875663669060
