13
Coordinates from ORCA-job run
  C   -0.41698290924132     -0.04416502741785     -0.27735814550161
  C   0.05416563472658      0.09981476379633      1.10686097014304
  F   0.38833433537129     -0.81853502585802     -1.06719770013302
  H   -2.06775280645801     -0.63335819571436      1.25576528013353
  H   -1.21526077860003     -0.24824820695717      1.62278993945305
  H   0.66449945247964     -0.76031295863318      1.38672640568536
  N   -0.59343781900426      1.28479158084342     -0.95120128277501
  O   -1.33209139639190      2.06796050369207     -0.35963384854703
  O   -0.03265564788513      1.48296814048220     -2.02331362425834
  C   0.56947226426274      1.33233660804025      1.59405280255577
  N   0.99085861158254      2.33051267222502      2.06268838931263
  C   -1.85882440196709     -0.72952250486267     -0.36000744314780
  N   -2.55166453887507     -1.18670234963605     -1.21539174292056
