14
Coordinates from ORCA-job run
  C   -0.34819349154961     -0.03532465305456     -0.30643476657704
  C   -0.05696190836285      0.05441000291575      1.04627685402602
  Cl  1.65062947303891     -0.08244445872298     -1.68056231228590
  Br  -2.80625050906394      0.11989952250623      2.52464675388382
  H   -1.56343511313129      0.12556589145907      1.54369982137483
  H   0.20914130879375      1.04308276805723      1.41127609320331
  C   -0.83660876255262     -1.27037091302399     -0.83135734966162
  N   -1.25970688385757     -2.33070410540119     -1.12132252688927
  N   0.49437330396238     -1.03018837594681      1.73958052586312
  H   0.32627199409579     -1.91639783087742      1.28038074089625
  H   0.18173926982186     -1.06389463101165      2.70141474622751
  N   -0.89815480306940      1.17050761914558     -0.93996478360614
  O   -0.60959532308571      2.25474573498680     -0.44219730625877
  O   -1.62681855503973      1.00326342896792     -1.91515649019615
