17
Coordinates from ORCA-job run
  C   -0.11546865222922     -0.04769899024731     -0.45206197569244
  C   -0.22286368173569      0.04195037103364      1.02732946580961
  Cl  1.61305992456352     -0.05060961775303     -1.09753778916491
  H   -2.17258672824523      0.44777963925768      2.45981222686091
  H   -1.36692143388758      0.07819882897539      1.41350032268375
  C   -0.74705099872439     -1.24482548846407     -0.99827229587074
  N   -1.23408138298964     -2.22542304748567     -1.42701428754290
  N   0.22636794512900      1.33429956418632      1.48421511136435
  H   1.15403263016593      1.27928462551276      1.88883139109928
  H   -0.44686773864982      1.58131700087602      2.22075371679407
  C   0.37804300216230     -1.14901435840981      1.74366363188784
  H   1.47452232115336     -1.11137535190706      1.75166183555349
  H   0.00581006866706     -1.10608533374950      2.77351165972422
  H   0.06743526145838     -2.10594132664959      1.31197343598404
  N   -0.83146472810271      1.16835143691809     -1.06850029775504
  O   -0.17672945757415      2.11374757232379     -1.46900010369300
  O   -2.05409635116112      1.07600447558235     -1.04988604804253
