12
Coordinates from ORCA-job run
  C   -0.08501892931472     -0.05293223811717     -0.35837599201950
  C   -0.24400262017588     -0.04446232228109      1.10099018677825
  F   1.22865470208462      0.09018738111044     -0.83330804394334
  H   -2.70783454376575      0.33653294154254      1.86747478850489
  H   -1.41956246764716      0.10778459776580      1.41772389016881
  H   0.29860215916830      0.80732369173985      1.51621545003527
  H   0.09672211083378     -0.98481744330853      1.53722847776634
  C   -0.62812999990525     -1.25422842966102     -1.00784311177926
  N   -0.98164357456614     -2.25125159250065     -1.51805596572860
  N   -0.80845155495315      1.17159856646925     -0.92893297763307
  O   -0.28950878466688      2.25311716252648     -0.67969927075952
  O   -1.85931649709177      0.98799768471410     -1.53427743139028
