15
Coordinates from ORCA-job run
  C   -0.08443540392308      0.01988870952820     -0.31504339612257
  C   -0.01344140827183      0.04133508144454      1.13787320795553
  F   1.15069456837723      0.13537503658792     -1.02865378578768
  F   -2.52665164070693      0.06219838769736      1.28289543599445
  H   -1.34857232146306      0.08940565794543      1.37221665976160
  H   0.47429636621151      0.97082185371045      1.44245145638208
  C   -0.72131217310416     -1.19612786200372     -0.84491761358879
  N   -1.12762711022456     -2.22827584135037     -1.23004967885464
  N   -0.84553410081351      1.23785361436757     -0.85313088269573
  O   -0.55436016963383      2.32025545024285     -0.36071437450744
  O   -1.62543615901107      1.06321899135888     -1.78431330263517
  C   0.62667076789193     -1.20504493951911      1.73056234144718
  H   1.62082798169311     -1.43949637260189      1.32414625420825
  H   0.73559363678958     -1.07889159258628      2.81192488315776
  H   -0.01269283381136     -2.08007617482184      1.57706279528519
