14
Coordinates from ORCA-job run
  C   -0.33263707228075     -0.05167360683095     -0.31357142838426
  C   -0.38494538866711     -0.11260997115363      1.08586962143853
  Br  1.95672070028562      0.09262580124254     -1.04118094579983
  Cl  -3.02404774901371     -0.14347905480599      2.28415138929037
  H   -1.67937266751770     -0.13082437056539      1.41523612193715
  H   -0.13234137407086      0.83570840297175      1.56852699345211
  N   -0.82140936741531      1.22314728602403     -0.91167599368918
  O   -0.67504972479931      2.24393838107722     -0.24637982041625
  O   -1.34476227528653      1.15877386958667     -2.02128552990541
  N   0.12522737832328     -1.33736664281082      1.61712371611566
  H   -0.07790939995134     -1.40243084580091      2.60543552895268
  H   1.12867019112787     -1.37663950857758      1.45845733353200
  C   -0.70382619758187     -1.21298132099293     -1.07235269626071
  N   -1.04420705315227     -2.17064841936402     -1.66729429026287
