17
Coordinates from ORCA-job run
  C   -0.15913480460952     -0.08903313024346     -0.45652328749349
  C   -0.27536962962815      0.03743433144544      1.00130382903059
  Br  1.78393244513487     -0.10778334970725     -1.15870261984849
  F   -2.26790266784210      0.35848689904370      2.41291256964826
  H   -1.46294685375916      0.07453484941472      1.43586890917465
  C   -0.73064196511228     -1.31463011528268     -0.99647846443958
  N   -1.18283414993973     -2.31353598575802     -1.42203494986395
  N   0.16174239810773      1.35410374234914      1.42849782977030
  H   1.12269290176605      1.33229365702221      1.75706085351915
  H   -0.45751876346266      1.59015578453357      2.19738659291414
  C   0.33214635540626     -1.12712918011994      1.76121030763154
  H   1.43089616084817     -1.09657955889467      1.74122560477888
  H   -0.01965977012029     -1.04575765542110      2.79169688488994
  H   0.00732342550258     -2.09746198106766      1.37302788386809
  N   -0.85376653227456      1.10139486959625     -1.14004437842065
  O   -0.19757335912897      2.04417820860848     -1.54259204435386
  O   -2.07591519088822      0.99472861448127     -1.17055552080552
