14
Coordinates from ORCA-job run
  C   -0.32720879539647     -0.01572515366022     -0.34168607059330
  C   -0.39539953393053      0.11234550068571      1.06069113569693
  Br  1.92061880217030     -0.02033173322431     -1.08740448726134
  Cl  -3.06785132088638      0.12669560436315      2.20875363033547
  H   -1.68741956980534      0.11142273044506      1.35772722205869
  H   -0.14036999967741     -0.83575810258532      1.55009229267077
  C   -0.76144960335967     -1.27632659340294     -0.88037405265596
  N   -1.10260779493438     -2.33895245274171     -1.25666034461386
  N   0.09704158054669      1.32095917015180      1.63022069202492
  H   1.04212826396444      1.50028322828716      1.30464721827939
  H   0.06296923125336      1.26850014219149      2.63818120515761
  N   -0.84073930677181      1.14984890401472     -1.13271916772207
  O   -0.31954905657022      2.24156056385686     -0.95936550635103
  O   -1.80519289660260      0.91240819161853     -1.86223376702623
