17
Coordinates from ORCA-job run
  C   -0.05422772120416     -0.04653463282313     -0.44905902476718
  C   -0.22859997206075     -0.04818094272462      1.01008182867670
  Cl  1.72363041210815      0.09434444635550     -1.04918716927953
  F   -2.30935544731672     -0.27856314837366      2.31457654740320
  H   -1.46407722754465     -0.08865614559574      1.43314732705013
  N   -0.78619213107929      1.15268495497340     -1.06891624830845
  O   -0.22172519256442      2.23814629070973     -1.07353497035029
  O   -1.93167345502088      0.93610951347946     -1.45112157165114
  C   0.34833545907437      1.14763675870351      1.74278685272336
  H   0.00009217884657      2.10355137313011      1.34640830534264
  H   0.00522656429998      1.07238507121043      2.77694486892641
  H   1.44820853289242      1.15167530137646      1.72260911116567
  N   0.22805508075348     -1.33559684347509      1.51656044296301
  H   -0.40595835904060     -1.57472700824311      2.27119625215802
  H   1.17289719528203     -1.26426013136914      1.88401120209435
  C   -0.55659647055743     -1.26094660328290     -1.08423397466029
  N   -0.93930944686808     -2.22316825405120     -1.63976977948661
