17
Coordinates from ORCA-job run
  C   -0.14414438686821     -0.06629573229265     -0.43781982233002
  C   -0.29979174543547      0.03905425140787      1.04711264742640
  Br  1.77197740614881     -0.05465030105399     -1.06083163009410
  H   -2.26632275489707      0.55694779383396      2.54228691716394
  H   -1.42669384113416      0.05281223649934      1.34395761704649
  C   -0.72152359880517     -1.28164215556819     -0.99631836958133
  N   -1.17250841838623     -2.27890101710817     -1.42726769202362
  N   0.11862168652324      1.34232577281731      1.50221602448472
  H   1.02515241966775      1.29316729217310      1.95286958737666
  H   -0.59710059863177      1.57767468801347      2.20625442716833
  C   0.29701351801334     -1.13650479304589      1.79629942612697
  H   1.39150920579915     -1.08399927649050      1.82123320530380
  H   -0.09666868212688     -1.07418599190463      2.81575644862674
  H   0.00341995624350     -2.10319561099047      1.37493152223276
  N   -0.85800664295718      1.12897085962953     -1.08960603821316
  O   -0.21171459328708      2.08416558362537     -1.47897609136214
  O   -2.07890892986657      1.01005640045452     -1.10484817935243
