17
Coordinates from ORCA-job run
  C   -0.15230618214351      0.02896669774731     -0.38762344788813
  C   -0.06555476472562      0.09948332396818      1.07651161596902
  F   1.08146285704125     -0.03485340244451     -1.06888433043094
  H   -2.04653402468239     -0.62970197704059      2.29880959077644
  H   -1.22209511961820     -0.06535336115488      1.57290148131486
  C   -0.92780571151838     -1.12828738814419     -0.85739900976786
  N   -1.50757630363066     -2.06956877366484     -1.25577396352089
  C   0.53716072096902      1.37718805661742      1.62255193663022
  H   1.59857618454963      1.49019817023099      1.37055596547731
  H   0.00134877004741      2.27262648968383      1.29110146488934
  H   0.44954946647033      1.32091193562579      2.71106733208282
  N   0.55086077262985     -1.09102788117258      1.63624754537764
  H   1.06114731844482     -1.63868385218409      0.95542084006013
  H   -0.21938943061490     -1.64567258906058      2.03038253551792
  N   -0.82734752854802      1.29031012415686     -0.93921714884568
  O   -0.10212324769217      2.17986076750281     -1.36766160408892
  O   -2.04944377697845      1.32915365933305     -0.84879080355328
