18
Coordinates from ORCA-job run
  C   -0.19777919283572     -0.00737432236568     -0.24402030782491
  C   0.02565951188286      0.07367531453756      1.20526670340470
  Br  1.53853770308791      0.10228463269086     -1.40245926873900
  F   -2.48295853978810      0.07897295621755      1.18328841265526
  H   -1.20484960859650      0.20405614328015      1.43162722645658
  N   -1.02454633974555      1.14611037879597     -0.84371674240518
  O   -0.93664164153041      2.24182184242734     -0.31386709939805
  O   -1.67293480605438      0.88571342535766     -1.84788211129063
  C   0.44267605575550     -1.27310320367069      1.78019879656654
  H   1.37186655517920     -1.65418574765731      1.33156814432733
  H   0.61515073518193     -1.15989090883749      2.85515429456094
  H   -0.34398814309527     -2.01829656166416      1.64994325548420
  C   -0.81587094728484     -1.25175235551605     -0.68442647968179
  N   -1.22383851202468     -2.29537209930304     -1.04087211564923
  C   0.94464842003926      1.17933005304575      1.69203034194215
  H   0.84815626375839      1.26456059960566      2.77942332068179
  H   1.99477858161301      0.94416663849679      1.46668789526195
  H   0.70621390445738      2.14581321455914      1.25573573364734
