16
Coordinates from ORCA-job run
  C   0.05846971557099     -0.01462735301395     -0.48148626471184
  C   -0.19464788118301      0.10049487645547      0.96518822636858
  Cl  1.85683061608894      0.00097805215312     -0.98208486310111
  H   -2.20856743614313     -0.07043621074451      2.25161428094172
  H   -1.37779394411443      0.02181448459953      1.24677977691505
  C   -0.49115372666248     -1.23924189744143     -1.05113372222976
  N   -0.91166634112747     -2.24688160286670     -1.48836810960079
  N   0.14438645044531      1.40555679410888      1.45808779464002
  H   1.06591846154285      1.35664107796727      1.88037734337178
  H   -0.53284628741483      1.58997180880424      2.20044674831047
  N   0.40831632683162     -0.98262280116655      1.73235970832223
  H   0.52309225913746     -1.81546366065753      1.16176962181462
  H   -0.31700775719150     -1.19999575848992      2.42864371455158
  N   -0.61210800638769      1.17684783779144     -1.18690935217772
  O   0.06211087739792      2.12915799186307     -1.53324313153545
  O   -1.82835332679054      1.06013636063756     -1.29826177187940
