14
Coordinates from ORCA-job run
  C   -0.16855101855775     -0.04651185951747     -0.48901785771590
  C   -0.23677954425777      0.01985856155520      0.98604746797051
  Cl  1.55700070058757     -0.03472246585601     -1.19466935919899
  H   -2.28015005655003     -0.29264901891117      2.37110003051208
  H   -1.36987045363062      0.10126005160987      1.39019790502145
  H   0.28060243635621      0.92192527413824      1.32823747999351
  C   -0.81428607458581     -1.22735519263731     -1.04536088638371
  N   -1.31852852547613     -2.18196958847887     -1.50917127529182
  N   0.16614821767813     -1.23146921273073      1.58203475365956
  H   -0.57340387696719     -1.42569222574527      2.27147279105477
  H   1.05116741795724     -1.14069690393998      2.06197008212484
  N   -0.81973551741362      1.21129157497045     -1.05972492578773
  O   -0.32308199104894      2.27745652510117     -0.71965426676253
  O   -1.81517171409128      1.07067448044189     -1.76427193919603
