14
Coordinates from ORCA-job run
  C   0.24033152686940     -0.22057470866766     -0.21998037057055
  C   0.11693074377993      0.02150881469843      1.25006798455547
  F   1.23578084389078     -1.06445698229469     -0.57765251121827
  H   -1.88594604340390     -0.48223850999387      0.40495247318606
  H   -1.25322751169523     -0.11649649548221      1.19482480298654
  C   -1.13891095659680     -0.82830460811718     -0.76961618983351
  N   -1.44847117643385     -1.39696278614964     -1.77176553491012
  C   0.46477910068455      1.28914223609130      1.82309760361403
  N   0.71641476868352      2.31422310275854      2.34819853750398
  C   0.56912649217842     -1.09803368104886      2.03293350246142
  N   0.90197457180633     -2.01622420052873      2.69104983203717
  N   0.41786659376194      1.07063261220858     -0.95770070113470
  O   1.31827294201595      1.15773451631751     -1.78410433635207
  O   -0.42220189554105      1.92875069020847     -0.69468509232545
