15
Coordinates from ORCA-job run
  C   -0.18161249822490     -0.02186390145523     -0.25952484191958
  C   -0.06251786475704      0.01455077025434      1.19223288165941
  Cl  1.45338899205530      0.09871133161752     -1.22486281122798
  F   -2.57088047006993      0.06249006523934      1.14723662692653
  H   -1.34498506289045      0.05594631118139      1.38774340960941
  H   0.40234531840296      0.95586952061742      1.49066132364285
  N   -0.94304901186952      1.19448447864233     -0.79871526087119
  O   -0.72010306621297      2.26140737252908     -0.24788994469602
  O   -1.66315864900957      1.01948350876236     -1.77208682564142
  C   0.60132217728371     -1.21330829505497      1.78470972337261
  H   1.61218621269553     -1.39316177261190      1.39371495374908
  H   0.67784358317927     -1.10164675708137      2.87006084094995
  H   0.00278444287978     -2.10899162015136      1.59471626161688
  C   -0.80881520090688     -1.23658020846135     -0.77070925013640
  N   -1.22133890255531     -2.26424080402761     -1.16331708703412
