15
Coordinates from ORCA-job run
  C   -0.03687802737307      0.00272759216653     -0.36150724858701
  C   -0.11227731114222      0.10497558808197      1.10188048006827
  F   1.25448544450493      0.08392787736548     -0.90760309574682
  H   -2.43412205709217      0.15753179494485      2.22770050792649
  H   -1.26178098327896      0.19778865541506      1.49386957260422
  H   0.37431188376819      1.04315944473911      1.38915705545893
  C   -0.63792559993823     -1.21964892898293     -0.91364754119767
  N   -1.03910013470055     -2.23769260009887     -1.34089887624740
  N   -0.77438441991632      1.20515950370719     -0.95728135682168
  O   -0.17417932130139      2.27332741042194     -0.91784321039737
  O   -1.91764005914240      1.02479155184762     -1.36440232886071
  C   0.43467196876615     -1.09202046055424      1.85438277564053
  H   -0.05205555359903     -2.01394980853514      1.52312411717389
  H   1.51904270638376     -1.21578292038675      1.76553181230056
  H   0.16892146406130     -0.96757470013182      2.90936733668577
