15
Coordinates from ORCA-job run
  C   -0.22964706948343      0.02952970014838     -0.32086478068014
  C   0.32099155613665     -0.09581428072322      1.06434286365919
  F   0.54260079489818      0.99037889368198     -0.96890859257991
  H   -1.35390318139227      1.35313622420477      1.13216580442505
  H   -0.46316236274357      0.88623588727756      1.51729465516705
  C   -0.22187007734862     -1.18940850817677     -1.12460753620205
  N   -0.18721413741740     -2.13998050174854     -1.81425814934717
  C   -1.66792482999067      0.64917714921651     -0.24848768385549
  N   -2.65255536023338      0.71481583968420     -0.91803409742833
  N   -0.03522403736233     -1.28773290505709      1.74561873140323
  O   -1.15771426855026     -1.73694534202253      1.45325767500866
  O   0.70923083329398     -1.73561701786683      2.62851286198351
  N   1.74693432425513      0.21664306143146      1.22399529781769
  O   2.54192981679972     -0.36356742413368      0.48235472869472
  O   2.05138799913824      1.02561922408377      2.10020822193399
