14
Coordinates from ORCA-job run
  C   -0.15840509182448     -0.02500251926591     -0.23998026085255
  C   0.00715822729200     -0.09982052728898      1.24668234637498
  Cl  1.35883129533235      0.44265193560717     -1.12216452706926
  H   -2.00415086640378      0.87432970538278      1.02815842186576
  H   -1.26872056457386      0.19035284594349      1.42699691221287
  C   -0.62177651817274     -1.28835801268686     -0.80270697984422
  N   -1.02559753832160     -2.29829791060510     -1.25030783610746
  C   -1.21545747358437      1.06277941063910     -0.59265873773364
  N   -1.56046304371514      1.79470869083929     -1.46629866468108
  C   0.45441632068987     -1.35289800202568      1.77234007923241
  N   0.79456876319134     -2.38274129828379      2.23824823513460
  N   0.60219835078618      1.06110682615516      1.85845555535479
  H   1.40320130226008      1.38091609872785      1.32504729298379
  H   -0.10222316295583      1.79910275686148      1.83835816312901
