15
Coordinates from ORCA-job run
  C   -0.21569062573507     -0.09961024984008     -0.25565901114645
  C   0.03837236388524      0.02468367834057      1.19325653028192
  Cl  1.07859812377221     -0.96120878358907     -1.19018173702495
  H   -2.08187397665107     -0.66006493436287      0.99988905470826
  H   -1.34017799379444     -0.17748870669811      1.45610032690047
  C   -1.55334991964803     -0.97060795011960     -0.51109268899837
  N   -2.06900363961257     -1.60060934252667     -1.38199430070756
  C   -0.44011550044138      1.18859184287259     -0.89431321498690
  N   -0.65728255223985      2.22222184366711     -1.41276026603344
  C   0.53037086850896      1.26389317285972      1.68565663656906
  N   0.93862431176329      2.26997524632619      2.15264865820615
  C   0.59711037599100     -1.22006851191850      1.85158061962732
  H   1.63561296776243     -1.41991485385265      1.57169216714262
  H   -0.01078291531714     -2.08041352859442      1.54771236507544
  H   0.53646811175641     -1.12523892256418      2.93917486038641
