12
Coordinates from ORCA-job run
  C   -0.14959966922283     -0.02103373054326     -0.38913120308900
  C   -0.14097411023005     -0.01800592681838      1.04764645283611
  Br  1.88155824786245      0.13615279910751     -1.33193450481944
  Cl  -2.95038872890421      0.07154831091718      2.04442052434609
  H   -1.58400591872899      0.02097883403662      1.46491835583825
  H   0.16112946966479      0.93168624022604      1.48836269050631
  C   -0.60837137225015     -1.25484993711243     -1.00374152939370
  N   -1.01119643281103     -2.25284471068213     -1.47974483541199
  C   -0.77043568413046      1.15752589014672     -0.97044283243789
  N   -1.28965826513279      2.11921288876398     -1.40654366370304
  C   0.40846283123333     -1.16771663211615      1.69570772828632
  N   0.82931963264994     -2.11397402592565      2.25657281704195
