14
Coordinates from ORCA-job run
  C   -0.23715583074446      0.03077029355137     -0.26574130954421
  C   -0.03004601931976     -0.06396761474143      1.16594560886712
  Cl  1.16933355953455      0.75034491603013     -1.26886967611039
  H   -2.05036445339090      0.97830802583120      1.05999708249075
  H   -1.36123445763013      0.36770516346208      1.40961434421456
  C   -0.51318339774868     -1.27293182590274     -0.84366878029648
  N   -0.76491508310893     -2.33409449014175     -1.28669595468577
  C   -1.45231873291928      1.00388210775567     -0.67964407211534
  N   -1.97846716302457      1.49907710756713     -1.62599860788747
  C   0.70198314179551      1.08044068426101      1.81891146377018
  H   0.18523150864453      2.02011183106818      1.58136660782597
  H   0.69560885253704      0.96445565456616      2.90806946990680
  H   1.74109032077555      1.18545453331413      1.48765438611849
  H   0.19976775459953     -1.06256638662113      1.53152943744578
