11
Coordinates from ORCA-job run
  C   -0.28856653019923     -0.00223452870016     -0.24755482266635
  C   -0.20804894673332     -0.01248836963521      1.22646867442476
  Br  1.57686352595430     -0.01958229676118     -1.21449953891464
  F   -2.70973843830420      0.01024225082335      1.07237760652451
  H   -1.46781436285719      0.00197113516152      1.40257570073485
  H   0.29281489525611      0.88246294160937      1.59952377401547
  H   0.26656297389614     -0.92624958188079      1.58808341240102
  C   -0.90716267468316      1.21403680435384     -0.77509511883747
  N   -1.33017462146879      2.22030355336580     -1.21009061391427
  C   -0.93783281715132     -1.19496642628666     -0.79191998424375
  N   -1.38676300370933     -2.18016548204988     -1.24861908952413
