13
Coordinates from ORCA-job run
  C   -0.23265963966963      0.05532287766886     -0.28743487474929
  C   0.29668064409358     -0.08050543832884      1.09861241914372
  F   0.56600001708795      1.01995409129832     -0.91495850288269
  H   -1.45532061368820      1.29844530667432      1.17461433860695
  H   -0.55445904176899      0.84180090663651      1.55059578529869
  H   1.33426586713190      0.19667373925442      1.24283392147121
  C   -0.18850441852144     -1.15608360597565     -1.10565109841179
  N   -0.09436143618329     -2.08973396500692     -1.81297753883216
  C   -1.68237183186108      0.66266779797756     -0.29678223201995
  N   -2.62193595348398      0.75664266205109     -1.02473094392035
  N   -0.05277932586823     -1.28503556153611      1.75499451871438
  O   -1.13509636721971     -1.80475930604577      1.41888541175257
  O   0.66032209995112     -1.70074950466778      2.68341879582869
