11
Coordinates from ORCA-job run
  C   -0.34471067914832      0.02381872899051     -0.32635698166508
  C   -0.26582590097648     -0.02393655981713      1.07065885101495
  Cl  1.69394345288817      0.09547727060263     -1.38097931161216
  Cl  -2.92150593853892     -0.09232930618980      2.36806776786639
  H   -1.66078848580794     -0.06738095736807      1.58321484481755
  H   0.05760313109129      0.88696538858132      1.56672376345941
  H   0.09077717302829     -0.95620494469030      1.50019105439517
  C   -0.82801627288446      1.25088625746197     -0.91700605385089
  N   -1.26841669771073      2.26256412810532     -1.32709054748995
  C   -0.78592815681094     -1.17448692195302     -1.00282377157528
  N   -1.19796162512994     -2.16036308372345     -1.49661961536014
