15
Coordinates from ORCA-job run
  C   -0.07433262304615      0.05746724916559     -0.41285025453360
  C   -0.29352621465689      0.10270958428586      1.04130102207741
  F   1.31334534740696     -0.07008533035946     -0.81709056987834
  H   -2.36903112290145     -0.14437661492294      2.20790165402615
  H   -1.50881348139546      0.04061103988313      1.36497741099451
  C   -0.56134023614960      1.27942735969585     -1.07137491156154
  N   -0.96039382630970      2.21551893772299     -1.65859493370872
  N   0.11427950897396      1.36839045718463      1.60276158591785
  H   1.02268377040000      1.24304906794953      2.03749124405408
  H   -0.55189882419479      1.55994342800714      2.35333309817360
  N   0.23729805745835     -1.06029835632077      1.73676253372358
  H   0.57801775836884     -1.77125066842496      1.10027448270551
  H   -0.55559335795648     -1.44545992500535      2.26302159260477
  C   -0.73305733406170     -1.12468059060968     -1.00391846325373
  N   -1.25110742193588     -2.07183563825157     -1.46867549134153
