13
Coordinates from ORCA-job run
  C   -0.15800867830819     -0.06356238227458     -0.45502365579312
  C   -0.32316940588259      0.02466886871872      1.02156370204912
  Cl  1.65977629308741     -0.10554248821253     -1.00342122375604
  H   -2.41545833831149      0.60490955502512      2.25365457711743
  H   -1.47632831487172      0.06099840315435      1.35669994736052
  H   0.10103027194345     -0.87699929716386      1.48169798101765
  C   -0.72337702748839     -1.30504585506203     -0.98563301814326
  N   -1.18469095391964     -2.31141684046084     -1.38092044391955
  N   0.14246492367642      1.29253574222044      1.52630094602500
  H   1.00370479451878      1.19286448194799      2.04594816108301
  H   -0.60664318137416      1.59714512500164      2.16180222127991
  C   -0.72811164202873      1.09234860897595     -1.14595545690505
  N   -1.20930874104116      1.98787607812963     -1.73513373741563
