14
Coordinates from ORCA-job run
  C   -0.21738759764910      0.02368239170149     -0.36118964029487
  C   -0.14054855380537      0.02513112969520      1.04115158252010
  Cl  1.86276744515362      0.09201358726136     -1.33572821135992
  Cl  -2.76689872821649     -0.11704155134903      2.31664833588535
  H   -1.48082802739428     -0.02867130488676      1.48808801741272
  H   0.11469983767063      0.99954568085201      1.45914239571849
  C   -0.61355343960645     -1.20804504930556     -1.00319580656444
  N   -0.98939060627012     -2.22205695086867     -1.46954993172398
  C   -0.72283863412169      1.21642075834807     -0.99631686728491
  N   -1.17663106514390      2.19678554339666     -1.46484406455501
  C   0.45719726719619     -1.17122852470905      1.73404630839761
  H   1.52494319534860     -1.23770258309397      1.49724276299083
  H   0.32787127609758     -1.08666393633422      2.81473272899996
  H   -0.02548236925918     -2.09600919070751      1.40966238985809
