15
Coordinates from ORCA-job run
  C   -0.13825980702380      0.03405229665627     -0.38070265030544
  C   -0.05602217271132      0.06362689456217      1.05328954913134
  Br  1.90210804396941     -0.09248825891942     -1.37748901800246
  Cl  -2.75424250466974     -0.27685527519532      2.17676299556697
  H   -1.41797308608204     -0.02158832020342      1.48410400736145
  C   -0.72434317638454     -1.17401265180868     -0.93289142701726
  N   -1.22546228720302     -2.15375491589290     -1.35129797205653
  C   -0.64365798933082      1.23799897942028     -1.01090895953510
  N   -1.08396693297347      2.21219074686749     -1.50399216184052
  C   0.49366272091127     -1.17289245864574      1.73504623383389
  H   1.56018177237642     -1.28799315629354      1.51254841448957
  H   0.35029416702402     -1.09009640732692      2.81383942394295
  H   -0.04256148788396     -2.06092728876818      1.39361135099596
  C   0.41462371405922      1.30598443880225      1.59691982800671
  N   0.78990902592231      2.30644537674569      2.09301038542845
