16
Coordinates from ORCA-job run
  C   -0.14337921920760      0.02922935538361     -0.37067467330488
  C   -0.14368206388469      0.05453759644172      1.10835511165636
  F   1.17753362091180     -0.03675368743525     -0.95579188082418
  H   -2.24595894482077     -0.72030880172608      2.14893947943452
  H   -1.31216377496974     -0.11136109162476      1.49643901038394
  C   -0.82981111256371     -1.17414332432554     -0.88029067307339
  N   -1.36544716218851     -2.13034927044128     -1.30370829359917
  C   0.41209507493104      1.32775491625159      1.71399591449505
  H   -0.06535234877795      2.22650474452429      1.30964920448579
  H   0.20468971462828      1.28930810369072      2.78718984760735
  H   1.49729440261546      1.41038260501080      1.58150699030223
  N   0.45136404993538     -1.13738129487600      1.68635431189405
  H   1.01324557416240     -1.65698942883535      1.02386885177989
  H   -0.33459146388961     -1.71416916650949      2.00684483601693
  C   -0.76331571709701      1.22969768217970     -0.95873667046054
  N   -1.25849062978477      2.18661106229131     -1.42826136679395
