16
Coordinates from ORCA-job run
  C   -0.36362944534188     -0.01596723598789     -0.26786826548836
  C   -0.17155511817463     -0.05096608165418      1.13259798842371
  Cl  1.62522676009492      0.32202893172924     -1.30870461847696
  Cl  -2.69359730117808     -0.10099771211394      2.56467490300716
  H   -1.42099558435697     -0.14719406590826      1.57062234809817
  C   -0.71570592990698     -1.24384550205156     -0.93408968899689
  N   -1.04255368073984     -2.25661428803796     -1.43934601945555
  N   0.29675196320233      1.17306363315424      1.72639969154897
  H   -0.42888294385313      1.59358944555747      2.29618684724368
  H   0.59903397483949      1.82951865634498      1.01600569949758
  C   0.46449998915530     -1.28898739101534      1.71954349138669
  H   1.52483061617273     -1.29644181000045      1.44580401743700
  H   0.37612488700665     -1.24286179667385      2.80600772603813
  H   -0.01347238496862     -2.20471375803147      1.36561459856211
  C   -1.01109247152759      1.15701218696237     -0.80372198695447
  N   -1.57882333042373      2.10938678772662     -1.20188673187095
