13
Coordinates from ORCA-job run
  C   -0.29328872535091      0.07474252498253     -0.35869742752103
  C   -0.14017320261310      0.07276405365496      1.04533287735461
  Br  1.88726712215424      0.26251633012028     -1.44596988033738
  Cl  -2.63752748983627     -0.63372182233410      2.36342055530237
  H   -1.38546068772731     -0.14634313038029      1.50642503147968
  H   0.03447397626396      1.06519424516357      1.46950607635215
  C   -0.62613371328588     -1.18432378852687     -0.97918088318850
  N   -0.94321270566039     -2.22637889353866     -1.42849387858282
  C   -0.90921712481054      1.23318728837591     -0.95231951955111
  N   -1.45763110765704      2.18317054065539     -1.38229944869503
  N   0.63034104090356     -0.98571771736560      1.62891514880855
  H   0.03194404756155     -1.68999243113756      2.04373528526494
  H   1.22557857005812     -1.40943719966958      0.92503606331358
