14
Coordinates from ORCA-job run
  C   -0.22110724423484      0.00862011180971     -0.20197739034737
  C   -0.02169913642070     -0.15584451598197      1.27782502378642
  Br  1.40137567372483      0.66246733047848     -1.14782148691494
  H   -2.14172077004673      0.62086979199997      1.14954321969423
  H   -1.29572602495510     -0.03146697707210      1.48277554851882
  C   -0.60409015048145     -1.24138080901945     -0.84572083035115
  N   -0.94179076613083     -2.25007421676313     -1.34863631438996
  N   0.45997522690043      1.01245600029461      1.96748157238813
  H   -0.31833755079175      1.67151786356483      2.00503730523345
  H   1.21768672464674      1.44987403599349      1.45361775962126
  C   0.57551747219524     -1.38942949902052      1.69400275575748
  N   1.03314419649115     -2.40931567006394      2.07255739531134
  C   -1.33366784309380      1.04677659247087     -0.46399007913695
  N   -1.72430980780321      1.86385996130914     -1.23711447917076
