12
Coordinates from ORCA-job run
  C   -0.27638973310815      0.02350987996820     -0.33897815388948
  C   -0.13490299925526      0.03959844670020      1.09067800063914
  Br  1.65721747287300     -0.19185287392500     -1.45738073410568
  Cl  -2.85964908694407     -0.14957586938889      2.28607897308791
  H   -1.53582716975595      0.02525844011007      1.63885231628863
  H   0.18274279087111     -0.91056469156058      1.51891391912329
  C   -0.76295837842948      1.26013194789790     -0.92636018393162
  N   -1.18892035741623      2.25512194478419     -1.38827676908047
  C   0.49746961710946      1.18492187627849      1.66668639551834
  N   0.98916403503195      2.12688339467194      2.17495778613531
  C   -0.97329440938937     -1.14664052484024     -0.84606946421633
  N   -1.55208178158700     -2.09846197069629     -1.22506208556906
