16
Coordinates from ORCA-job run
  C   -0.17290104621064      0.09612226774678     -0.37513577225356
  C   -0.00288517943347      0.03295429499495      1.04546992487130
  Br  1.79860601899355      0.16836861660998     -1.46543985347602
  Cl  -2.65474741692553     -0.14110116166208      2.37954093598233
  H   -1.42008697039036     -0.00000439069920      1.62548056362717
  C   -0.70608146811338     -1.13651222208048     -0.93295004131342
  N   -1.16533989226775     -2.12949614518799     -1.36727009958293
  C   -0.84560350800910      1.24004107675914     -0.96892783745065
  N   -1.47717880523792      2.06553370787159     -1.52160008009882
  C   0.55689692348113     -1.22221451377127      1.65275770081403
  H   1.63472817004686     -1.29051007725266      1.46389816794517
  H   0.38767962685446     -1.21760664692269      2.72829632520625
  H   0.06375802398220     -2.09862734716395      1.23017125201827
  N   0.52265713260783      1.24480959021965      1.64221698132974
  O   0.98258969859383      1.16078530447159      2.78732738478359
  O   0.45643869202829      2.30017764606664      1.00367444759755
