16
Coordinates from ORCA-job run
  C   -0.22989516697588      0.03680064318265     -0.29896607980509
  C   0.37883837309208     -0.10231287053882      1.06604723863935
  F   0.53340547023040      0.96878544068285     -1.01381889547664
  H   -1.38748758622985      1.24345684711293      1.23277435764372
  H   -0.46810392630517      0.79395374429664      1.56747252947989
  C   -0.25361497662857     -1.19020001063113     -1.09529831153006
  N   -0.20921236807698     -2.12881658264558     -1.80144238526135
  C   -1.66897903515025      0.67703041745634     -0.22394064357256
  N   -2.62057935403298      0.82455967851130     -0.92796517319614
  N   -0.03195732920732     -1.30632888433268      1.69564741736324
  O   -1.16514711246902     -1.72887417981490      1.38141593798320
  O   0.67310747412852     -1.81525239231174      2.58701613847822
  C   1.81110649438469      0.28962218671355      1.28647957629860
  H   1.98249660256109      1.28786596276956      0.88312643612036
  H   2.02099556771329      0.29960241898845      2.35687845085481
  H   2.51237687296596     -0.40604241943942      0.81231340598045
