14
Coordinates from ORCA-job run
  C   -0.08521308162475      0.04457801699458     -0.43315424791050
  C   -0.19710153719151      0.01255624539829      1.04087071531332
  F   1.26199259420093      0.01022268734589     -0.93492552790985
  H   -2.55848337464929     -0.22296791149386      2.01797607655578
  H   -1.37669439451820     -0.01724718499079      1.39565501542407
  H   0.20451882933247      0.94800488362467      1.44495563860710
  C   -0.66446032986601      1.28629346018969     -0.98142377522338
  N   -1.10282027513656      2.28817127330979     -1.41070168801975
  C   0.40966293065819     -1.21622410833993      1.68948504749776
  H   1.50270963764046     -1.24990521962915      1.64183999066017
  H   0.09116239227182     -1.23334170021766      2.73712203604595
  H   0.01316863539124     -2.12886275356726      1.23395823548165
  C   -0.74342414574842     -1.11938036060004     -1.06256380567548
  N   -1.24520788076038     -2.05258732802422     -1.56969371084683
