16
Coordinates from ORCA-job run
  C   -0.29288912077837     -0.00260010162354     -0.34179283963749
  C   -0.24350613369989      0.04757314832951      1.06374258648708
  Cl  1.94733528374180      0.11880295151255     -1.06610654425192
  Br  -2.92984185350636     -0.00930062131908      2.47173200700890
  H   -1.54225066255110      0.01267088974393      1.43985996209729
  C   -0.61391600247802     -1.25425993596882     -0.96982592107373
  N   -0.92084126475377     -2.28523251245525     -1.45141028511449
  C   -0.73816176487086      1.16637540502025     -1.05208107725691
  N   -1.16526731733313      2.08750553088858     -1.64973072339967
  N   0.17252144070662      1.32956405369877      1.53316246006103
  H   1.13299006769903      1.48921166295991      1.23684455391028
  H   0.09341395502674      1.38503285681432      2.54032934436379
  C   0.27290154898431     -1.18197842104229      1.77938982796979
  H   1.34776111708862     -1.26645227444357      1.58317694561903
  H   0.09724430817180     -1.07678490686453      2.85231825367714
  H   -0.22860360144748     -2.09130772525083      1.44236144953986
