14
Coordinates from ORCA-job run
  C   -0.20814514302660      0.03758445561740     -0.28227718138638
  C   -0.09114062558345      0.03931487318773      1.18841273783135
  Cl  1.47188976627517      0.06927070963978     -1.22024779762664
  F   -2.59782320073797     -0.11666927202951      1.20628081486344
  H   -1.36522243891377      0.02437957812636      1.39951166815728
  H   0.36871603576535      0.97861497638429      1.51006190305553
  C   -0.85026322187964     -1.17361152456607     -0.80349508202686
  N   -1.28765487070891     -2.16868451066270     -1.24894898421580
  C   -0.89330006572073      1.23267279582987     -0.77905199824518
  N   -1.38466791666966      2.21681959926844     -1.19126277562995
  C   0.57511776242936     -1.19450000805875      1.76264790381026
  H   1.58388528927266     -1.37163493672485      1.36655873695206
  H   0.65152397816224     -1.09869507825151      2.84961471770576
  H   -0.03206534866403     -2.08196165776048      1.56064533675513
