13
Coordinates from ORCA-job run
  C   -0.37196390552918     -0.00985143235686     -0.29730507238577
  C   -0.24931262405716     -0.05335674404201      1.09656571656722
  Cl  1.85598446824725      0.19960684553403     -1.14070841348984
  Br  -2.84692154856869     -0.21525211736676      2.66380128757321
  H   -1.55593021150032     -0.12441185246215      1.58070553116315
  H   0.07126573193873     -1.02574438884955      1.48649551083907
  C   -0.72223932479789     -1.22573965606568     -0.97441488644395
  N   -1.04858596917785     -2.23465626513817     -1.48794494966313
  N   0.24645633990417      1.13865743657115      1.68125270080994
  H   0.29291304056831      1.06810166374950      2.68762176472479
  H   1.15878754529991      1.34400135608515      1.28149546643187
  C   -0.83402151627446      1.20585864063527     -0.90953061333037
  N   -1.28816202605283      2.17298651370604     -1.40564404279621
