11
Coordinates from ORCA-job run
  C   -0.22359734776129     -0.00229600438351     -0.28156636053611
  C   -0.12639315914760     -0.00680414432802      1.19275847566299
  Cl  1.45029284467192     -0.00102627084379     -1.19967521165767
  F   -2.63268239922683      0.02238276609922      1.17796701606600
  H   -1.41208103766944     -0.01962276943868      1.40811417076939
  H   0.35093486267687      0.90825606562582      1.54936618209911
  H   0.39751921671756     -0.89845287547483      1.54325886545149
  C   -0.88918474645827     -1.20360290899040     -0.79715450959540
  N   -1.35416763861913     -2.19254804614057     -1.22734495344543
  C   -0.88940360950003      1.20115179891260     -0.79150191856975
  N   -1.34900698568374      2.19264238896218     -1.22161175624461
