16
Coordinates from ORCA-job run
  C   -0.31521061114654     -0.01316597287601     -0.30297350029550
  C   -0.17417109165792      0.06206254720626      1.11139992350348
  Br  1.83708690277735     -0.14328486330972     -1.34158709527076
  Cl  -2.68029785235007     -0.05346768987517      2.58966738152257
  H   -1.39107022064950      0.06508469510283      1.49840601406843
  C   -0.83413651649170     -1.25130120728427     -0.83482866274802
  N   -1.28409568245693     -2.27334123874625     -1.21149296927874
  C   0.35274003185620      1.36237108563873      1.67404427499177
  H   -0.20534974560999      2.22284567017700      1.30050789973431
  H   0.25980683744051      1.33680917814314      2.76122466424919
  H   1.40907760660870      1.45113049606548      1.40059690519958
  N   0.41780524043780     -1.08602038764552      1.73979139433854
  H   0.46391061501403     -1.87727856352833      1.10861169204182
  H   -0.14760539830495     -1.34641054925820      2.54221446191740
  C   -0.79444389440728      1.16543875955512     -0.97996947016438
  N   -1.22059622105969      2.13322804063492     -1.49967291380968
