12
Coordinates from ORCA-job run
  C   -0.23707435846565     -0.01453512775775     -0.31309705361951
  C   -0.15952540323297     -0.04399898398130      1.20427339202194
  Cl  1.42604443598546      0.00940372510468     -1.09289635148854
  F   -2.60372696635051      0.06848891375516      0.85647643619945
  H   -1.37528750079951     -0.03421981144787      1.37319437017521
  H   0.29612311733982      0.88207028765917      1.56210640592461
  C   -0.90853382530209      1.21043656935283     -0.76393857315666
  N   -1.28774382948446      2.23591583405447     -1.19353066846620
  C   0.53355974722991     -1.20117350980897      1.71068702074828
  N   1.07353065135045     -2.14313219253046      2.16542573217006
  C   -0.92001029852721     -1.19715256761699     -0.84750676343257
  N   -1.38772576974324     -2.14486313678297     -1.35970394707607
