15
Coordinates from ORCA-job run
  C   -0.14282892342568      0.00443568028352     -0.42651655366013
  C   -0.23857865258574     -0.09728088177866      1.05210664408421
  Cl  1.65007120232867      0.05714547822241     -1.07437479288614
  H   -2.07268475493202     -0.04246285860922      2.65387288528642
  H   -1.36561185560502     -0.07826502684501      1.42826490950926
  C   -0.74250087023548     -1.15532571770541     -1.08056833821288
  N   -1.25648347767506     -2.04276670844844     -1.65479835648582
  C   -0.74425198443331      1.23855968975350     -0.93401554446430
  N   -1.23448353902143      2.23767818172155     -1.31398140989326
  N   0.21905589296880     -1.38261635041109      1.50450777176079
  H   -0.36932459827706     -1.59920179140333      2.31172277406768
  H   1.17353576693231     -1.27314760880525      1.83207245770168
  N   0.40640295012726      1.00747590749759      1.74759773468595
  H   -0.19784061408118      1.12616700587996      2.57105562495316
  H   0.32132345791494      1.86662500064786      1.21002419355338
