15
Coordinates from ORCA-job run
  C   -0.23182950781355     -0.02148964320015     -0.30893330547544
  C   0.32665964074471     -0.12562688284090      1.07150377108932
  Cl  0.75451614414628      1.18457769389012     -1.21475609037119
  H   -1.31845692574851      1.35115382962323      1.12125889730345
  H   -0.45708693875677      0.91924732834672      1.50402966109764
  C   -0.27526831419961     -1.25520907755954     -1.07386599773177
  N   -0.28600736778374     -2.23100244180365     -1.72977728804457
  C   -1.66908352470291      0.62881556372890     -0.22936534061999
  N   -2.67449203167834      0.67817485611486     -0.86983833091245
  N   -0.10197954339766     -1.27441165215055      1.79117970081653
  O   -1.23047998022145     -1.69738378835374      1.48625311563354
  O   0.59097210791121     -1.69637782470856      2.72715467474789
  N   1.76431344077446      0.10848303072400      1.26563735589889
  O   2.54303777248449     -0.67830066890110      0.72523516594306
  O   2.09305502824139      1.06994967709037      1.96045401062508
