17
Coordinates from ORCA-job run
  C   -0.18872076821095      0.01814872531845     -0.27142659389470
  C   -0.03322716369137      0.02651812309511      1.20098303211748
  Cl  1.47611575856090     -0.00723729114861     -1.24450643232199
  F   -2.55027579310190      0.07520047888855      1.23199461523927
  H   -1.29283088616296      0.04314008781159      1.41461538369472
  C   -0.87740507900159     -1.17794715829838     -0.76389271859592
  N   -1.36329518799366     -2.16290108900054     -1.18134559942091
  C   -0.85094656419340      1.22129938944377     -0.78297326547688
  N   -1.30985996118318      2.21160892398842     -1.21794189460071
  C   0.60797040196129     -1.24156517919393      1.72808872488270
  H   1.64507087923836     -1.36369006389952      1.38270116829060
  H   0.62060979761357     -1.21358990147953      2.82222922950967
  H   0.04175525522180     -2.12929435780585      1.43274376855261
  C   0.62851369975357      1.29024637041852      1.71206889268809
  H   0.63008935035203      1.28144504464713      2.80661707021036
  H   1.67105399623121      1.38618558041087      1.37471811548122
  H   0.08241226460628      2.18333231680396      1.39593650364440
