14
Coordinates from ORCA-job run
  C   -0.21281419602454      0.01638650965100     -0.32817332245564
  C   0.37315222866362     -0.10721943477781      1.05365994201524
  F   0.57477732473182      0.92129543179741     -1.03262930560262
  H   -1.39732749126460      1.21461025872088      1.08782543637946
  H   -0.44585556584393      0.82675824512976      1.53450946094674
  C   -0.27783968339800     -1.22528480390886     -1.09247867575062
  N   -0.30899681686713     -2.18826863265524     -1.76529919834035
  C   -1.64503105232018      0.70350094479231     -0.21580283481517
  N   -2.58405076815337      0.85269993893553     -0.93858421380510
  N   -0.05973371710423     -1.29299337830524      1.75528449923726
  O   -1.19359097768858     -1.69338913229269      1.45239992848834
  O   0.64509141754246     -1.76471743272015      2.65260812279477
  C   1.75184085470936      0.22110213686416      1.23302657825104
  N   2.87694844301728      0.53604934876894      1.38360358265666
