13
Coordinates from ORCA-job run
  C   -0.26511122256255     -0.21866697393892     -0.29609175999299
  C   0.07743442298764     -0.15827978785834      1.16795841086183
  Cl  0.44382375937011     -1.70061995641657     -1.01451384278555
  H   -1.91438698531055     -1.09662123406641      0.86885910532327
  H   -1.05565872657208     -0.92416039824625      1.45625234990562
  C   -1.86240083703153     -0.41467020620978     -0.41528707104451
  N   -2.72883043679336     -0.13142670457133     -1.18545097956487
  C   0.14405602717953      0.93618400867436     -1.06980608697910
  N   0.45852958517654      1.87250609818302     -1.70863312926052
  C   -0.18950698130967      1.12282258361812      1.76215023260432
  N   -0.45904050745314      2.15117311605920      2.27125661267754
  C   1.26100775906519     -0.79757759344264      1.65376121322697
  N   2.20955414325386     -1.33636295178449      2.10175494502799
