14
Coordinates from ORCA-job run
  C   -0.21972131873885      0.01651791325898     -0.32366469545192
  C   -0.11650496953200      0.05760275846818      1.11137969498573
  Br  1.82270856316128     -0.25334213158026     -1.29684537073953
  Cl  -2.86874072712519     -0.25580869477228      2.10127115231742
  H   -1.50955976695269      0.04806205337569      1.51864938187869
  C   -0.85291378322831     -1.18558882121850     -0.83222669142129
  N   -1.38843271962352     -2.16306505051355     -1.21140063427100
  C   0.40924331840103      1.28891272150888      1.64108341636068
  N   0.80974753116423      2.31076911006163      2.06804047919101
  N   0.34920160798344     -1.12182855305094      1.78530882925901
  H   1.15088579513589     -1.50368247964689      1.28881679679597
  H   -0.38765394841952     -1.81702230781152      1.82403542029813
  C   -0.67363812265016      1.22723467710758     -0.97478945353762
  N   -1.07386145957565      2.20707880481300     -1.49047832566527
