16
Coordinates from ORCA-job run
  C   -0.29906296660744     -0.04316304092944     -0.30572559521089
  C   -0.14673534215061      0.06243517733856      1.09774901038258
  Cl  1.71425352923040     -0.17242270875412     -1.31181220623467
  Cl  -2.67461082755233     -0.04611072424098      2.51931055964757
  H   -1.39717556200950      0.06498243017530      1.49220171771656
  C   -0.80640716122229     -1.29693141925564     -0.80981437502534
  N   -1.24786896472942     -2.32834784364523     -1.16933706052349
  C   0.35649908814097      1.37861680947764      1.64292981677676
  H   -0.19958193506728      2.22704631089774      1.24010134149291
  H   0.24439009042831      1.37498952315264      2.72858409543838
  H   1.41687629928605      1.47260022415195      1.38894719428110
  N   0.43442631361371     -1.07241408461538      1.75736305309408
  H   0.56270182748125     -1.85053458313830      1.12165546618812
  H   -0.16906984438197     -1.36535988333932      2.51919162235272
  C   -0.78679504423764      1.11598867536086     -1.00861583128683
  N   -1.22743950022220      2.06541513736375     -1.54921880908958
