11
Coordinates from ORCA-job run
  C   -0.23379794369762      0.02372505446758     -0.28305599055258
  C   -0.20276155320350      0.14365738559213      1.15922423683795
  F   0.77576331781442      0.73361355258759     -0.98811960141269
  H   -2.30890334890540      0.95980640150168      0.69186788326774
  H   -1.59895376838314      0.57864462087101      1.21157733100638
  H   0.10052895814448     -0.74409802515672      1.70708699903615
  C   -0.16069580224451     -1.37558032864384     -0.70980866093453
  N   -0.10119558151403     -2.50335203322644     -1.03870645043830
  C   -1.55268607607065      0.63749811581104     -0.99349638680204
  N   -2.02771792323936      0.82265258358880     -2.06815502777570
  H   0.27969972129929      1.06152267260717      1.49660566776762
