12
Coordinates from ORCA-job run
  C   -0.18078818793685      0.01225816311283     -0.26105282040942
  C   0.22408883945030     -0.20311275421203      1.15406372133481
  Br  1.10785898531270      1.28513665207109     -1.05832296186645
  H   -1.28522964577796      1.47866149895929      1.07825650935119
  H   -0.58530720115721      0.93755206296635      1.51937017217198
  H   1.26109100213380      0.00489213310763      1.39596908217310
  C   -0.21489087194406     -1.16607678337698     -1.10220688769018
  N   -0.25488101088606     -2.12250137420611     -1.78733154498769
  C   -0.32028169653520     -1.35945159663404      1.78575980218811
  N   -0.79194613649238     -2.27719665317841      2.35979720258129
  C   -1.58618256825762      0.76008049742022     -0.36937597949128
  N   -2.54891150790946      0.81056815397020     -1.07215629535547
