16
Coordinates from ORCA-job run
  C   -0.14526510809868     -0.02435653095569     -0.44071407339905
  C   -0.29979051029210      0.00710977023149      1.05033190124466
  Cl  1.65449797099272      0.00341755473655     -0.99328104717189
  H   -2.32304214049359      0.39205384038388      2.47823369960155
  H   -1.43717708041751      0.00138572355153      1.36402650315639
  C   -0.69785797505332     -1.24564183385391     -1.03171356921688
  N   -1.15059734977251     -2.23074222800496     -1.48646702569658
  C   -0.75599375162146      1.14712270633314     -1.06989083981359
  N   -1.26600596923042      2.06415950919653     -1.59893051720426
  N   0.10823670878257      1.29837440809722      1.55238939557781
  H   1.00820098927334      1.23674491267538      2.01476799247209
  H   -0.61211411829371      1.52397289259085      2.25179183352032
  C   0.31165613081174     -1.18653964166654      1.75564829537709
  H   1.40556014627957     -1.12167770142860      1.78981826565671
  H   -0.08515704882042     -1.17562768097038      2.77585501887266
  H   0.03468910595381     -2.13988570091649      1.29453416702296
