13
Coordinates from ORCA-job run
  C   -0.17744113910095     -0.00973923666762     -0.33175619445255
  C   -0.17940384988123     -0.06411240311870      1.12639458636493
  Cl  1.61130800141652      0.08801313495875     -1.14708902949916
  F   -2.65525243219937      0.40759271377684      1.49133736450979
  H   -1.52186255845575      0.07842334215890      1.39380756120416
  H   0.27403492385253      0.83553547816137      1.55279797524647
  H   0.28635280494324     -0.96808841033509      1.52382661065461
  C   -0.69065963907985     -1.24636368067287     -0.92433122973280
  N   -1.12494508183549     -2.22659564491855     -1.40654807273697
  C   -0.90277165860989      1.20372176600766     -0.89414196062982
  H   -0.92976275082609      1.19224276238165     -1.98474154241672
  H   -1.90565397019886      1.18950721861490     -0.46315715032486
  H   -0.38623265002483      2.10531295965277     -0.55817891818706
