15
Coordinates from ORCA-job run
  C   -0.39821832047923     -0.00137310818445     -0.24392149684385
  C   -0.16228751106748      0.04850709841252      1.12276679588161
  Cl  1.76284343151160     -0.10642567651664     -1.33673097939681
  Cl  -2.90631215225036      0.20884575352362      2.24050076779385
  H   -1.56381360443057      0.11851942981365      1.57626216645081
  H   0.13427778824603      1.02404412346699      1.51012654235746
  C   -0.78923249226645     -1.28614497718220     -0.76710986313951
  N   -1.19828596305907     -2.32585440057903     -1.14083213414920
  N   0.38934259718053     -1.07141290817397      1.83647379421861
  H   1.21671720494247     -1.37186020650857      1.32343470571068
  H   -0.26734468547069     -1.84401511549006      1.82781574752404
  C   -0.93954964133366      1.19778865819323     -0.96676840213763
  H   -0.79951602338508      1.09186337940073     -2.04079021938215
  H   -2.00806647972747      1.30447983229054     -0.74272867924039
  H   -0.41178414841058      2.09244811753365     -0.63415874564751
