18
Coordinates from ORCA-job run
  C   -0.35873407693565      0.00445889397884     -0.32444108277145
  C   -0.24663507771936      0.01598133914531      1.07086109706201
  Br  2.05258055425140      0.12329929458076     -1.13292585090795
  Cl  -2.93100649127570      0.08643744286243      2.21259006914174
  H   -1.56335996276097      0.01197867914228      1.40671781292312
  C   -0.86824623447667      1.21253498599015     -1.06187054047337
  H   -0.69380668174690      1.10934917772329     -2.13207450559555
  H   -1.94723100638655      1.29364458188718     -0.87168089073920
  H   -0.37932863506306      2.10923112704062     -0.69241610237870
  N   0.19030263523542      1.28260033548437      1.58933528539222
  H   1.16679447676009      1.39783878962069      1.31672924794160
  H   0.11680932084553      1.28342000797799      2.59925804622853
  C   0.26235551798418     -1.22341522121154      1.76979398276702
  H   1.34472104482510     -1.29126374413430      1.60583303868020
  H   0.05786105833392     -1.15251411448398      2.84183390280822
  H   -0.21103002409293     -2.13287580271345      1.39462792147611
  C   -0.68141698977567     -1.25810068182041     -0.93657036559682
  N   -1.01250942800218     -2.27117509107020     -1.44014106595773
