13
Coordinates from ORCA-job run
  C   -0.39821500564318     -0.05419457221592     -0.18659359407353
  C   -0.31925174902735      0.26220802162091      1.28917771312097
  F   0.82299453693251     -0.70261836183933     -0.51699801272045
  F   -2.22953230524598     -1.40954835043771      0.97153616044190
  H   -0.25631358067958     -0.66620019097200      1.84712060782149
  H   -1.23057137291346      0.76419991840564      1.60911427061353
  H   0.55562279129136      0.89765589620419      1.47445873610205
  C   -1.51416373038087     -0.95499617247108     -0.63995691575320
  N   -1.97061977817644     -1.35154346815144     -1.66639962473669
  C   -0.43348578441275      1.20436779542750     -1.04110233425805
  H   -0.41242549362429      0.91660122747222     -2.09202439281168
  H   -1.35748201524167      1.75571261221502     -0.85197365758361
  H   0.42499348712168      1.84330564474204     -0.80991895616274
