16
Coordinates from ORCA-job run
  C   -0.16634147272089      0.02265322685276     -0.35237580808476
  C   -0.16899519745236     -0.01913086638365      1.11087015515422
  Cl  1.64134948177148      0.13710044003402     -1.13674106283114
  H   -2.65183430552743      0.27654646510669      1.71739038299587
  H   -1.37014828576326      0.07157288805492      1.40265132393870
  H   0.24109679378689      0.91818529458962      1.50277388428530
  C   -0.66867449306553     -1.21750112771779     -0.93953983825542
  N   -1.09883996033889     -2.20924424532831     -1.40258211080180
  C   -0.92172559734157      1.22016243625023     -0.88258895828593
  H   -0.96124679313397      1.23201374066170     -1.97306173438158
  H   -1.93281259137388      1.16744203363958     -0.45010135923494
  H   -0.44181794805998      2.13446498958757     -0.52862287248887
  C   0.43244483586685     -1.23979023272005      1.77202666705396
  H   1.49850337737026     -1.35966930599660      1.54725158527180
  H   0.31352512156907     -1.16474744833753      2.85737232616250
  H   -0.08801296558679     -2.14781828829315      1.45378741950209
