13
Coordinates from ORCA-job run
  C   -0.28396206109552      0.01978876401507     -0.31894661179982
  C   -0.17980960842412     -0.06020315784651      1.05758502836343
  Cl  1.91795885141793      0.02160702766008     -1.37999022569190
  Cl  -2.97795040796308      0.28905658070096      2.05612416072182
  H   -1.65514954736536      0.06868853900966      1.46053319651909
  H   0.15734818692343      0.83004600765780      1.58182756706143
  H   0.08275181628110     -1.01282379842570      1.50671934928552
  C   -0.71341181551271      1.30864651640611     -0.96698751825640
  H   -0.54581406492872      1.27913743269219     -2.04088726954585
  H   -1.77898196280050      1.47132116542886     -0.76101328427705
  H   -0.13700316089475      2.13470325729130     -0.54985497678590
  C   -0.68516626027810     -1.18184476364541     -1.00908987994139
  N   -1.10648996535960     -2.14666357094442     -1.53671953565297
