18
Coordinates from ORCA-job run
  C   -0.19642189862112     -0.01507134624705     -0.27990269589077
  C   -0.12778119740857     -0.02913246650732      1.17982387795751
  Cl  1.60997314971919     -0.10393291325580     -1.14064025621293
  F   -2.55934586041283      0.58526614727147      1.58130344309180
  H   -1.43194098548530      0.16669844781408      1.44226867710233
  C   -0.79180136872263     -1.25065502721231     -0.78602008654149
  N   -1.29628395293673     -2.23685035479571     -1.18124622513036
  C   -0.84626084091313      1.20809776517273     -0.90055034159106
  H   -0.97311111684837      1.08400998055258     -1.97694849961292
  H   -1.80882635054727      1.32800790690034     -0.39664966935838
  H   -0.22434801146903      2.08488623773677     -0.72030779018697
  N   0.40594893799933     -1.24989141762601      1.76972355703194
  H   1.25830653971430     -1.52260482993802      1.28142037181111
  H   -0.26174496566861     -2.00257485478260      1.65059962006507
  C   0.50458820614407      1.20263285462617      1.79381220458427
  H   0.50599365994754      1.06915904157165      2.87733674268805
  H   1.54236525938613      1.35352708299980      1.46023613581975
  H   -0.07620920387694      2.10028774571924      1.57041093437305
