15
Coordinates from ORCA-job run
  C   -0.32887604000306      0.04114235586217     -0.24763732516648
  C   -0.00728916529380      0.04892844021913      1.23060870866496
  Cl  1.02561696085684     -0.55525645359882     -1.25199403120729
  H   -2.08362345809360     -0.74094254738137      0.89545609189449
  H   -1.25811690065705     -0.30245843501994      1.52098288654236
  C   -1.58067665385064     -0.89647325839634     -0.47851494063184
  N   -2.07996040604590     -1.48051860651558     -1.39459462009172
  C   0.30284212690480      1.31119261271100      1.83332468215579
  N   0.51635777108749      2.36129375673492      2.32739048093563
  C   0.81739601397835     -1.02751606109584      1.70998578727532
  N   1.45424983130768     -1.92412799637701      2.13223118378335
  C   -0.75130066592820      1.41485999949171     -0.74306179353366
  H   -1.05992902262409      1.32856614135223     -1.78590467627341
  H   -1.60571031972831      1.75970929515685     -0.15217962155534
  H   0.06066992808951      2.13942075685690     -0.65111281279216
