16
Coordinates from ORCA-job run
  C   -0.17221504598553      0.01007462369225     -0.33274941626545
  C   -0.07601716890411      0.03113346192431      1.17682802293336
  Cl  1.49984389163607     -0.15386180862837     -1.13238776621802
  F   -2.57246629638812     -0.05277440490567      1.35003821552687
  H   -1.34893210595274      0.12274240844651      1.41529988066659
  C   -0.89159430645079     -1.19535095191346     -0.75850297687703
  N   -1.42459738058626     -2.16613924246336     -1.15051425118679
  C   -0.84294018629979      1.25556643407213     -0.88725081679886
  H   -0.91842993795564      1.21040742291776     -1.97507659555017
  H   -1.83365772027211      1.29022421978073     -0.42964223896988
  H   -0.26563175733796      2.13621844671551     -0.60061028779985
  N   0.36818216138082     -1.19486699743996      1.80901115065528
  H   1.12071617545569     -1.63286793357625      1.28645287380496
  H   -0.42013475473956     -1.82944473060523      1.84608174248067
  C   0.65885092520607      1.18594291656027      1.63576136285413
  N   1.21851350719397      2.14951613542282      2.02002110074418
