15
Coordinates from ORCA-job run
  C   -0.19225909682878     -0.00625455923772     -0.33713090570013
  C   -0.17691880875467      0.00440075141076      1.13101570159101
  Cl  1.61128335731161     -0.05364504405026     -1.12820345355856
  H   -2.66706990935431      0.29590898639886      1.65076604581512
  H   -1.38179793596294      0.14512037978257      1.41135116569861
  H   0.30173532261467      0.91926793631783      1.49630150537275
  C   -0.77459321535680     -1.24290372963477     -0.85104413336974
  N   -1.26948490687721     -2.23286577246507     -1.24829260418746
  C   -0.88300823648831      1.21215199847451     -0.89826545053979
  H   -0.92161510904467      1.20031729487858     -1.98841373069881
  H   -1.89693854336295      1.21485947218187     -0.46860472280459
  H   -0.36039357349082      2.11034145692768     -0.56406046540194
  N   0.30604712563085     -1.17712249215142      1.81567992937872
  H   1.07712071740508     -1.60039645004326      1.30962177849857
  H   -0.44954718744075     -1.85210022879017      1.86393933990624
