13
Coordinates from ORCA-job run
  C   -0.20559892212405     -0.00467577307525     -0.32167740753943
  C   -0.18239540314988     -0.05411902927394      1.13527456583228
  Br  1.75146569701841      0.08930614071048     -1.22577511589971
  F   -2.67860543887556      0.37777499681429      1.42577422149174
  H   -1.47101075842986      0.06860230745633      1.38674103745036
  H   0.27630017547866      0.84332269342817      1.55862360767273
  H   0.27200711823597     -0.96223836990844      1.53444935908698
  C   -0.70805171826316     -1.24293199405679     -0.91114740717770
  N   -1.14328476494228     -2.22709319785258     -1.38598550495618
  C   -0.92866778612676      1.20914932649477     -0.88120606604567
  H   -0.96290873664483      1.19930555231238     -1.97121724254259
  H   -1.92755627939174      1.17921535050827     -0.43717040258758
  H   -0.41814318278492      2.11362199644230     -0.54402364478525
