15
Coordinates from ORCA-job run
  C   -0.19266646749297     -0.00892611825046     -0.39240324298952
  C   -0.31252143886414     -0.00286033287081      1.06947951440546
  Cl  1.66515532713396     -0.00332938743313     -1.03456631470083
  H   -2.54738982500484      0.56969858309818      1.90283983642836
  H   -1.54078556305069      0.07082364998932      1.34373471366107
  H   0.06981567126849     -0.92578880862813      1.52034972557124
  C   -0.70667813501574     -1.25680433213207     -0.94907812785174
  N   -1.15844543173584     -2.24640400085227     -1.39632737356238
  C   -0.82962863227187      1.20480236995295     -1.03345864283064
  H   -0.76309737653848      1.16932458372693     -2.12187025604573
  H   -1.87747308869136      1.23788140220035     -0.71022273473321
  H   -0.32571057899297      2.08878145527741     -0.64657542047525
  N   0.13020057291926      1.23470769214777      1.67576911087591
  H   0.94523355732459      1.08590736537899      2.25463469339007
  H   -0.64881859098739      1.54369587839496      2.26691451885719
