18
Coordinates from ORCA-job run
  C   -0.35488473917166     -0.03454370766265     -0.27997188925477
  C   -0.10335277052891      0.05722380646340      1.08899307074838
  Cl  1.75682698092294     -0.15408178116779     -1.42566390426865
  Cl  -2.74891653965063      0.14297648935153      2.32063610569407
  H   -1.43975919920318      0.07514808443748      1.45450290000294
  C   -0.78931452504451     -1.32197729297843     -0.75360493737068
  N   -1.21383489321187     -2.36528874488196     -1.10186258865264
  C   0.34516430736175      1.37553484683694      1.66731971895901
  H   -0.30705573914975      2.19970194427188      1.37498961949994
  H   0.33947553661193      1.30898810484615      2.75699634712417
  H   1.36800238938264      1.56696886807307      1.32542149455041
  N   0.46459429379533     -1.06698150408036      1.76652999161756
  H   0.57177439577061     -1.85659836757960      1.14151900140535
  H   -0.11822301136460     -1.33830511298117      2.55173412819042
  C   -0.87718085741239      1.14735969226453     -1.04961165794101
  H   -0.92227295726480      0.90986292013163     -2.11117031075196
  H   -1.88143416090466      1.40654653418359     -0.68900820329718
  H   -0.21192851093823      2.00041522047175     -0.92579888625538
