17
Coordinates from ORCA-job run
  C   -0.43732183454875      0.01021607250573     -0.23573585729778
  C   -0.32869855211272      0.15612776720359      1.15065392790201
  Cl  1.84076477475374     -0.11884323347465     -0.94007937084253
  Cl  -3.11223608435561      0.33583549895277      2.06138171491807
  H   -1.68440240246224      0.23707052277311      1.42079333621963
  C   -0.80720534268943     -1.30456438995964     -0.68989511524662
  N   -1.17063342809723     -2.36481715108308     -1.05359761543211
  N   0.16674364868011      1.42675665785489      1.57163060170363
  H   1.13175661102686      1.49274581996243      1.24770264048089
  H   0.15929910672589      1.43848330467917      2.58404619143940
  N   0.07772619296575     -0.96762403760465      1.95930273278410
  H   0.94637066638500     -1.32587251517514      1.56164613639580
  H   -0.61783933941685     -1.70410956466192      1.91103532123122
  C   -0.88711869511604      1.14855377969054     -1.10282466334004
  H   -1.96511126854448      1.29367465867200     -0.95454290791358
  H   -0.36670431147772      2.05816120913720     -0.81562446645092
  H   -0.69083974171626      0.92664560052765     -2.15117260655119
