16
Coordinates from ORCA-job run
  C   -0.25214268303102      0.00191200664634     -0.30470882720849
  C   -0.20354173194787     -0.05127801592720      1.15109873031833
  Br  1.70910777251116      0.06304392156028     -1.21817676844400
  F   -2.69869606368148      0.41214066922682      1.46785393569209
  H   -1.46630669717615      0.08360146269075      1.39049583241371
  H   0.22018731087076      0.88429326988314      1.53380471217134
  C   -0.95999314133142      1.22991147351936     -0.85003182018793
  H   -1.02570950742490      1.21265604300216     -1.93868156085940
  H   -1.94678286601929      1.22374079012599     -0.37704606454877
  H   -0.41733294300487      2.12385434271019     -0.53593102687775
  C   0.42584365943830     -1.27893352296421      1.77332061196290
  H   1.48225011245408     -1.39321921178136      1.49439744745808
  H   0.36615324798172     -1.22122926658767      2.86448044446530
  H   -0.10070952211095     -2.18828101449068      1.46810953940945
  C   -0.77687692585031     -1.22623347086909     -0.89566145728742
  N   -1.23344002167776     -2.20443947674481     -1.36341372847745
