18
Coordinates from ORCA-job run
  C   -0.14384082122519      0.00714425860837     -0.31984352250237
  C   -0.12207837004824     -0.00172404494691      1.16019393605476
  Cl  1.64815102181801     -0.04795541930181     -1.10603462791793
  H   -2.60790977719603      0.40591282999378      1.68416056073113
  H   -1.31433660835127      0.11371190427343      1.42078973300750
  C   -0.73357753628315     -1.23182638773184     -0.82442182968491
  N   -1.23389418345695     -2.21944427646003     -1.22109915975470
  C   -0.84560930859824      1.21031299865654     -0.90533443845945
  H   -0.98776202164741      1.10796007308795     -1.98254246822302
  H   -1.81622458168186      1.27626041211418     -0.38751964001806
  H   -0.27137259416133      2.11512678391490     -0.70788930206603
  N   0.36243680308249     -1.22963850564496      1.77042410967398
  H   1.17745282999415     -1.57609257767704      1.27157018477184
  H   -0.36449692003390     -1.93450700245180      1.70784607044880
  C   0.50672098845622      1.22338281149706      1.78830994452779
  H   0.47033707148327      1.08738557482835      2.87085858675198
  H   1.55183326348304      1.36184008323528      1.48466339052955
  H   -0.06182925563361      2.12669048400455      1.54965847212914
