17
Coordinates from ORCA-job run
  C   -0.17596194843527      0.04307009248091     -0.35651159787779
  C   -0.19680775827431      0.02962579491129      1.10528086707211
  Cl  1.67604497217075      0.09789074314116     -1.07468997540246
  F   -2.67969793995386      0.25679619090287      1.54679931322956
  H   -1.53219615136965      0.07140273071090      1.33605143714824
  C   -0.65437403831709     -1.22684461578922     -0.89917254307790
  N   -1.06263685950885     -2.24021000241508     -1.33404806726359
  C   -0.87469964968439      1.22966970762483     -0.98643962558409
  H   -0.86690025190530      1.16874566056233     -2.07609900876002
  H   -1.89706238662826      1.22506521958343     -0.59966315364482
  H   -0.37598620768324      2.13495865555063     -0.64712060853952
  N   0.29147892736690      1.28987519062557      1.63422325020070
  H   1.29137921603361      1.20393866002329      1.80677501802684
  H   -0.15470520758510      1.42606238167514      2.53403581379974
  N   0.39734177350987     -1.14525512401038      1.72873868864115
  H   -0.27410058384462     -1.90296624581636      1.74228364044199
  H   1.21020409410879     -1.45914503976131      1.20031655158986
