16
Coordinates from ORCA-job run
  C   -0.26219669355798     -0.05808218006965     -0.36894771638794
  C   -0.23482205782136     -0.04776413569223      1.11249210159361
  Br  1.68858717636221      0.01925071906966     -1.23812023849527
  H   -2.77789162982073      0.57917661784068      1.56914194483237
  H   -1.38360726370742      0.00765046113499      1.38129387411949
  H   0.19954621244373     -0.96972745604315      1.50824211248035
  C   -0.74952363689208     -1.33651897421601     -0.87281997712753
  N   -1.16937523026026     -2.36313641375391     -1.26546301101932
  C   0.35033370922213      1.20115908195708      1.74715508126495
  H   -0.35380215699822      2.03167769931559      1.64510349702178
  H   0.48626899532900      1.03490823193208      2.81951872903368
  H   1.31623901317080      1.47888332993028      1.31344457316718
  C   -1.04880244101359      1.09527624725208     -0.93859886846761
  H   -1.21387409405655      0.99014541423785     -2.01193025780275
  H   -2.00371793276658      1.09642713891043     -0.37495602574463
  H   -0.53751196963310      2.03849421819424     -0.74406581846837
