15
Coordinates from ORCA-job run
  C   -0.23472748285737     -0.01387476026795     -0.28666690099648
  C   -0.18531879154279     -0.01736476185165      1.17073258567016
  Cl  1.56346945915798     -0.09759306075175     -1.13369982569160
  F   -2.69051511612090      0.35299090268621      1.45398046867098
  H   -1.52561024635013      0.13682748256545      1.40967768960181
  H   0.28154788582367      0.90490740134490      1.53405519951264
  C   -0.83538800636668     -1.24316734665448     -0.80317307530288
  N   -1.33758385925531     -2.22689100713539     -1.20606061531294
  C   -0.87906706769625      1.22484173054700     -0.87881616781424
  H   -0.90607395386698      1.18495408583048     -1.96841160819051
  H   -1.88414074555190      1.27793872301640     -0.45531286799599
  H   -0.30769853197462      2.10168425342392     -0.56734275036952
  N   0.37098729101616     -1.19336304023431      1.81803774210485
  H   1.20074717352026     -1.51088095319425      1.32192380124946
  H   -0.30806800793514     -1.94392964932457      1.78573632486427
