16
Coordinates from ORCA-job run
  C   -0.18441482163420     -0.03457687014663     -0.34821363423138
  C   -0.20880124842746     -0.05801399229611      1.10583931747437
  Cl  1.65315607490275     -0.07630757968140     -1.13534973315214
  F   -2.61685975035662      0.66950785629814      1.43278961763661
  H   -1.52597586461105      0.16451113181465      1.32588147025405
  H   0.14079847050682     -1.01595903519374      1.49966990923330
  C   -0.74814498936916     -1.25977582095678     -0.91069991603204
  N   -1.22398801574499     -2.23686858336500     -1.35981016017749
  C   -0.80433138623142      1.20026545894706     -0.98255512571506
  H   -0.84318767407320      1.11168200708847     -2.06899614892019
  H   -1.80254105813154      1.29876043484556     -0.54946222576496
  H   -0.21219608946325      2.07862518400430     -0.72374890393370
  C   0.41852864355253      1.13952475313304      1.79665494153180
  H   -0.20276667905201      2.02818108643591      1.66064745069144
  H   0.46376714219184      0.95506200583762      2.87418212417034
  H   1.43604724594096      1.35700196323490      1.44422101693506
