19
Coordinates from ORCA-job run
  C   -0.29245329640619      0.00949597034896     -0.28416848202288
  C   -0.14953887960762      0.01259619783352      1.10011520650772
  Cl  1.95333068747082      0.02319664250841     -1.23296077766098
  Cl  -2.89619488678534      0.21152110046235      2.12570800220746
  H   -1.54491440331379      0.03998114386741      1.44354440417648
  C   -0.65358099638329     -1.23896004445602     -0.90565399554563
  N   -1.03194412899445     -2.24073612134480     -1.39783297340904
  C   -0.75279811345778      1.23559397809991     -1.02629206596071
  H   -0.72737650968179      1.05904343866235     -2.10031723488186
  H   -1.77861318389323      1.47866051537162     -0.71755604152267
  H   -0.09794146555677      2.07743401751994     -0.80922178363896
  C   0.34752870425909     -1.23861024863247      1.77787238638752
  H   1.43547344329897     -1.29753995806636      1.65128174060000
  H   0.11005434249893     -1.21433760101572      2.84528418252869
  H   -0.09276015064329     -2.14079894714379      1.34921360316243
  C   0.28517429061104      1.30366986028039      1.75159599788710
  H   -0.35141765770422      2.14416939864683      1.47051388412914
  H   0.23948507609463      1.20867088021120      2.83921892503156
  H   1.31688712819427      1.52196977684629      1.44945502202462
