16
Coordinates from ORCA-job run
  C   -0.34954229887294     -0.03083726713068     -0.30937907319272
  C   -0.12435273749547     -0.06460920993647      1.05886295654355
  Cl  1.80529177546138     -0.06040515211451     -1.47373301058606
  Cl  -2.81464587520117      0.30463936689064      2.24043341954677
  H   -1.52832518742348      0.03780710506918      1.52435331017124
  H   0.13621358117846     -1.04068365947926      1.46600760295989
  C   -0.80524599776981      1.23369338180141     -0.98605439073348
  H   -0.83231814448449      1.10102450707103     -2.06559841648086
  H   -1.80765272620480      1.49138922751385     -0.61824937373260
  H   -0.11804011756355      2.04821368418852     -0.76392153651565
  C   0.46495919517252      1.13125632498969      1.76022990489443
  H   -0.14390483984649      2.02658517560435      1.61825421969892
  H   0.53106149298069      0.94948186437895      2.83499605789161
  H   1.46865373201405      1.32154715182273      1.36324931707646
  C   -0.80865295454866     -1.25652119510933     -0.91077158135132
  N   -1.25955889739625     -2.24338130556010     -1.36953940619020
