13
Coordinates from ORCA-job run
  C   -0.20414369318854     -0.00404003195586     -0.36154869123687
  C   -0.16234683776900     -0.06968370900691      1.14184801331748
  Br  1.68834618848743      0.13715709475421     -1.14940063080060
  H   -2.60791001868481      0.68129224080248      1.27044185085802
  H   -1.33958869531818      0.11429602505160      1.39094591734835
  H   0.32107793399833      0.82933328094180      1.53498705760627
  C   -0.73895554197077     -1.24629726997636     -0.93006739483061
  N   -1.18210944928824     -2.24103938444756     -1.37239352900192
  N   -0.96886060134309      1.11082162708970     -0.84392762395271
  H   -0.48079302729266      1.95564022397779     -0.55710059213631
  H   -1.83443770048170      1.08004408745855     -0.24961553703324
  C   0.40887147536976     -1.26042913953512      1.71847877414013
  N   0.84774996748147     -2.23045504515431      2.22153238572203
