16
Coordinates from ORCA-job run
  C   -0.14001607087090     -0.04422323379862     -0.33227808492059
  C   -0.22275460738651      0.03093591028594      1.17964248354828
  Cl  1.61866952063957      0.03007384081459     -0.87746946326633
  F   -2.67090915237169      0.46703780544124      1.23044942112098
  H   -1.53881853709503      0.07147065548218      1.32872676534615
  C   -0.70669979234275     -1.26707510576917     -0.91549399893529
  N   -1.20536084326488     -2.17752413037076     -1.46453235464629
  N   -0.82404175382532      1.08220005762291     -0.93747806038710
  H   -0.41903004523188      1.89103941719399     -0.46950026676808
  H   -1.77179673631942      1.01643806823322     -0.55379519043319
  N   0.22398967635460      1.30945128101375      1.64496905968576
  H   1.17542724295386      1.25481818298599      1.98984139663052
  H   -0.37170621551434      1.60814324601183      2.40540250159722
  N   0.41716051762627     -1.08899692942889      1.86335108287925
  O   0.92369416658500     -0.87947242212547      2.97605222124429
  O   0.38608263006343     -2.20442664359271      1.33352248730444
