13
Coordinates from ORCA-job run
  C   -0.09110762443350      0.03782073617737     -0.37559343561146
  C   -0.07113543097582     -0.00773745106300      1.12944858266730
  F   1.20478781701529      0.07338906984348     -0.93162713773471
  F   -2.56879620757779      0.34317466653228      1.13674805732055
  H   -1.45220339098228      0.12113651994692      1.32039927772461
  H   0.34009603074651     -0.94583932573864      1.50983348711554
  C   -0.70350542297418     -1.21719637818536     -0.88163894295075
  N   -1.14738963063488     -2.22430894004498     -1.28852562476583
  N   -0.80402135249103      1.16183399101419     -0.94290890847618
  H   -0.30691737586854      1.99301970386451     -0.63289829187778
  H   -1.70388953635638      1.15931691091796     -0.45981681319502
  C   0.60031617884362      1.13422820855848      1.67871457218627
  N   1.10623594568898      2.09753228817679      2.13438517759746
