17
Coordinates from ORCA-job run
  C   -0.21621036637202      0.01117821216669     -0.33231093922747
  C   -0.18856366033852      0.00390316136682      1.12220726619363
  Cl  1.65277005147221      0.07097092951907     -1.09226496272105
  F   -2.67489589270276      0.48327747591635      1.31789544481585
  H   -1.59152181822548      0.13810800144296      1.29069499467865
  C   -0.71166859307236     -1.24329003747892     -0.90063166449794
  N   -1.13631822655843     -2.25002168174592     -1.33416550901075
  N   -0.85945218934927      1.14104320951619     -0.95532095764040
  H   -0.44935215480108      1.93482678201868     -0.46548403214993
  H   -1.81547593124517      1.09009486160359     -0.59611959701661
  N   0.29501510819410      1.29348888519849      1.60046355217545
  H   1.30084821724302      1.25364965711521      1.75561160971983
  H   -0.15694450221799      1.51907286564272      2.47786425348039
  C   0.45093799714385     -1.19945312915797      1.77487339501430
  H   1.54097032033708     -1.21147324929964      1.61066719291145
  H   0.27275797701588     -1.17762917505346      2.85575876477120
  H   0.04614366347695     -2.14102676877082      1.39252118850339
