14
Coordinates from ORCA-job run
  C   -0.21405375430368     -0.01322970951485     -0.33293117363433
  C   -0.02342699327580     -0.07890931305482      1.10174842081462
  Br  1.73322534092713      0.07055406816726     -1.39357783108553
  F   -2.48859321194348      0.46320207139146      1.40405899244755
  H   -1.34355220485235      0.08215971980832      1.39091707393321
  C   -0.73095293437503     -1.26897992006773     -0.87999725051648
  N   -1.17316687699648     -2.29051436686168     -1.26004250253148
  N   -0.93278071557122      1.11914092386790     -0.85897803413608
  H   -0.38845378516936      1.94409470146731     -0.62729893264858
  H   -1.77701589225459      1.14203545479505     -0.27474173279263
  N   0.63091977626644     -1.24076629114716      1.66475800476716
  H   0.02534111491698     -2.04679420956356      1.56850998246985
  H   1.48038012385635     -1.43744949566778      1.13781532963155
  H   0.39739001277510      0.86026636638029      1.47714965328116
