16
Coordinates from ORCA-job run
  C   -0.24454182249249      0.07492513442945     -0.28567230576373
  C   0.03121547268947      0.02585080755954      1.21084374178912
  Br  1.51902617437734      0.04611683266153     -1.32428773133942
  F   -2.43016120341285      0.35704965553987      1.54540976432888
  H   -1.24663581213530      0.24775058675862      1.57424712241547
  C   -0.87298678661263     -1.20304276484615     -0.65305970196516
  N   -1.38499665494880     -2.21871703091046     -0.94873796740192
  N   -1.04704958174446      1.14451731167606     -0.81853674690931
  H   -0.58759709800218      2.00028925962105     -0.52344061137251
  H   -1.90280827936399      1.08226331456700     -0.25782657315140
  N   0.51468705313640     -1.20715735709740      1.72819030979814
  H   1.24372230784059     -1.62026526817889      1.15454203860678
  H   -0.24862582849429     -1.85783910038863      1.83910352503921
  N   0.87749324748955      1.14738274664693      1.63110838222020
  O   1.74700926781761      0.97088078297384      2.48451476347416
  O   0.65254954385601      2.25952508898762      1.12473199023149
