15
Coordinates from ORCA-job run
  C   -0.15264864794889     -0.04175095830495     -0.41012442007825
  C   -0.17478912692736     -0.02517568685030      1.11203276872788
  Cl  1.56568318297001      0.02197214673939     -1.04634325740863
  H   -2.44714576682348      0.86109929987828      1.61788211491993
  H   -1.34887531455887      0.04397590697786      1.35194224383798
  C   -0.73516028172999     -1.29013588908686     -0.91861340602851
  N   -1.21481903536438     -2.29144722753593     -1.30258583633159
  N   -0.86535802639003      1.09043048952153     -0.95147197553476
  H   -0.37996020872597      1.89417393891001     -0.55463929884029
  H   -1.76930029657208      1.08553214271228     -0.46021140707846
  N   0.25701258880103      1.26910185627544      1.60209264933139
  H   1.04885923651816      1.19183113520866      2.22522643602081
  H   -0.55999724038866      1.64820151181596      2.09740797864140
  C   0.45432927816042     -1.16625146406118      1.73166424809543
  N   0.97351965898009     -2.08477720220021      2.25723116172567
