14
Coordinates from ORCA-job run
  C   -0.22729327310937      0.01181705431767     -0.36101756493841
  C   -0.25435258081836     -0.00617425732184      1.10554034752303
  Br  1.81300715544189     -0.01582697098661     -1.12036737146379
  H   -2.54612530509422      0.75683721272366      1.66875990733257
  H   -1.45911327236581      0.09880312144609      1.32954967439212
  H   0.14638178131979     -0.92518282172420      1.54465813006710
  N   -0.82522859721237      1.17592061625883     -0.94012538240154
  H   -0.39458991915932      1.94428951331746     -0.42611242859031
  H   -1.79632049560533      1.15596728375875     -0.59852688247046
  N   0.21597650939360      1.24166139573334      1.67000257116343
  H   1.04572518145186      1.10528635893095      2.22963164916950
  H   -0.54345282039182      1.60108149335267      2.25228951620685
  C   -0.76764123479028     -1.21676037909799     -0.93337723003656
  N   -1.24087312906024     -2.21176962070876     -1.34512493595351
