15
Coordinates from ORCA-job run
  C   -0.18952307005165      0.05541809187023     -0.38940751534891
  C   -0.09343690061273     -0.07558954589444      1.11242532775928
  F   1.05624648403785      0.43377821927240     -0.94403991728942
  H   -2.38930308857738      0.47858134712140      1.63420606493660
  H   -1.32745539107673     -0.09698521860922      1.43493551811883
  C   -0.54458823169694     -1.24069336399831     -1.01099938140970
  N   -0.83677348191279     -2.26219818130599     -1.51086833723506
  N   0.27127646102906      1.14561088505845      1.79357075419113
  H   -0.60310376719825      1.64096973041972      1.98694794833782
  H   0.88744153065423      1.72241608853770      1.23428081469940
  N   -1.13866673770777      1.05523633902691     -0.81717595045750
  H   -0.70927548836806      1.95150972977963     -0.61112366079187
  H   -1.93271694955306      0.97581661137372     -0.16570392092336
  C   0.67392013415405     -1.21483666414782      1.55093924181326
  N   1.27319849688018     -2.15708406850437      1.93041301359952
