13
Coordinates from ORCA-job run
  C   -0.53391449995946      0.05626172077263     -0.18960698095663
  C   -0.10836848285697     -0.05989182790365      1.15133517090940
  Cl  1.38068260736148      0.16910725484878     -1.59282415724596
  Cl  -2.51850271034568      0.59099132629410      2.78215480846329
  H   -1.40780479187853      0.15672880754634      1.92401671931953
  H   0.37120485250054      0.83017718285869      1.55699724817846
  N   -1.17959385683932      1.20668042806603     -0.58554013587161
  H   -0.79958449132946      2.03197534861491     -0.14245282343866
  H   -1.19434938099851      1.30801579255020     -1.59037340233702
  C   -1.01658759788849     -1.13906867878234     -0.84546699292801
  N   -1.48854480331411     -2.09605188787662     -1.34162704502372
  C   0.45927768779122     -1.28980322685807      1.59673781869327
  N   0.89609546775730     -2.29938224013098      2.01602977223766
