15
Coordinates from ORCA-job run
  C   -0.25472783237137     -0.03244834679976     -0.30579832304635
  C   -0.13453165939565     -0.07992503234605      1.13185736062773
  Br  1.70558798491034      0.14819493366471     -1.33098823316419
  F   -2.50769367869970      0.72098561584532      1.48423026846412
  H   -1.43045033026088      0.13687759187139      1.39872482888472
  H   0.25010765745722     -1.03562850855191      1.49397998027292
  C   -0.70216306092288     -1.30716434380001     -0.86934197144712
  N   -1.09029684840143     -2.33999321010937     -1.27712766998558
  N   -0.99237016924442      1.07300244510549     -0.88725070036883
  H   -0.40157058970932      1.89463300331376     -0.85828740859973
  H   -1.76629321600447      1.21332803455472     -0.22768480011123
  C   0.49225178095869      1.12757287400565      1.79780147019773
  H   -0.09850435477921      2.02302670573524      1.59500104797677
  H   0.49624833647416      0.99278032733829      2.88309405201851
  H   1.52317597998891      1.29575791017253      1.46035009828054
