14
Coordinates from ORCA-job run
  C   -0.23665969575019      0.07506614965661     -0.39368459241424
  C   -0.11664602019995     -0.04947646923463      1.10681376949697
  Br  1.57571014600416      0.27329682856044     -1.26938599050517
  F   -2.60477091994522      0.27468658313346      1.24688590428717
  H   -1.38202722823054      0.05015733135851      1.38171543263901
  H   0.33804677754300     -0.98289068028086      1.43146225207472
  N   -1.08408109927093      1.12677394665946     -0.90646176555317
  H   -0.67556142523117      1.99231195159237     -0.56780663854485
  H   -1.94672512205330      0.99711916029195     -0.36046760333600
  N   0.59051488063584      1.03276141758828      1.75266798393957
  O   1.18424976600746      0.77997827731285      2.80713120871952
  O   0.52859373347628      2.17143228894816      1.26838421820893
  C   -0.72938367676288     -1.22013057793225     -0.88345917602535
  N   -1.11335011622256     -2.27183620765435     -1.23964500298711
