17
Coordinates from ORCA-job run
  C   -0.24177647354984     -0.00653761523823     -0.33573068744408
  C   -0.24712899408876     -0.07765804108532      1.12244746394134
  Cl  1.61459050262200      0.12185659298371     -1.07255605336657
  H   -2.61143315785689      0.64673581912686      1.46652244986220
  H   -1.47855124770823      0.11430818165900      1.32537897675380
  N   -0.94518530092608      1.11457988399921     -0.90180546678402
  H   -0.40547120018390      1.95058151337062     -0.70989053302964
  H   -1.80739913911188      1.18156463354115     -0.33125734264890
  C   0.34629347994592      1.12046658156459      1.83279819858855
  H   -0.13006686335400      2.05183077940270      1.51488494578739
  H   0.15119643791841      1.02056265050472      2.90580547097812
  H   1.42856067216286      1.19454163415405      1.66982864269066
  N   0.16998993698416     -1.37155600373155      1.62054861566411
  H   -0.31723014814939     -1.56465972859335      2.48898670277965
  H   1.16822426976095     -1.37152457526602      1.81220275544041
  C   -0.72743523287901     -1.24874164200736     -0.94509278280595
  N   -1.17317754158632     -2.20111066438480     -1.47007135640709
