15
Coordinates from ORCA-job run
  C   -0.23641619891580      0.00081896696733     -0.27213781659988
  C   -0.04837775863721      0.03641042533829      1.22064284525476
  Br  1.57190476243547     -0.20140865298158     -1.24540666117325
  F   -2.54015370822580      0.40611177947869      1.32457309856899
  H   -1.37094120257765      0.22846321112468      1.46448600877556
  C   -0.94968449282778     -1.22907516124116     -0.64071010949490
  N   -1.50720686545595     -2.22748906566635     -0.91171190564362
  N   -0.89235787266556      1.14363362127214     -0.85599000234952
  H   -0.33391014118503      1.96175935709210     -0.62867161421563
  H   -1.76570905139052      1.20557728753672     -0.32296308137533
  N   0.46730135033159     -1.15474018160279      1.85812096956743
  H   1.25501095169186     -1.53146823848678      1.33664949573674
  H   -0.26169108396083     -1.85585492297701      1.89033206630989
  C   0.65388742151221      1.23195689919900      1.61656813810471
  N   1.18856388987100      2.23441467494673      1.93167856853406
