18
Coordinates from ORCA-job run
  C   -0.20979041556812      0.00295380923225     -0.30634911174611
  C   -0.13759560939252     -0.03857304755276      1.15344898959753
  Cl  1.63003858099048      0.12962586148509     -1.15677313486546
  H   -2.51973973393447      0.71185066990702      1.39214122703564
  H   -1.36010484968350      0.11702319018772      1.37002339817081
  C   -0.69097373826477     -1.25836069001249     -0.87844720810503
  N   -1.11077009955914     -2.27076606700959     -1.30500069276351
  N   -0.96113580292157      1.08787580553463     -0.86102691007234
  H   -0.44189184393850      1.94152207188617     -0.68634876432546
  H   -1.80272554178593      1.13326443770745     -0.23857914541215
  C   0.41879596468683      1.22731106391346      1.77499304059715
  H   -0.24005764432096      2.07644107952108      1.57115395734295
  H   0.45276511345827      1.11283476588542      2.86304177429054
  H   1.42917494895264      1.45065708944857      1.41397459870794
  C   0.43257841175044     -1.30238588841527      1.75862518489728
  H   1.51186471567630     -1.38043784289871      1.57307517058250
  H   0.27258027929444     -1.30031934252322      2.84212710723921
  H   -0.04442273543992     -2.19964696629683      1.35617051882853
