15
Coordinates from ORCA-job run
  C   -0.47498756749537      0.00504445121141     -0.27378382567957
  C   -0.26795772930505      0.03610129261185      1.11759294685740
  Cl  1.89919897349194      0.09773134687238     -1.13963696869629
  Cl  -2.90241116254378      0.48482602479976      2.35587657828246
  H   -1.66801582569086      0.13344419539233      1.61748347669801
  C   -0.73232076945770     -1.25357733011961     -0.92233138084540
  N   -1.03288471584023     -2.26751932397173     -1.43914986010411
  N   -0.94288889256763      1.11451904910006     -0.89316497579610
  H   -0.64407979261117      1.94729720611644     -0.39788247420697
  H   -0.77771331132922      1.13565341555184     -1.88788363352279
  N   0.20495559784578      1.31572569288884      1.57776053113767
  H   1.21823038005417      1.33513328609977      1.49088421310986
  H   -0.07229609584028      1.47611489939026      2.53820497714171
  C   0.23905843385215     -1.15356335217065      1.74366964078820
  N   0.62250247743723     -2.08595085377293      2.35239075483589
