15
Coordinates from ORCA-job run
  C   -0.46446945178397      0.08011967694804     -0.21929839400564
  C   -0.09157617054247     -0.09751775580490      1.14200012155369
  Br  2.17073974837757      0.54172670386939     -1.51866596714479
  H   -2.27030977795109      0.70394820794217      1.53215652896427
  H   -1.28954326553310      0.03643704715575      1.59106323071183
  H   0.34653317789178     -1.07035626927364      1.35532739702790
  C   -0.59267958054866     -1.06330012001617     -1.08470041318652
  N   -0.83095858560762     -1.99805829640651     -1.76240919558189
  N   -1.21796473062901      1.17155167907528     -0.44436591872755
  H   -1.69408535594292      1.16678984295989     -1.33979246047336
  H   -1.91056349182637      1.24059284987146      0.45428345602983
  C   0.60407396882913      1.06476017725422      1.82539608069375
  H   1.55969657274338      1.23314865094389      1.32262245333192
  H   0.00384160827638      1.97314407582323      1.74939733706610
  H   0.76603533424697      0.84801352965792      2.88554574374049
