16
Coordinates from ORCA-job run
  C   -0.34667646089102      0.10295690953524     -0.33777801274206
  C   0.08009101827434     -0.04196786023671      1.00370787065461
  Cl  1.60507529251352     -0.24978638193999     -1.71417252416444
  Cl  -2.40709518849716     -0.27437161234909      2.59421502250957
  H   -1.20421497410057     -0.09401092191331      1.71766081385288
  C   -0.99249364326912     -1.03937729295127     -0.94296484454567
  N   -1.59941148498806     -1.94367445964004     -1.39011279444646
  N   -0.78281667478109      1.31202233300821     -0.81210352701387
  H   -0.22905234673572      2.08774868344409     -0.47076585328040
  H   -0.86680374044343      1.32826465163250     -1.81816672518347
  C   0.68544787170895      1.13612605331916      1.54848919480044
  N   1.14132190209826      2.12718692345091      1.99469757241368
  C   0.67781216989659     -1.36269488290748      1.43471847812744
  H   1.64756198491957     -1.51061007538916      0.95108114983950
  H   0.79119492423809     -1.38008565070819      2.52062824341165
  H   0.01359935005686     -2.18348641635489      1.15581593576661
