14
Coordinates from ORCA-job run
  C   -0.19289030961195     -0.02494588355451     -0.36120342436819
  C   -0.27294968693155      0.00628436472431      1.09778536702857
  Cl  1.67635012737097     -0.04035332151338     -1.02478907774143
  H   -2.54229337311382      0.67801672533516      1.66948050281846
  H   -1.53570186034410      0.12810391470568      1.32526631175729
  H   0.11265936638131     -0.89468020844573      1.58622688457377
  C   -0.72246062318167     -1.27760043548007     -0.89948912574816
  N   -1.17980354942978     -2.28977917323672     -1.28457589699853
  N   -0.79097795229274      1.11448487080835     -1.00707838640752
  H   -0.37589253089603      1.90311220159530     -0.51156537242249
  H   -1.76685543244122      1.10138526180176     -0.69113054034482
  N   0.15470440390532      1.27942397368392      1.63695249169334
  H   0.99253519083548      1.18780483282681      2.19396511186710
  H   -0.61236377025020      1.62394287674912      2.22085515429261
