13
Coordinates from ORCA-job run
  C   -0.13977682292184      0.03991902677472     -0.37331157369144
  C   -0.13698624087779     -0.01066771731048      1.14127387459517
  Cl  1.57011035566796      0.08680149086670     -1.07052684838128
  H   -2.65117352769078      0.44193002759621      1.12862764972889
  H   -1.34877772158139      0.10084422563150      1.32703372232108
  H   0.25442556101516     -0.94694037445272      1.54596307846598
  C   -0.72031167726264     -1.21527093088531     -0.87925905762626
  N   -1.16055718146398     -2.23050334287940     -1.27236487228151
  N   -0.88152208573414      1.15074671240971     -0.90869903293917
  H   -0.41894586618763      1.99924669269651     -0.59106336307499
  H   -1.78417389226971      1.10016766364576     -0.39461958937316
  C   0.50725331070543      1.13592060323684      1.72619557486970
  N   0.99844578860135      2.08804592266994      2.21535043738699
