16
Coordinates from ORCA-job run
  C   -0.14673911457838      0.04383685271040     -0.33836115639406
  C   -0.06827340375524     -0.01185666946733      1.16270908371072
  Cl  1.54150663201147      0.06707435162171     -1.13387747834890
  F   -2.57457652725423      0.29776826954939      1.20330165300183
  H   -1.43339550005405      0.08998071245980      1.35301884404523
  C   -0.77185113126106     -1.18813094990320     -0.84907857044020
  N   -1.25773054744933     -2.17992510963761     -1.24877715772434
  N   -0.86372756390451      1.18229265053643     -0.87741267844523
  H   -0.35552012200842      2.01341040981069     -0.58733694189235
  H   -1.74754138826808      1.17102858818347     -0.35999099774730
  C   0.49928907114716      1.20185893690027      1.67684901391522
  N   0.93320111358876      2.20472974012026      2.12264165919217
  C   0.55654218867986     -1.26696888246953      1.74966275052402
  H   1.60407961294339     -1.39744220326338      1.44932492769088
  H   0.51688184137191     -1.22714233455242      2.84143278279263
  H   -0.00397516120925     -2.15029436259897      1.43191426611968
