14
Coordinates from ORCA-job run
  C   -0.26833283944880     -0.02501237321671     -0.25135162028846
  C   -0.36745104140662     -0.16738154574446      1.17898187246685
  Cl  1.65452808626820      0.15032554375386     -0.85443662285758
  F   -2.80470970458733      0.54641355285351      1.27065642176163
  H   -1.77380232581438      0.07146495275045      1.29914798832245
  H   0.00116199403104      0.75388836730216      1.66073792271200
  C   -0.67122661319960     -1.23100393369369     -0.98175597808109
  N   -1.04633706080705     -2.16568660761659     -1.58704598850598
  N   -0.88376446365849      1.15403261271574     -0.83285515476048
  H   -0.31672147955756      1.94894152457929     -0.56026181990901
  H   -1.77646560466215      1.23230942734366     -0.34095464757565
  N   0.17368120338195     -1.41761585842958      1.67215853225828
  H   -0.21019744815985     -1.62803942626538      2.58325175992403
  H   1.18496729762063     -1.36035623633229      1.75577733453303
