15
Coordinates from ORCA-job run
  C   -0.24586814967755      0.01288526058220     -0.26619835350371
  C   -0.18747289396404     -0.06364744057455      1.17333806282984
  Cl  1.57521880075288      0.20558671909212     -1.11920216329779
  F   -2.63857707285803      0.56378834270947      1.43427720721869
  H   -1.56587092228595      0.13998268546188      1.41230477575230
  H   0.19081086247575      0.88612372772645      1.57026744179899
  C   -0.68930763215438     -1.24216390336216     -0.88576852231929
  N   -1.06971982806780     -2.25777797688602     -1.33965686598006
  N   -0.97138854791987      1.13305508379799     -0.84190871898733
  H   -0.40880852052197      1.96066235061366     -0.67710990697847
  H   -1.80402201599697      1.20747551407304     -0.25194102361898
  C   0.48028366261611     -1.27814896468138      1.77951352186353
  H   1.53444900778273     -1.36896155524592      1.48107814401898
  H   0.44271610122440     -1.22914875884897      2.87233291260993
  H   -0.02640285140530     -2.20041108445783      1.47945348859336
