17
Coordinates from ORCA-job run
  C   -0.23340682805358     -0.00185077731439     -0.31352023989191
  C   -0.05354729185038     -0.07184827116335      1.12605493185956
  Br  1.73504868461748      0.16465493991621     -1.34796524795882
  F   -2.48778772219773      0.56365758962436      1.46216910308781
  H   -1.34881744437256      0.07683523415855      1.39734409072029
  C   -0.68200410834039     -1.27921640782609     -0.87285054863189
  N   -1.07349033089043     -2.31491147028490     -1.27107883594033
  N   -0.99515924517746      1.09114108269007     -0.86507880320906
  H   -0.44251007269744      1.93381807794853     -0.75996369503654
  H   -1.79795852284990      1.15794534490599     -0.22621199259596
  C   0.52304387330290      1.16932654491764      1.76739594028165
  H   -0.06579755529857      2.05459138913987      1.52171062502630
  H   0.49617383713990      1.03811853585549      2.85078048395602
  H   1.56482766492069      1.33090036912062      1.45549314728617
  N   0.56439160767852     -1.27681037888133      1.64831203278007
  H   -0.02022482516187     -2.07768679394382      1.43955708803623
  H   1.45361827923083     -1.42327500886348      1.16937192023039
