14
Coordinates from ORCA-job run
  C   -0.21243902584288      0.12252483831913     -0.38706105396655
  C   -0.11629734790658     -0.02122081255506      1.11521750320200
  Cl  1.44977809425635      0.25804699403606     -1.16790420013767
  F   -2.59309879661336      0.35310290133188      1.25609616968650
  H   -1.40201706180280      0.12052770765942      1.38872926944966
  H   0.29907531572432     -0.97457995318263      1.43466759320311
  N   -1.02397258608893      1.20831284974599     -0.89297413039654
  H   -0.58713387279915      2.05319682254335     -0.53749891071652
  H   -1.89641005127873      1.10397659082216     -0.36237652569626
  N   0.62337708900859      1.02579415236207      1.77496235310964
  O   1.19335552106996      0.74614602766452      2.83643502632232
  O   0.61219038462805      2.17065972303747      1.29853104032064
  C   -0.76459318802328     -1.14766672691539     -0.88927049110041
  N   -1.19829447433156     -2.16414111486895     -1.28603364327990
