17
Coordinates from ORCA-job run
  C   -0.20940654105993      0.10698620547733     -0.36101699859215
  C   -0.09012165881112      0.04393168480870      1.15647804550816
  Cl  1.45254598274074      0.28627035830906     -1.14220321666711
  F   -2.59035540823179      0.25443013197395      1.27054045531569
  H   -1.37557345374887      0.15879105428641      1.40630947132606
  C   -0.70687147139089     -1.19448178538822     -0.84140006446630
  N   -1.09962977016190     -2.22819613171583     -1.23698192890188
  N   -1.07355314698225      1.12281579587512     -0.92314524767404
  H   -0.68821383896083      2.00603997123322     -0.60549347202161
  H   -1.94339542185410      0.99326589907632     -0.39426668623764
  C   0.49801773968107     -1.23054293337102      1.71572633689709
  H   1.54119383088388     -1.37729731838247      1.41000797760067
  H   0.46585722831473     -1.20562096352950      2.80386318759457
  H   -0.09221713418815     -2.08375358777640      1.37947978706727
  N   0.56891363208419      1.21718803014073      1.70109972586993
  O   1.20009867608713      1.10131678617426      2.76078967225373
  O   0.43471075559810      2.31302680280835      1.13336295512752
