17
Coordinates from ORCA-job run
  C   -0.22106633417008     -0.04275112964263     -0.22499989122201
  C   -0.03422654978045     -0.01353354339315      1.12361444585378
  F   1.68657337661156      0.20715323907974     -1.01737615399481
  F   -2.80832630247709      0.12177421225532      1.49007288393300
  H   -1.88078134200184      0.08904656453003      1.25270219196885
  H   -0.38893376759215      0.91133804067477     -0.71232876510556
  C   -0.53603425495583     -1.27424252954188     -1.01665568866233
  H   -0.37632695934955     -1.06499877949274     -2.07339303516218
  H   0.15860238106535     -2.06871983136636     -0.74006555155245
  H   -1.56504354387307     -1.62486524252122     -0.86261740819711
  N   0.59607387962303      1.18472295513062      1.65971400305716
  H   -0.07049266985718      1.94797906015411      1.70783833167529
  H   1.28105446379800      1.41423871247130      0.93853767830878
  C   0.25205812023917     -1.25693562262876      1.91859727987484
  H   1.30738197562944     -1.54088433564134      1.80294067189420
  H   0.06894936562614     -1.07260938285059      2.98118611773515
  H   -0.36813183853546     -2.10167238721725      1.60459288959546
