17
Coordinates from ORCA-job run
  C   -0.31087560215415     -0.00156694257802     -0.19608064049631
  C   -0.14759695998604     -0.08526306272735      1.22964561823507
  Cl  1.46209267256317      0.30244590979250     -1.18839518197498
  F   -2.67283426220333      0.03622188707428      1.55532347518747
  H   -1.50672601416954     -0.09854967559393      1.47095002752684
  H   -0.78447697692347      0.93870318710045     -0.47961410468534
  N   0.34067322316935      1.13717907804343      1.86804952719917
  H   -0.41693359270698      1.81206231572250      1.87472926434386
  H   1.09015520158181      1.52863072130074      1.29894984052193
  C   0.56204965201381     -1.30525314311065      1.77017007446789
  H   1.62084692979319     -1.32821464408705      1.46771479723593
  H   0.52545380584028     -1.28153642396824      2.86216933984971
  H   0.09630963505724     -2.23770455084136      1.43673828506796
  C   -0.92644015350857     -1.17722420830613     -0.91494298751857
  H   -1.90467816996336     -1.34371698178904     -0.45528499155085
  H   -1.05091690043349     -0.96701008568168     -1.97862455414836
  H   -0.31238248796995     -2.07277338035046     -0.81275778926144
