17
Coordinates from ORCA-job run
  C   -0.35556752510308     -0.03253160244972     -0.22945253713330
  C   0.02792617152669     -0.03041617653310      1.08960847720025
  Cl  1.74911062275054      0.46546865573509     -1.63365899831365
  Cl  -2.68695423282789      0.16773310462497      2.23205743932458
  H   -1.35086680609601      0.01623198169117      1.41719102530316
  H   -0.66153057981400      0.92552019509433     -0.63554694827014
  C   -0.78165375976581     -1.25601946584174     -0.97090167885926
  H   -0.04285007588224     -2.05050835061842     -0.86668739968393
  H   -1.74622741580654     -1.61186096532820     -0.58380841216471
  H   -0.88333825539884     -1.03096407075646     -2.03092343194510
  C   0.49123166998573     -1.28236337700628      1.78551419522932
  H   1.54535247285676     -1.44942908289736      1.54185835766291
  H   0.40264107436300     -1.14765225501289      2.86561059740428
  H   -0.09140900673890     -2.15965422723161      1.49703900197405
  N   0.57333596449355      1.17816872757631      1.64514160170962
  H   -0.12533156939738      1.69015732814180      2.17209926370371
  H   0.92935125085439      1.74932958081210      0.88661944685822
