12
Coordinates from ORCA-job run
  C   -0.18533581981384     -0.02679789742839     -0.33607223164198
  C   -0.21303379309785      0.01944473942567      1.10645112866221
  Cl  1.64162510601559     -0.00525513678653     -1.18519196527964
  H   -2.68995508471371     -0.02146406386966      1.60885056973706
  H   -1.50529440294271     -0.00057769608374      1.38431907216787
  H   -0.56437703642647      0.89214398416611     -0.78657435431108
  H   0.19852437986417      0.92888465857333      1.54952934234542
  H   0.18534798324677     -0.87777914130044      1.58881321892575
  C   -0.86496087214779     -1.24005959097268     -0.91413584386814
  H   -0.37827062875388     -2.15366605125006     -0.56468700577804
  H   -1.89813631238490     -1.23050541809994     -0.53801504904797
  H   -0.86418351884537     -1.23831838637367     -2.00597688191145
