14
Coordinates from ORCA-job run
  C   -0.27003840943458     -0.12437528271579     -0.17885078036710
  C   -0.23201136225400     -0.09420976785415      1.19137306784545
  Cl  2.16858313498096      0.13856767681367     -0.99766208352413
  Cl  -3.12687782437871      0.43753966737749      1.59211331548428
  H   -1.65483302864764      0.08530728755477      1.23449935931058
  H   -0.34491256844560      0.83186086837638     -0.68553063804158
  H   -0.14631219811857     -1.04738522664565      1.71621782092444
  C   -0.68139383719177     -1.33291072169606     -0.94835276884932
  H   -0.24058110134614     -1.30789486624093     -1.94324832578103
  H   -0.36132020318231     -2.24678403555510     -0.44554795878680
  H   -1.77533267960008     -1.34691661127209     -1.04219318089979
  N   0.29924620463015      1.04279660523162      1.89530237020633
  H   -0.40807551864122      1.75855920515827      2.01394889388581
  H   1.05621939162953      1.41324520146759      1.32781090859286
