17
Coordinates from ORCA-job run
  C   -0.17334195144388      0.00082345918286     -0.34801267467712
  C   -0.12770330067372      0.14501038937350      1.10237114938312
  Br  1.80653929944936     -0.19282989594458     -1.23540370796727
  H   -2.52117019453865     -0.35066839862405      1.75923294479262
  H   -1.32581180414721      0.13388304807529      1.36892387127559
  H   -0.46650373586965      0.92935395242928     -0.84264084085727
  C   -0.96024618789727     -1.18137195677084     -0.83369777025235
  H   -0.48110608079804     -2.12147209119478     -0.55786507366330
  H   -1.92979734589774     -1.13296128850352     -0.30734088603912
  H   -1.10245816868972     -1.16552865841870     -1.91601824559850
  N   0.31781474354657     -1.02203594032655      1.84916202535073
  H   0.97310976129986     -1.56457907516506      1.29568399419389
  H   -0.51018062085904     -1.58729509455131      2.03769921957350
  C   0.51217821788484      1.41670028958243      1.61190370487516
  H   0.30266328459586      1.51704059053662      2.68023502196104
  H   1.59998141883530      1.39221592832451      1.47442166718268
  H   0.11776266520311      2.29901474199489      1.09399560046659
