14
Coordinates from ORCA-job run
  C   -0.23219404800190     -0.07685049014689     -0.28344069497353
  C   0.06027728316223      0.04143537560198      1.06440325698440
  Br  1.79638231951418      0.22902643607044     -1.70272582153697
  Cl  -2.95442029639741      0.33801723624787      2.03158112790722
  H   -1.68475856558664      0.17563622550880      1.57328883187792
  H   -0.58758503490524      0.85776364428430     -0.70536099662927
  H   0.39659480162103      0.98815833201036      1.46871109967787
  C   -0.75679671717196     -1.31747355126268     -0.94719334093504
  H   -0.05452008024640     -2.13996327546079     -0.85223979813763
  H   -1.69311459157922     -1.61997803263047     -0.46275401876998
  H   -0.93611135944384     -1.11875150810164     -2.00304390958361
  N   0.52698395968876     -1.04502966459011      1.87256977386576
  O   1.10072936293451     -0.74792889451382      2.93035944710703
  O   0.30308296641193     -2.21200183301732      1.52550504314582
