15
Coordinates from ORCA-job run
  C   -0.14531333701674      0.16899471475295     -0.46186314830613
  C   -0.00936880279052      0.14956396918790      1.03321577496491
  F   1.12736491185959      0.31272003026485     -1.09974712040097
  H   -2.04086319306889     -0.98805895450367      1.83076924162353
  H   -1.15452147461253     -0.19158549256854      1.45530121405533
  H   -0.71580271581147      1.05414972779414     -0.76561676256662
  C   -0.77622430973332     -1.08980646675619     -1.00823568343296
  H   -1.69899306124882     -1.29602865671566     -0.45813712990000
  H   -0.97455572527202     -0.98837903300384     -2.07847836687381
  H   -0.10187414752393     -1.93555567700184     -0.86092856402462
  C   0.40007988684499      1.43542102685042      1.55141792332637
  N   0.67871566339989      2.49937829259576      1.97764248391302
  N   0.76213023308984     -0.94552994060546      1.59269847524188
  H   0.08370945866071     -1.67763378690251      1.81940831525345
  H   1.43393661322325     -1.29747975338834      0.92185334712662
