15
Coordinates from ORCA-job run
  C   -0.32863345227585      0.00158807382970     -0.29218417305254
  C   -0.05493058698694      0.02738629611889      1.05217642529061
  Cl  1.88121194458196      0.17576848866769     -1.64679267376254
  Cl  -2.81307851491800     -0.01949585295723      2.15871011023231
  H   -1.46468861125073      0.04039972563805      1.44120848279785
  H   -0.57610854431783      0.94451891304909     -0.76805333339436
  H   0.24844305435230      0.99118748728808      1.45716665135653
  C   -0.75298136111325     -1.24418812128988     -1.00081402780565
  H   -0.05663397509481     -2.05920702185711     -0.80691559496742
  H   -1.75155000532925     -1.53835926161006     -0.64660045371911
  H   -0.78252207223644     -1.08013873424550     -2.07552997264036
  C   0.44662108227028     -1.19186881673597      1.78456237906469
  H   1.45223061890079     -1.44408103139391      1.43207617294544
  H   0.48402582444863     -1.00853306937819      2.86072103410886
  H   -0.20413540103085     -2.05411707512365      1.62396897354569
