14
Coordinates from ORCA-job run
  C   -0.28952813021934     -0.02802553267639     -0.20704607679807
  C   -0.10481612820442     -0.12952956655353      1.21433692262006
  Br  1.58919788187704      0.38511106459960     -1.30869339200610
  F   -2.61726403269764      0.05186600636877      1.53813556256757
  H   -1.40971202604882     -0.17678217014708      1.46142621927904
  H   -0.79450970754655      0.89654584233002     -0.48520724355461
  H   0.41255683484172     -1.04396724287935      1.52209073145721
  C   -0.87935409994067     -1.23514874693829     -0.89144095014126
  H   -0.27856593377530     -2.12575535872689     -0.69327953513658
  H   -1.87597102596927     -1.36471028537831     -0.45935334649536
  H   -0.95697978052828     -1.09629379005352     -1.97043575854375
  N   0.37992457514982      1.04738553635787      1.92133402220197
  H   -0.39405523081284      1.69809571550460      1.99819789430929
  H   1.10411680387455      1.49415852819249      1.36315495024059
