13
Coordinates from ORCA-job run
  C   -0.32696029663217      0.01434811070660     -0.37092137032583
  C   -0.08533087693314     -0.10052726070048      1.10831565384741
  Cl  1.17350022146681      0.48331078261809     -1.31027168930513
  H   -2.63879549163478      0.01286082361442      1.61277254618143
  H   -1.22569553380471     -0.12095585531489      1.50671156335682
  H   -1.01621116447598      0.84992284257835     -0.51419462897399
  H   0.36871590292619      0.80563936707177      1.51796963660740
  C   0.66410955743033     -1.26784666501168      1.50344783576487
  N   1.22556161434198     -2.24400563011104      1.85036713331235
  C   -0.92813897601037     -1.24342383477659     -0.95296813272626
  H   -1.84974834824621     -1.43110239326719     -0.39141505869784
  H   -1.16508899558323     -1.11530518065474     -2.01159827334135
  H   -0.24847761284472     -2.09064510675261     -0.83981521569985
