13
Coordinates from ORCA-job run
  C   -0.20168249640725      0.02095354388448     -0.33739610486917
  C   -0.09507079292587     -0.02180429496703      1.15341536024581
  Cl  1.43737798839632      0.12672553738321     -1.20553559485493
  F   -2.59789453412999     -0.29145478118016      1.47408717404432
  H   -1.38489992078449     -0.12371189285955      1.46069256682516
  H   -0.70488159455531      0.94042562040572     -0.64094300664001
  H   0.39740744158272     -0.93881611169203      1.49236454554543
  C   -0.93949078793816     -1.18610499841540     -0.88135679204985
  H   -0.37567254974750     -2.09803315092435     -0.66642905151128
  H   -1.89587785155972     -1.21800759728559     -0.35657746235012
  H   -1.08536128950426     -1.11449472145289     -1.96151938751318
  C   0.51652134423257      1.13558386819891      1.74408448014639
  N   0.97870504334094      2.09362897890469      2.25252327298143
