18
Coordinates from ORCA-job run
  C   -0.21836643729242      0.00889846841237     -0.29836221835754
  C   -0.15060979073068      0.04670048129952      1.14266339085707
  Br  1.76450301912427      0.04838776678864     -1.26732316938765
  F   -2.64591266796852     -0.36071188052772      1.52814328765790
  H   -1.43135016044529     -0.03369220374952      1.35640923795450
  H   -0.57280398091692      0.95383976594364     -0.71414616576530
  C   -0.90785702827543     -1.18075945913122     -0.92362244074474
  H   -0.34605955941985     -2.10083921945411     -0.75671632645751
  H   -1.87781695681471     -1.24994541306890     -0.42032541672493
  H   -1.03511796560634     -1.04760075425354     -1.99953848990418
  C   0.44693189340814      1.31568956045395      1.71029124531328
  H   0.03304601821862      2.20259638796502      1.21779753966302
  H   0.23077967299296      1.40063876294854      2.78138869327719
  H   1.53876733475874      1.34318324597481      1.57761967417901
  C   0.37867998916849     -1.20674490548441      1.81145711638059
  H   1.41668019817285     -1.42208470381543      1.51732673557455
  H   0.34794716870355     -1.08610755251401      2.89961163253095
  H   -0.24454074707749     -2.07163834778765      1.57354567395376
