14
Coordinates from ORCA-job run
  C   -0.30188090289967      0.05575258681850     -0.34150790733410
  C   0.05420318148580      0.09430401122521      0.98339525632529
  Cl  1.88955636655537      0.19029810011801     -1.70940504254455
  Cl  -2.65981166582677     -0.36484325147281      2.12717162336149
  H   -1.35870884608561     -0.01823415820848      1.42953288300660
  H   -0.63076438603315      0.99030314072852     -0.78747691602061
  H   0.31363426948870      1.06682277363515      1.39868426494175
  C   -0.72310278820986     -1.20454577558252     -1.02240316636439
  H   -0.02018092307887     -2.01134188230694     -0.82168891007268
  H   -1.71283126136067     -1.49530833102092     -0.64219906805223
  H   -0.77344600382870     -1.06103848767833     -2.09907292862393
  N   0.67379881526513     -1.02374002943963      1.65135575088417
  H   0.01172037288363     -1.78207162457490      1.76651597584401
  H   1.42984377164467     -1.34978707224086      1.05504818464916
