15
Coordinates from ORCA-job run
  C   -0.37845695600216     -0.06234175235755     -0.23822321681640
  C   -0.10635961551361     -0.00409268755976      1.09626199114952
  Cl  2.00048202500842      0.16624080798547     -1.57409417247538
  Br  -3.04063369463460      0.15656652130421      2.17733847829133
  H   -1.57632289297745      0.06502056563611      1.42294575762689
  H   -0.52047846950155      0.87407192825227     -0.76969906461157
  H   0.09507950018164     -0.94917948110860      1.60260608498757
  C   -0.83373031012513     -1.30237171732240     -0.92753142111889
  H   -0.44532264793196     -2.19307879264880     -0.43046951301627
  H   -1.93154451773239     -1.34711819031368     -0.91664784683763
  H   -0.48599087420247     -1.29748972596177     -1.95888576969896
  C   0.44083594018064      1.23755730851268      1.74147101280654
  H   0.02837454785546      2.13124881911621      1.26830017774328
  H   0.20334050541308      1.27305597479006      2.80802936432781
  H   1.52602745998210      1.25989042167555      1.60751813764211
