14
Coordinates from ORCA-job run
  C   -0.45741029767276     -0.05445177450607     -0.16523813085540
  C   -0.16434977530095     -0.07186210185901      1.17752462801394
  Br  1.85148506539980      0.55582946412687     -1.45043183535261
  Cl  -2.95202731495347     -0.01508066562744      2.19172416444330
  H   -1.53685414598331     -0.09151712427847      1.52271057878112
  H   -0.74020406668596      0.90409465837988     -0.58884662000583
  H   0.14635047417663     -1.02490749929868      1.60965238038095
  C   -0.87975863250180     -1.27582839960120     -0.90975731985422
  H   -0.35277979641298     -2.15909750335805     -0.54573801885841
  H   -1.95830302822574     -1.42643541005801     -0.76693675812596
  H   -0.67529096411317     -1.15901045555022     -1.97249043929960
  N   0.36189137593938      1.09486008201549      1.83830619118739
  H   -0.38237948747829      1.74227932538734      2.06966303090874
  H   0.99369059381261      1.54284740422757      1.17876814863661
