17
Coordinates from ORCA-job run
  C   -0.18337278362070      0.00634685131664     -0.42042252186284
  C   -0.25089166542903     -0.00564298607385      1.02958819989545
  Cl  1.67249234592109      0.02741926745219     -1.12424849267821
  H   -2.44628797818426     -0.17990794271268      2.07237819057844
  H   -1.49322515660552      0.01704662595882      1.36833207814619
  H   -0.52372695153918      0.96186551324017     -0.82725629735186
  C   -0.84040188684368     -1.17312106412100     -1.09030277427047
  H   -0.37690071643940     -2.09147343390482     -0.73371550265945
  H   -1.89475054100772     -1.18550262583545     -0.78674743919565
  H   -0.77113035780568     -1.11419678859311     -2.17897140508284
  C   0.32603564397289      1.20204942808067      1.72935362303618
  H   0.07287544743135      2.13201545442264      1.20630146545204
  H   -0.09758947413151      1.25704337718644      2.74086521024862
  H   1.42149743338106      1.15059165995288      1.80660927497272
  N   0.10849433242843     -1.27891370783558      1.62450767392640
  H   -0.58795386155950     -1.45698150508569      2.35357457962339
  H   1.02175617003135     -1.22114812344827      2.06307413722188
