16
Coordinates from ORCA-job run
  C   -0.08280129950269     -0.00516383157182     -0.42503869331898
  C   -0.02194570471444      0.06891619576116      1.06694647433774
  Cl  1.60207357227198     -0.06984006284501     -1.23394645433794
  F   -2.49240996477537     -0.31005026473417      1.46742633123074
  H   -1.32042788691095     -0.00031487268110      1.36151070992060
  H   -0.49469939396960      0.92737628679333     -0.81545104146111
  C   -0.87819281335436     -1.18848793438907     -0.94258161984713
  H   -0.35803664486275     -2.12588544338778     -0.73581704556836
  H   -1.83238088853716     -1.17755246365628     -0.41179460796528
  H   -1.02835094082809     -1.11411923889034     -2.02213628911393
  C   0.55532208854283     -1.16156567569235      1.75693000513181
  H   1.54779799117427     -1.43869873112614      1.37940181231824
  H   0.63596240628012     -0.97882267276010      2.83164399407341
  H   -0.12686384404770     -2.00503824633126      1.62659144123091
  C   0.56653304007146      1.29486293021004      1.52891512489179
  N   1.02226028316245      2.30571402530089      1.93260985847750
