15
Coordinates from ORCA-job run
  C   -0.20709910163705     -0.10610091918988     -0.28605143018666
  C   -0.15424409533865     -0.09470163364487      1.15547745393644
  Cl  1.57017571064223      0.03814773243311     -1.20645540742529
  H   -2.58616239664538     -0.19106891109245      1.82221442644193
  H   -1.41412341506581     -0.16139855387486      1.48139092271404
  H   0.26813663290035     -1.01803246050219      1.56871569303572
  C   0.38017122724079      1.15410252409974      1.81676512552951
  H   -0.13970212593179      2.03682230549726      1.42593479241572
  H   0.18912167594930      1.12447488978960      2.89565499082220
  H   1.45517385048467      1.30109051863324      1.65591604746666
  H   -0.65645166812288      0.80945594477003     -0.68000047107104
  C   -0.85702185734873     -1.33411753396596     -0.86703624937770
  H   -0.31176541064038     -2.23302306626872     -0.57018500964236
  H   -1.87120420788349     -1.38486784260265     -0.44656180555947
  H   -0.90826481860317     -1.29999299408142     -1.95730907909971
