17
Coordinates from ORCA-job run
  C   -0.20979016060102      0.00725689060535     -0.37308588758097
  C   -0.25492457091317      0.00177149510053      1.06262870535556
  Cl  1.69260900043682      0.00073999336130     -1.11943434794492
  F   -2.65986234949515     -0.18246086385090      1.79539277969882
  H   -1.59439089472757      0.00918285400827      1.34391678193479
  H   -0.51470906623730      0.96813815745425     -0.79101253586319
  C   -0.85587863107616     -1.17024214540415     -1.05890297657668
  H   -0.36985170685725     -2.08773494969558     -0.73220025093075
  H   -1.90024162185753     -1.20338650549218     -0.73226183191690
  H   -0.80250896738968     -1.08521617438667     -2.14617827139307
  C   0.35493046515621      1.20658871500521      1.74512985067982
  H   0.05207416608228      2.14165201431139      1.25985140110631
  H   0.02647981513298      1.25209358102979      2.78977788931471
  H   1.45627027165576      1.16717335031957      1.72938847042330
  N   0.12112076729338     -1.27996164173389      1.64763328858977
  H   -0.47333579934141     -1.44342370148419      2.45204955944856
  H   1.08892928273880     -1.25468106914809      1.96022737565483
