16
Coordinates from ORCA-job run
  C   -0.23433834392965     -0.04553843672136     -0.29352527097525
  C   -0.31216314155157      0.08206472612358      1.14275367816015
  Cl  1.66661254739912     -0.06075082732109     -0.97059741705280
  H   -2.55495955253657     -0.54284095884017      1.90528650144438
  H   -1.55374508664229     -0.10622774073704      1.40770152721964
  N   0.01421443939917      1.41361216351169      1.61788188186373
  H   1.00623275028783      1.42815090893638      1.84469915126197
  H   -0.47604851399793      1.52281920976827      2.50263647855781
  N   0.26319552754021     -0.99992036326265      1.92026591528703
  H   0.93692283792939     -1.52631154270989      1.37523401657059
  H   -0.49898798267852     -1.61590052575028      2.20773845184242
  H   -0.57745222572299      0.86420225319053     -0.78354157274358
  C   -0.84561948026677     -1.30093170520195     -0.85446081854980
  H   -0.30394427378935     -2.18671495447964     -0.52021128479553
  H   -1.87130479527862     -1.36787758087566     -0.46470094868376
  H   -0.85653470616147     -1.29411462563073     -1.94615028940700
