16
Coordinates from ORCA-job run
  C   -0.21437412488632      0.01565709905444     -0.36021024788164
  C   -0.29896631024536     -0.12704129278657      1.07977386616527
  F   1.18553187042936      0.25808156913226     -0.87818966349341
  H   -2.48640072401127      0.22465018385612      2.13994289321643
  H   -1.74872329168407      0.01420769864321      1.59043886594415
  H   -0.70577638623071      0.94724654000304     -0.67392833199513
  C   -0.70341659763762     -1.16957127146163     -1.15897804840177
  H   -0.17428276805533     -2.05874906516445     -0.81765402581357
  H   -1.77313715057651     -1.32011634806302     -0.98573631707891
  H   -0.52829346297758     -1.01665226962194     -2.22847135825857
  N   0.23761666826769      1.00214109715763      1.82676762632031
  H   -0.53843127816113      1.55091801959802      2.20899645796164
  H   0.79187059842019      1.60111898193785      1.22579723071080
  N   0.11947434253385     -1.41556037002526      1.60353756406813
  H   -0.46765958951505     -1.60825200318232      2.41593827501464
  H   1.06546820432989     -1.32427856907734      1.97123521352160
