16
Coordinates from ORCA-job run
  C   -0.26899256942785      0.11732383270633     -0.26250703848728
  C   -0.10078944080115      0.05158637751787      1.16708221246932
  Br  1.71076159820188      0.37872923199328     -1.29233595093031
  F   -2.38494498539069     -0.89975189133516      1.71917861987620
  H   -1.35175771263890     -0.25055429332739      1.46746021961444
  H   -0.68860612032329      1.06719257717893     -0.59730510829426
  C   -0.88117606682364     -1.07877481412960     -0.94591291663945
  H   -0.23696159301109     -1.95324556362051     -0.84708163806148
  H   -1.81944337143287     -1.28113094159359     -0.42054730485087
  H   -1.05386782061112     -0.89209759528986     -2.00686332099761
  N   0.35611812014855      1.26284486917657      1.83191723882942
  H   -0.25167043590688      2.02652775065122      1.55308547966883
  H   1.28691000604162      1.48200787690597      1.47390970860904
  N   0.59863601867859     -1.11744678468514      1.66292186042215
  H   -0.09117146562259     -1.82915168300503      1.86981223328319
  H   1.24245583891941     -1.46808894914387      0.95993570548870
