18
Coordinates from ORCA-job run
  C   -0.12892596418393     -0.00313355645551     -0.41957912381867
  C   -0.09267100721715      0.01609842957820      1.03856642732219
  F   1.19908564872029     -0.00219369715092     -1.08441890785033
  H   -2.35770250530659      0.02023624985675      2.03222208902500
  H   -1.45909679453158      0.03409484741327      1.51412490777342
  H   -0.56500715389614      0.93723388445511     -0.78658190795500
  C   0.46397027409140      1.27935982664694      1.64282446028034
  H   0.14177853555095      2.16297976349637      1.07601833549869
  H   0.07910735732690      1.39917209704695      2.66961012669919
  H   1.56625624482717      1.30939526940941      1.69727623653492
  C   0.40773620101552     -1.21612913569407      1.74733398967882
  H   1.50671896941207     -1.31976093759268      1.75254405890842
  H   0.07383423559866     -1.18053825607869      2.79692623949161
  H   -0.01039873866374     -2.13793010126895      1.32817699679537
  C   -0.85928572722532     -1.17904550175880     -1.03884826634329
  H   -0.31460286066110     -2.10655341683487     -0.85212277559983
  H   -1.85913826279623     -1.26175166364282     -0.60114355260158
  H   -0.94376845206119     -1.05379410142568     -2.12260933383924
