15
Coordinates from ORCA-job run
  C   -0.35485203508438     -0.03234438895808     -0.22536052298956
  C   -0.04691983246016     -0.07351069288800      1.11196500081534
  Br  1.95555804866022      0.23053483072731     -1.64392352851660
  Cl  -2.76615954867037     -0.13395264498155      2.29582290709871
  H   -1.41376611502753     -0.06918816020727      1.53970021227575
  H   -0.57535656843395      0.94048841138946     -0.65656890948451
  H   0.22738741368588     -1.05055775979653      1.51316648644553
  C   -0.87481101338132     -1.22434105556714     -0.96020765630382
  H   -0.32038947937084     -2.12231933995949     -0.68441236469857
  H   -1.93165473667974     -1.36991767719228     -0.69609354375379
  H   -0.78790863383402     -1.08157333021732     -2.03527004009320
  C   0.55305952164113      1.11931641704148      1.80577649633829
  H   0.39779536384163      1.07281785273086      2.88697547583411
  H   1.62580630143132      1.15882776513877      1.59290587968435
  H   0.10560131368213      2.04545977273976      1.43722410734801
