17
Coordinates from ORCA-job run
  C   -0.17641067311443     -0.01024152716963     -0.33684271657495
  C   -0.02356017827998      0.15602673447458      1.08240605515310
  Br  1.80123835194680     -0.26205266317882     -1.36848019107460
  F   -2.43978925351553     -0.27649498448337      1.71523992018682
  H   -1.30936591518232      0.13249199060453      1.38256088347434
  H   -0.46062700598867      0.91220519877785     -0.84567152212766
  C   -0.95423045125579     -1.21226403470934     -0.81205359174552
  H   -0.44856971511048     -2.13776694251680     -0.53379972900054
  H   -1.91780556712416     -1.17113012126269     -0.29498646432358
  H   -1.08669812486989     -1.20297980223668     -1.89492310098637
  N   0.43384301922889     -1.01195496817756      1.82988266645262
  H   1.12093801405231     -1.52283885223799      1.27992582235541
  H   -0.37003765661728     -1.60877498538185      1.98688164019181
  C   0.68461460169292      1.41417369454239      1.52637857419066
  H   0.53831326114268      1.56025410502804      2.59983190741636
  H   1.76430274006820      1.34201489036405      1.33445344438364
  H   0.30609455292674      2.29674226756331      0.99832640202847
