15
Coordinates from ORCA-job run
  C   -0.21845366182440     -0.01223959832742     -0.33305901176617
  C   0.04502202666751      0.10875559162869      1.03099742414633
  Br  1.93514912665762     -0.44858719975118     -1.49477620919256
  Cl  -2.81524813216017     -0.00218852349560      2.08907843020045
  H   -1.53745056247902      0.18936138485336      1.51135119902842
  H   -0.39258150796875      0.91987159710374     -0.86629011332085
  C   -0.93923309354894     -1.21803300981297     -0.86365227710814
  H   -0.46999345562465     -2.13845444284568     -0.51772536061494
  H   -1.97856173844112     -1.19886931431795     -0.51013330644570
  H   -0.92864064941926     -1.22322946577592     -1.95209683726729
  N   0.45400726533069     -1.02286806281308      1.82524000568067
  H   1.20701411840604     -1.49007406028171      1.32287006161535
  H   -0.31271460919605     -1.67570166437954      1.93483534540408
  C   0.55227815093131      1.36790328868198      1.50101445090069
  N   0.93117672266919      2.40900347953326      1.90057619873963
