14
Coordinates from ORCA-job run
  C   -0.36604705351484      0.01301817604052     -0.19397755972459
  C   0.00218226348154      0.00243725684916      1.12698307095706
  Cl  1.69326997677169     -0.01381605599593     -1.92703244171778
  Br  -2.90921420680520      0.30149250935757      2.18269782703625
  H   -1.37871841605727      0.27483413400112      1.27475074873632
  H   -0.46531852772160      0.98385248651043     -0.65974562999855
  H   0.42805395641532      0.91053736325638      1.54595906792172
  N   0.27198992588535     -1.16605366162280      1.86947644108638
  H   -0.14238420929013     -1.97741881313408      1.43131961032892
  H   -0.10773217040141     -1.07865668695787      2.80455783806459
  C   -0.98334156531448     -1.17307035849490     -0.85697759043762
  H   -1.92033293328209     -1.43631001110755     -0.34598155388430
  H   -1.18389756435749     -0.95510855794146     -1.90252452549154
  H   -0.30206947580940     -2.02456778076061     -0.83463530287685
