14
Coordinates from ORCA-job run
  C   -0.21691579579587      0.00078733808420     -0.31093187251786
  C   -0.10802311284907      0.14768641838750      1.11287954636191
  Br  1.78163769119449     -0.23809156055179     -1.31034538582883
  F   -2.54430288582165     -0.29198867847234      1.65118558470920
  H   -1.41086408460912      0.12612240722519      1.39690022559132
  H   -0.49068644301737      0.92942387292684     -0.81293280036450
  H   0.37552811188542      1.08025119337078      1.41519740020036
  C   -0.97701612381285     -1.19820857904753     -0.82153838259268
  H   -0.49349393011645     -2.12490885277598     -0.51031931350755
  H   -1.96368216180942     -1.14859091197894     -0.35144363201637
  H   -1.05495805469439     -1.19621029653594     -1.90927832100157
  N   0.36021828849957     -0.99336456820519      1.88840567872121
  H   1.07861884574910     -1.49189412263318      1.36980539353128
  H   -0.42823034480238     -1.61326365979363      2.03008587871408
