14
Coordinates from ORCA-job run
  C   -0.36495456072283      0.00167520371886     -0.25470613818581
  C   -0.08029357949214      0.10011935935746      1.08765827111140
  Br  2.03162828414301     -0.28362586307742     -1.50673745006454
  Cl  -2.87172661687142      0.07410407260363      2.10760412764967
  H   -1.48340759984149      0.19795223494526      1.45446663815910
  H   -0.54669599319836      0.93367091955197     -0.78433469049760
  H   0.28954369495910      1.06122978903710      1.44173329252529
  C   -0.92756852130388     -1.24019154112443     -0.86401572049720
  H   -0.37279373324933     -2.12131510052960     -0.54609673146721
  H   -1.97234809410468     -1.34327287540268     -0.53651162205065
  H   -0.89045835859816     -1.18864633838677     -1.94969753784098
  N   0.36579538912483     -1.02914989463031      1.86546711079189
  H   1.11534679682641     -1.47457049154057      1.34103691572692
  H   -0.38423710767103     -1.70022947452252      1.98180353463975
