14
Coordinates from ORCA-job run
  C   -0.43803327224404      0.01993831702920     -0.22962912354973
  C   -0.12123619816001      0.09176716156149      1.10012742130491
  Br  2.11096048511361     -0.43306721309129     -1.42513020022020
  Br  -3.05809692525583      0.09834772330768      2.19118849299441
  H   -1.57300043531963      0.20786805917534      1.46095549145556
  H   -0.58369357877817      0.96338028839597     -0.75139633507172
  H   0.24581612121188      1.04596298503636      1.47415668405696
  C   -0.98747815873924     -1.20515064676258     -0.87593880462518
  H   -0.46671572669577     -2.09791033848479     -0.53489200649290
  H   -2.05310757342414     -1.29107066732068     -0.61505351071531
  H   -0.88415311438932     -1.14568590863154     -1.95695137243614
  N   0.29158884128477     -1.04883032648744      1.87382279906128
  H   1.07431400633210     -1.46482094120027      1.37170822291737
  H   -0.45314447093619     -1.73432849252742      1.92030224132069
