15
Coordinates from ORCA-job run
  C   -0.09660828866171     -0.00767895793659     -0.44358168922139
  C   -0.13806621405350      0.00798967827023      1.04552244305107
  Cl  1.63446556351932     -0.18641600667820     -1.12459819328097
  F   -2.56578227448673     -0.33857177894026      1.59703998083318
  H   -1.45515456906286     -0.00434161083951      1.32514024501081
  H   -0.40648984522645      0.96554852532573     -0.83132425287988
  C   -0.93253723838749     -1.12854385988131     -1.02475571358508
  H   -0.50673109493430     -2.08448940381731     -0.72195757551659
  H   -1.93086644473865     -1.04726005667194     -0.58970574911051
  H   -0.97493935996207     -1.07233155628865     -2.11514492792301
  N   0.26859007154420     -1.26502784513412      1.63517340339053
  H   -0.37510943137116     -1.48409422747781      2.38480489060711
  H   1.21219693416148     -1.22754883330300      2.00118592998312
  C   0.49334495384132      1.16518761178269      1.62733582966397
  N   0.98601723781859      2.10510832159005      2.14433537897765
