14
Coordinates from ORCA-job run
  C   -0.31592984764829     -0.00600392617204     -0.19810325588564
  C   -0.15396578542105     -0.09588406339320      1.22431948149960
  Cl  1.42976926440038      0.36414535246110     -1.20990364797124
  F   -2.68174833196174     -0.01588167778452      1.53629964210220
  H   -1.52511409490141     -0.15326486481964      1.47788787048791
  H   -0.83022246593917      0.90940675808115     -0.49189892008195
  H   0.36296212107359     -1.00676693685839      1.54419623767820
  C   -0.88288322237633     -1.22574298814440     -0.88128789247792
  H   -0.26464557683024     -2.10192760330077     -0.67258325839162
  H   -1.88187925650259     -1.37894616828778     -0.46530106570380
  H   -0.94644347970820     -1.09343374529047     -1.96234026222492
  N   0.33633454245037      1.08696072796999      1.92378622391350
  H   -0.42685053837248      1.75136001260690      1.98998140372146
  H   1.07012667173715      1.52208912293208      1.36916744333420
