16
Coordinates from ORCA-job run
  C   -0.20682957678261     -0.00261294942157     -0.35502800120842
  C   0.01990175932072      0.05822675036111      1.02017411730275
  Br  1.94597197547588     -0.18425623795387     -1.58171313132756
  Cl  -2.86454812679553     -0.08990362340295      2.03176787019068
  H   -1.57151492629533      0.07332726984131      1.47669735751343
  H   -0.41639722620470      0.94552136157847     -0.84263996073833
  C   -0.85488633443173     -1.21263820071427     -0.96825816516129
  H   -0.29192434489684     -2.11860627769582     -0.74617441426959
  H   -1.87239593825775     -1.32202304744135     -0.56996466331997
  H   -0.90075209324849     -1.10915970020953     -2.05118809929211
  C   0.43519791784724     -1.17908108014123      1.78443284815303
  H   1.43746798079597     -1.48832717023060      1.46486010297606
  H   0.44742542385048     -0.98359250659426      2.85897087661679
  H   -0.25879283450713     -2.00331077832883      1.60646215583180
  C   0.49339203280111      1.29897126671245      1.55317009109090
  N   0.85670431132871      2.31023492364093      2.03749101564184
