17
Coordinates from ORCA-job run
  C   -0.19034085343836     -0.03000977756573     -0.38007857304282
  C   -0.25334774046131      0.03164105806468      1.06740132282006
  Cl  1.65861055085547     -0.07152359575658     -1.09307288726148
  H   -2.47383119853713      0.08604745453258      2.10141609878858
  H   -1.49262449519775      0.00240381241892      1.41407781668837
  C   -0.87289752094077     -1.20977164120586     -1.03288126495299
  H   -0.39334702404648     -2.15036580703992     -0.75865549466820
  H   -1.91318529261790     -1.23450751855326     -0.68690480892875
  H   -0.85371553109399     -1.12626488606715     -2.12170640215366
  N   0.11732126558328      1.33670352711723      1.58796723977154
  H   1.06010006324660      1.31300675879322      1.96642910362048
  H   -0.52416578100603      1.52687493231074      2.36069935948095
  C   0.32062428224514     -1.13148784190789      1.84315349447873
  H   1.41666220555579     -1.07842148538767      1.90860310580329
  H   -0.09727496324553     -1.10287845771972      2.85789234127473
  H   0.05632896619041     -2.10173011229948      1.41041886468150
  H   -0.51524693309146      0.92300358026591     -0.79803931640031
