14
Coordinates from ORCA-job run
  C   -0.17524508049621      0.06591209400978     -0.43594127973676
  C   0.30279477010355      0.03099071020971      0.92973647253704
  Br  1.38175853642073      0.47278037016125     -1.87688025590975
  F   -2.45890489777416     -0.18886120366192      1.62796907919419
  H   -1.52575447523361     -0.09164642223170      1.50871103669111
  H   -0.74781481405110      0.97221372845436     -0.62292281889754
  C   -0.88239818684982     -1.20262614837032     -0.91672201836689
  H   -0.94496914296865     -1.93167054598887     -0.10778244575243
  H   -1.90103825211604     -0.95853265767119     -1.22642361757382
  H   -0.36584872666578     -1.66613351005229     -1.75527164931216
  C   0.69409021722149      1.25033842208209      1.54871519262995
  N   0.97349522815169      2.27299666607458      2.06729530318828
  C   0.92324015385133     -1.15539542753016      1.41001219622782
  N   1.39124467040656     -2.16427607548534      1.80573480508094
