18
Coordinates from ORCA-job run
  C   -0.16680170683015     -0.01080078811808     -0.35434995424878
  C   -0.13297870301258      0.01708850524394      1.09549500929664
  Cl  1.62920209011621      0.02481523878438     -1.21508088274865
  H   -2.53879769866832     -0.11154681384138      1.83526852343624
  H   -1.37403644623588     -0.00861457390293      1.40447371948636
  H   -0.55358302215756      0.93165809949532     -0.75082138429563
  C   -0.87803247047763     -1.18889184120171     -0.97090960295607
  H   -0.34125836449323     -2.12084080523494     -0.78911058087658
  H   -1.86721815532473     -1.25029172339027     -0.49577462683874
  H   -0.99168332403411     -1.06628377846983     -2.05038189113457
  C   0.41351875777620      1.29476449591644      1.69026200581907
  H   0.01235702903841      2.17136662579961      1.16863103079317
  H   0.10923015151061      1.37336344488494      2.74159995516355
  H   1.50988839655502      1.34614776889322      1.63973074447181
  C   0.40352649352208     -1.21968405895552      1.78139499644085
  H   1.47567253093475     -1.37029033574980      1.59504035233757
  H   0.24786332072565     -1.12572451574179      2.86240755971942
  H   -0.13484887894475     -2.11941494441159      1.46915502613435
