13
Coordinates from ORCA-job run
  C   -0.06377565630430     -0.00754407856391     -0.44448492175126
  C   -0.22175190735156      0.04080251179642      1.04499034493593
  F   1.29543392404396     -0.07410428323056     -0.85627303936445
  H   -2.77397769249790      0.07963476408467      1.13634886025100
  H   -1.47701579730415      0.11342937620394      1.18649930318436
  H   -0.44833700617920      0.92336748869728     -0.87561777725785
  H   0.07330598321496     -0.90392279717495      1.51289158207413
  C   0.44353088386436      1.15164798185168      1.67113711156389
  N   0.93079813346258      2.08517914291424      2.20179866635065
  C   -0.79447387043721     -1.19414102587354     -1.02511635441009
  H   -0.34808462783541     -2.11983920039339     -0.65088719057224
  H   -1.83831057739507     -1.14159252875366     -0.69942153445441
  H   -0.73621178928105     -1.19430735155822     -2.11685505054966
