16
Coordinates from ORCA-job run
  C   -0.38281572810828      0.01261373421594     -0.25832895951129
  C   -0.18983389264801      0.12652985563999      1.10879359775176
  Br  1.94556658907575     -0.14229599514172     -1.35150053404758
  Cl  -2.91087795901770     -0.33101117976261      2.17014535218401
  H   -1.61143405335927      0.01618748618406      1.53401478734205
  H   0.03398780704706      1.12281064301271      1.48226410560745
  C   -0.90305509579116     -1.23378900608014     -0.89200631612654
  H   -0.36466486933880     -2.09057818700334     -0.49125062364146
  H   -1.97034670004759     -1.33186625933378     -0.65675055033047
  H   -0.77013541342281     -1.20706411594282     -1.96869898968930
  N   0.41630455755857     -0.95954010577354      1.83129961562451
  H   1.16467964805386     -1.32785588309663      1.24661307062396
  H   -0.25118751929685     -1.70023180723345      2.01141635855793
  N   -0.83412789894800      1.26355823470343     -0.91570336433925
  O   -1.56624247314760      1.14975672767209     -1.90146394624696
  O   -0.47695699860917      2.33786585793982     -0.43495360375882
