17
Coordinates from ORCA-job run
  C   -0.35638150552881     -0.06718357285789     -0.28962303271414
  C   -0.12499989955589     -0.00179651087994      1.07013681750966
  Br  1.89429819532658     -0.01756878185494     -1.54505297645781
  Cl  -2.80340393094341     -0.29382982531761      2.29374745884026
  H   -1.51896696812046     -0.08140556827359      1.56651325579973
  H   0.13520423064801      0.98594144803446      1.44197730188654
  N   -0.86462797531427      1.20244437256112     -0.88097092409319
  O   -0.53508144766003      2.26426865570836     -0.35775987022532
  O   -1.61796851314375      1.10816599230716     -1.85167529129195
  C   0.48067347444067     -1.18267739815211      1.77936713997121
  H   1.48893463167337     -1.35583966968068      1.38440821433602
  H   0.54143321569158     -0.99338406506532      2.85304588147351
  H   -0.10899934777217     -2.09088812580738      1.63933207173529
  C   -0.85802260747994     -1.30194963255665     -0.96258385513604
  H   -1.88735377784320     -1.49866966865568     -0.63533888199731
  H   -0.83904111681236     -1.18635164521433     -2.04145690721497
  H   -0.22056665760593     -2.14205600429498     -0.69193640242152
