16
Coordinates from ORCA-job run
  C   -0.22674350123861     -0.04070359683064     -0.29475763054511
  C   -0.19972679084172      0.14256063317020      1.16822407746003
  Br  1.70614611634709     -0.21469494837808     -1.15394943694096
  H   -2.57017254078974     -0.61355150026181      1.82158177112272
  H   -1.35484988525682      0.13185629244068      1.44360345847470
  H   0.26591575942355      1.08690216948976      1.45086297302910
  C   -1.01111583025714     -1.23252494230744     -0.73541016361888
  H   -0.49691333008912     -2.13735776463433     -0.41374826819274
  H   -1.97101169516284     -1.18283419910834     -0.19085704631279
  H   -1.15825116490010     -1.25720145117224     -1.81277772377232
  N   -0.73965857684858      1.23402161970983     -0.93023113735598
  O   -0.21813486235084      2.29049519681385     -0.58376921422247
  O   -1.67151169486141      1.14362854609146     -1.73030513228412
  N   0.28266662401493     -0.98429737045495      1.93847646150314
  H   0.98738275388924     -1.50518827703716      1.42983147768132
  H   -0.52754138107789     -1.57759040753079      2.11895553397435
