19
Coordinates from ORCA-job run
  C   -0.01087079049116     -0.05531584991850     -0.34423722047093
  C   -0.09487443304651      0.03429295885537      1.11619419855566
  F   1.32159464117533     -0.03714928231987     -0.88938736824871
  H   -2.31104650220723     -0.70460799424871      1.74076577902672
  H   -1.45145668876514     -0.18603604082792      1.41425218059331
  C   -0.69356000446768     -1.26661842872403     -0.93205779700763
  H   -0.09428862675709     -2.14779509583707     -0.70300560976407
  H   -1.68128061930730     -1.38019535280135     -0.47905364090685
  H   -0.77860514421728     -1.17246624343136     -2.01698931286705
  N   -0.64110535923351      1.19381632213490     -0.94800015244469
  O   0.07848675036553      2.16967328478972     -1.15389528893789
  O   -1.85537859656121      1.16588753120439     -1.15116400776908
  C   0.44262878532892      1.29090340103277      1.76195149722782
  H   -0.02953450445840      2.20064701979036      1.37713394385962
  H   0.22391742279947      1.22689970264291      2.83243739242042
  H   1.53153294816140      1.40944750569970      1.65190705095824
  N   0.36631052362317     -1.16588816872368      1.79086504781621
  H   -0.44862252753540     -1.76870478770857      1.94932100313209
  H   1.06040272559407     -1.67754048160904      1.25858230482680
