19
Coordinates from ORCA-job run
  C   -0.15573423396552     -0.02788535921694     -0.32033657908305
  C   -0.31089932702149      0.07395049867538      1.12174125463288
  Cl  1.68650007925445     -0.10557678676821     -0.91317432854885
  F   -2.69408412427883     -0.62069213425179      1.60839439072633
  H   -1.67542954206961     -0.16426543023248      1.34379481104243
  N   -0.70274981257948      1.24392767643627     -0.96740341534449
  O   0.03618522957690      2.17277502406074     -1.25788087536380
  O   -1.92400667092369      1.24166741101972     -1.11946932596542
  N   0.14519608661265      1.36267687817680      1.61717312674983
  H   1.15752458519151      1.35899650940876      1.74418477655419
  H   -0.27885077512915      1.52994685195482      2.52138932857191
  C   0.24584676795649     -1.12450159395780      1.87270267068054
  H   1.34126466919440     -1.20238466078422      1.78014536790673
  H   -0.00551148326301     -1.01418652814455      2.93240909882508
  H   -0.20654633180853     -2.06290960009499      1.54400934026156
  C   -0.81768508578521     -1.22997233038774     -0.96334664394426
  H   -0.25532235245972     -2.12858929801242     -0.71190755757178
  H   -1.82925945448798     -1.30513051576656     -0.56493559197330
  H   -0.83523822401420     -1.12799661211477     -2.04992984815652
