17
Coordinates from ORCA-job run
  C   -0.20316203607573     -0.01142711308345     -0.27211566332668
  C   -0.07758261214604      0.17809099337333      1.15655892689742
  Br  1.66455007639670     -0.07654688172665     -1.32860985483120
  F   -2.48399143613180     -0.39184185172781      1.75369254607382
  H   -1.31728021228023      0.08266821106023      1.49123950700818
  H   0.36145090433049      1.14548236385877      1.39813392840875
  C   -0.93208409029926     -1.25373852562105     -0.70828639905275
  H   -0.34645599391404     -2.12424166089116     -0.41122757870459
  H   -1.87800871959759     -1.24945136968056     -0.15892088417697
  H   -1.08885401555546     -1.27580537207231     -1.78379733582465
  N   -0.80975122732265      1.23454464065219     -0.90736554646412
  O   -0.40097428006214      2.32580866843579     -0.52484491405620
  O   -1.67896192902053      1.07752151471939     -1.76304651485195
  C   0.54405740990640     -0.98361246887305      1.91011313996273
  H   -0.14713614545919     -1.82843230810375      1.93344369624164
  H   0.71660004414926     -0.69041821969302      2.94959069438624
  H   1.50171426308181     -1.30750062062691      1.48125225231033
