20
Coordinates from ORCA-job run
  C   -0.19050024042096      0.00897277366300     -0.36906576548056
  C   -0.11383144418955      0.10392098319496      1.08299697833533
  Cl  1.52539423851385     -0.01387629851555     -1.28101666085479
  F   -2.47386338614873     -0.51493111542629      1.76289815417464
  H   -1.40930893524097     -0.06160806569549      1.43915457850954
  C   -0.91607330734360     -1.20924103868743     -0.89744152962254
  H   -0.29362583809119     -2.08840300114470     -0.73619510551179
  H   -1.84727879790554     -1.30205219950051     -0.33706478706059
  H   -1.11303527049751     -1.11314649296916     -1.96488205407071
  C   0.55775600419058      1.33499421973799      1.66122526890497
  H   0.05921328512609      2.26481278148563      1.38327353412729
  H   0.53427346449970      1.26581915531589      2.75383407851239
  H   1.60931629961428      1.41934188693972      1.34824236199354
  C   0.44135224065813     -1.17114095913494      1.70422146562299
  H   1.46663626691777     -1.39437382645472      1.37152339804370
  H   0.45183065107830     -1.05393796053588      2.79196095819439
  H   -0.20003689778735     -2.02821684947138      1.49563654990003
  N   -0.84525747465808      1.26614853108032     -0.93769111685508
  O   -0.20926536624897      2.31571177291119     -0.94382840511397
  O   -2.01501549206625      1.15891570320734     -1.30636190174879
