14
Coordinates from ORCA-job run
  C   -0.31660286341642     -0.08555677757659     -0.20635865901228
  C   -0.20000024309205      0.04584030920984      1.14159419093593
  Cl  2.04861768115729     -0.31469818855287     -1.29908116749667
  Br  -3.33415635536005      0.06595185509884      2.01103503319922
  H   -1.90703788865641      0.11073551670537      1.46844793274110
  H   0.08715286918982      1.00243838248117      1.55844133813237
  H   -0.02668091088675     -0.84926009541367      1.72815360299878
  C   -0.78683723490959     -1.32287320341243     -0.88986565916786
  H   -0.51429223185767     -1.30651749087880     -1.93925419845033
  H   -0.30810221579748     -2.18070405870010     -0.41835143695290
  H   -1.87610985641600     -1.40759303450308     -0.79384385976082
  N   -0.55931704362969      1.17564082126584     -0.94902846564145
  O   -0.16435660918164      2.22926750310783     -0.45957750357967
  O   -1.19904709714335      1.08606846116866     -1.99779114794541
