18
Coordinates from ORCA-job run
  C   -0.08229479313033     -0.06886283066645     -0.44385504630854
  C   -0.24222384958762     -0.11779448640788      1.02785589487759
  Br  1.85026958023139      0.30831456165629     -1.06675123382594
  H   -2.34158179596185     -0.24539964549973      2.35677523021046
  H   -1.39918669172413     -0.12471172503862      1.27866034801484
  N   -0.87493793698288      1.11189039524359     -0.98681296864812
  O   -0.53255260317107      2.24892366776618     -0.66957055998933
  O   -1.86231202138962      0.85403858160665     -1.67544730339942
  N   0.33236181072502      0.98494818491731      1.78269433474659
  H   -0.34215518802230      1.13425459535444      2.53827193375300
  H   0.33800757340433      1.82732061399751      1.21920408352716
  N   0.17844801470223     -1.39292121318756      1.56620182706606
  H   -0.52446044675119     -1.60458825758523      2.28065369583977
  H   1.06017095093620     -1.22538828989024      2.04070527133508
  C   -0.50530877324748     -1.33752931867448     -1.13905750657542
  H   -1.53087390920415     -1.57413465044545     -0.84656036244933
  H   -0.44911239512848     -1.22699990635883     -2.22185263395698
  H   0.14677247430193     -2.13491027678751     -0.79394500421744
