14
Coordinates from ORCA-job run
  C   -0.24655354698254     -0.08433054524891     -0.29296429354833
  C   -0.13496261987186      0.06706330071292      1.14172427018263
  Br  1.60308019010698     -0.10273188341824     -1.35046672576669
  F   -2.61601891154789     -0.31403267556691      1.58969681161763
  H   -1.40086456910506     -0.02384791005225      1.46803409987225
  H   0.34238821338957      0.99515567700701      1.44838307327469
  H   0.34234181434167     -0.80743291113516      1.58841417629932
  N   -0.87110557300953      1.16436555044582     -0.90966639465711
  O   -0.53722336465155      2.25175748063764     -0.45171512402687
  O   -1.66709363417976      1.01170254748329     -1.83392776173352
  C   -0.97313037803448     -1.32420919850659     -0.74523806622569
  H   -0.41348212829626     -2.19238474661301     -0.39240511337224
  H   -1.94317685200178     -1.29243658025688     -0.24266445620276
  H   -1.07907864015751     -1.37159810548872     -1.82609449571330
