16
Coordinates from ORCA-job run
  C   -0.12166584994179     -0.08522225905377     -0.39212701179398
  C   -0.24538120312345      0.02105632881017      1.06903107834841
  Br  1.84996316029425     -0.09347744562235     -1.05864838224572
  H   -2.44650596155988      0.17356475079754      2.27562307957672
  H   -1.40344289802842     -0.04936137209270      1.41049627377330
  H   0.21120537032048     -0.87331967276623      1.51746764360761
  N   -0.76583594375617      1.12769947414552     -1.04081037802766
  O   -0.10872192925559      2.13399691080676     -1.26084398377410
  O   -1.97576569582509      1.01121252928000     -1.24449066940781
  N   0.14723823972797      1.28801696038291      1.63326753806343
  H   1.06443900217046      1.24511690251717      2.05612592037029
  H   -0.54969190473159      1.49028318533909      2.35251125911118
  C   -0.73407792540550     -1.35341915061428     -0.94324855437314
  H   -0.18565889913345     -2.20798090704241     -0.54471070804378
  H   -1.77459284350477     -1.40696780540857     -0.61772478108927
  H   -0.68491471824746     -1.38126842947886     -2.03296832409547
