17
Coordinates from ORCA-job run
  C   -0.40083690021886     -0.03018592531555     -0.30551050339336
  C   -0.09608479842201      0.05388585774563      1.03413895682524
  Cl  1.63785774052990      0.04159898537285     -1.62625706331282
  Cl  -2.74251762782970     -0.22936358595821      2.37664311667923
  H   -1.51901124111286     -0.02531021298024      1.60348699725793
  H   0.16699995880588      1.04712564797327      1.38739670206785
  C   -0.90344940580841     -1.28112438519992     -0.94486398039506
  H   -0.21767738873794     -2.09578596854835     -0.71812936332036
  H   -1.90108506888669     -1.51816382480074     -0.55351826327240
  H   -0.95520007298643     -1.16514509614774     -2.02235234690106
  C   0.52687311211695     -1.12104099420929      1.73679091999583
  H   1.51831665269642     -1.31298897670391      1.31028544311587
  H   0.63034494864503     -0.91755881852871      2.80473109245963
  H   -0.07545471828173     -2.02612523649489      1.63297806972008
  N   -0.95144897254867      1.22380335430314     -0.88718692370193
  O   -0.60152992330246      2.29616633026688     -0.40044319141578
  O   -1.75864629465842      1.10900284922581     -1.81101966240891
