19
Coordinates from ORCA-job run
  C   -0.07725785333121     -0.11598326096039     -0.30586556581065
  C   -0.17431446478955     -0.15205843003166      1.15724158931593
  F   1.22201225589105      0.20546917738971     -0.81009971066333
  H   -2.31618044689913      0.60730079556007      2.02822718019432
  H   -1.40756037200782      0.13189679877366      1.48792158949946
  C   -0.52279032981860     -1.35160915329760     -1.04558167626115
  H   0.19545539418701     -2.14756788790233     -0.84446167281019
  H   -1.51535004923135     -1.65907606245932     -0.72062522740723
  H   -0.54260846502328     -1.15522480489329     -2.11918918621404
  N   -0.91465635004083      1.07038632642732     -0.77712500604157
  O   -0.44113041381896      2.19806948725792     -0.63260517909105
  O   -2.05781938287760      0.83597123902200     -1.17547850052691
  N   0.50359930877780      0.93899542502776      1.83758078807739
  H   -0.22926167051196      1.58312233942376      2.15024763749603
  H   1.10026000034069      1.44472441779439      1.19590079624365
  C   0.11625764809520     -1.48156421684420      1.81837530295205
  H   1.18104781940882     -1.75472308869176      1.78875414037928
  H   -0.17110523942130     -1.38035932190980      2.87051912905519
  H   -0.47403738892899     -2.30339977968624      1.39888357161281
