20
Coordinates from ORCA-job run
  C   -0.07640880328472      0.00454319517869     -0.33994506849998
  C   -0.08493219914557      0.04848128155777      1.13645484681718
  Cl  1.65260360949880      0.06844137802708     -1.12366396039759
  H   -2.49620996419557     -0.49966831563251      1.86170698179192
  H   -1.26070454457047     -0.07020174780168      1.42741557955524
  C   -0.76858777611758     -1.21121754973338     -0.90341096629213
  H   -0.14396912421848     -2.08824982199253     -0.73939685615071
  H   -1.71794151030659     -1.32914086631292     -0.36676481113107
  H   -0.94662571112874     -1.10158083419572     -1.97357224680861
  N   -0.77001575329966      1.25469506081895     -0.87028939828294
  O   -0.15889647965391      2.32011946439734     -0.86205968976450
  O   -1.94541474825415      1.12273946468185     -1.21153915950020
  C   0.49475813626053     -1.21857526385269      1.74522935941794
  H   1.52757077517554     -1.40732311411754      1.42794543299072
  H   0.47487160267744     -1.11925538189345      2.83453182156149
  H   -0.12811093338718     -2.08480485979150      1.50901176127522
  C   0.47691052835234      1.29502379093318      1.79196103471739
  H   0.33726988762788      1.20111687127228      2.87392898557651
  H   1.54715245442702      1.42534647842586      1.58887027659499
  H   -0.03745944645694      2.20382077003093      1.47615607652913
