17
Coordinates from ORCA-job run
  C   -0.20172794227875     -0.04331866860992     -0.38359838702263
  C   -0.18142529509212      0.07043921920271      1.07591982302364
  Cl  1.52421655956246     -0.10709309949935     -1.22383499708653
  H   -2.67629810650001     -0.06457363638073      1.73704069735863
  H   -1.37324127089347      0.04419619286014      1.39231776580399
  H   0.18212730472616     -0.88182692351279      1.47575076588002
  C   -0.95295239587335     -1.26487154629501     -0.83799271842232
  H   -0.41030583505427     -2.14729171400710     -0.49565390218660
  H   -1.93941749571224     -1.23681774886312     -0.35858607678330
  H   -1.05627151774609     -1.30194856148074     -1.92187499703202
  C   0.49585625574589      1.25118113293268      1.74072414706758
  H   -0.07712689897963      2.16933361265196      1.59927579536168
  H   0.54823751289659      1.06190244891978      2.81757821252345
  H   1.50999345044601      1.42516587505269      1.36639251991407
  N   -0.82301874842231      1.20363296371817     -0.98974841491969
  O   -0.24070772741091      2.27250316665929     -0.82419515472402
  O   -1.90231784941394      1.07575728665136     -1.56736507875595
