17
Coordinates from ORCA-job run
  C   -0.20109273863764     -0.06839490428460     -0.28638049967299
  C   -0.23498926902591      0.04153070839077      1.16427124844112
  Cl  1.56191641751518     -0.12153508345763     -1.07836313458684
  F   -2.73619338274887     -0.29599630738111      1.49498775204213
  H   -1.55816779258977     -0.03010358023303      1.38439898271729
  H   0.08498367607976     -0.92741717123626      1.56379134151661
  N   -0.77709359960954      1.18285836119430     -0.93921740921637
  O   -0.24314641667350      2.25840592970493     -0.68410818837671
  O   -1.76455321451341      1.05049005046692     -1.66110632963546
  C   0.47805229988781      1.18824966900241      1.85539678621734
  H   -0.05507073877958      2.13350364901132      1.73879142940200
  H   0.53353262098392      0.97479404882621      2.92801432111445
  H   1.49978901696935      1.34115067559511      1.48410850352360
  C   -0.90898033391847     -1.29635489396456     -0.80738074509284
  H   -0.36195250187871     -2.17207674558812     -0.45399087895641
  H   -1.91006389203455     -1.29018824031522     -0.37454552291199
  H   -0.94857015102606     -1.31176616573145     -1.89524765652495
