17
Coordinates from ORCA-job run
  C   -0.05482397191196      0.00040218953768     -0.36280192147528
  C   -0.13592428085867      0.06750396818540      1.09329540690095
  F   1.26488213379430      0.09355260287943     -0.92963816657708
  H   -2.49594558446557     -0.46306687356517      1.60801116332096
  H   -1.46177891300867     -0.06277826010947      1.36893821531989
  H   0.26034459093352      1.01464356162449      1.46518027495346
  C   -0.70126487956214     -1.21893894685103     -0.96111790822610
  H   -0.09481392872964     -2.08673192673861     -0.69604474737943
  H   -1.70179594627630     -1.33609508557530     -0.53557583725660
  H   -0.75542582750363     -1.13885399806805     -2.04760690349956
  N   -0.71931226759890      1.26110222399732     -0.90210831146614
  O   -0.14737435064352      2.32816861149275     -0.68196865659813
  O   -1.79496571655067      1.15513370256220     -1.49435001651318
  C   0.38255948264753     -1.15803855030437      1.81771210351745
  H   1.30755762557914     -1.57911050710982      1.40239940242343
  H   0.57576035624859     -0.90887539806721      2.86625418743235
  H   -0.39085852209341     -1.94083731389020      1.82448171512302
