19
Coordinates from ORCA-job run
  C   -0.03917638935838     -0.05082984034813     -0.49431616758898
  C   -0.11494988119513     -0.04048521083721      0.97607546475304
  Cl  1.71260487514064      0.15029667206242     -1.20089138839495
  H   -2.23472649542239     -0.55074840199677      2.05269834445320
  H   -1.32351876787592     -0.13668725957724      1.31476173892835
  N   -0.80246177614021      1.15591789568454     -1.02560697663397
  O   -0.27197771539039      2.26324929472176     -0.99726920804769
  O   -1.95907167171108      0.94735098950022     -1.39498254484868
  C   0.42232494160278      1.16407655210047      1.71331533979147
  H   0.07528302294411      2.11389384934052      1.30356024031680
  H   0.06755968300733      1.08952579326299      2.74826492946490
  H   1.52097948056810      1.18129504920873      1.71618828494243
  N   0.34735256344142     -1.30731642219066      1.51384050990727
  H   -0.37799687949573     -1.58869729663119      2.18524176096044
  H   1.21766236299606     -1.17475074128739      2.01733357530474
  C   -0.59567980944332     -1.30971362988287     -1.11081744791462
  H   -1.59290700994213     -1.48638423510425     -0.70141732044013
  H   -0.64589942653562     -1.22452501159845     -2.19760437293453
  H   0.05305889280986     -2.13117804642751     -0.81928476201909
