18
Coordinates from ORCA-job run
  C   -0.33105793187484      0.05942595038899     -0.23900425239418
  C   -0.19746380729736     -0.00331103394743      1.22119559260840
  Br  1.59481042814855      0.28565784987370     -1.22423008386534
  F   -2.59602744573529     -0.77352253008203      1.61731771089395
  H   -1.42739086713569     -0.25089777809874      1.49652527998193
  C   -0.96972562179373     -1.14967098433057     -0.89656136590423
  H   -0.31328783500220     -2.01489425272133     -0.80467099782972
  H   -1.89331020221375     -1.32306315695032     -0.33383980321930
  H   -1.16907852233959     -0.96878707884998     -1.95369366601989
  N   0.29981042635018      1.20356875942092      1.86386081168333
  H   -0.38978710814138      1.94100304412947      1.77721488752059
  H   1.14239356225122      1.51913363748479      1.38396379463944
  C   0.51118553701419     -1.23612972741543      1.74042009403377
  H   1.54802566457557     -1.29935201480279      1.37947038285147
  H   0.52373288481961     -1.17686234607813      2.83034334370848
  H   -0.02468459908098     -2.14534185875816      1.46171838095726
  C   -0.97354876776390      1.30192462233965     -0.65551942085581
  N   -1.52078579478062      2.29441889839739     -0.97208068879014
