17
Coordinates from ORCA-job run
  C   -0.22170869161357      0.02229152181632     -0.34601734432396
  C   -0.29095060657179      0.13777968545167      1.11561131061378
  Cl  1.64389931465789     -0.12216544403445     -0.98629487968245
  H   -2.55896021733025     -0.54910998824960      1.83614089338276
  H   -1.49690526338913      0.01543517726953      1.36742907481191
  C   -0.69885420775626      1.22718573256200     -1.01404626958275
  N   -1.14201129948090      2.13615793519223     -1.61419213916360
  N   0.16470584141224      1.42876692197223      1.58467381742096
  H   1.15644080137993      1.35638069404970      1.79706764187899
  H   -0.30700624334502      1.60033747211363      2.46780761878163
  N   0.22138173069369     -1.00333802148082      1.84306055847892
  H   0.88384130861639     -1.53970374625932      1.29469935216228
  H   -0.58147827338460     -1.58467260442536      2.09297668899180
  C   -0.92282645481897     -1.20839877558097     -0.87553916305877
  H   -0.40600625010813     -2.10801947731779     -0.54302213333280
  H   -1.93124918059552     -1.21396209609299     -0.43689899734454
  H   -0.97054230836598     -1.20468498698601     -1.96524603003414
