15
Coordinates from ORCA-job run
  C   -0.16436547402064     -0.01966609731696     -0.38020006484038
  C   -0.30651270211760     -0.02781374494654      1.06561124452788
  Cl  1.73282427627848     -0.08196444475888     -1.01040197433165
  F   -2.71182020645283     -0.58120111518610      1.54201210387340
  H   -1.66787508056040     -0.13651624977910      1.26126453258992
  H   0.09667866658274      0.88101525567532      1.52809966445869
  C   -0.79963281310791     -1.21263640798671     -1.06898019040033
  H   -0.31190147516169     -2.10977077729518     -0.69180318649077
  H   -1.84969026019329     -1.23714828760160     -0.76711504234389
  H   -0.70292051469477     -1.15171691661002     -2.15379609349968
  C   -0.60519681331605      1.25118185765776     -0.94877326183422
  N   -0.98544581100912      2.26662852532497     -1.40394290480188
  N   0.11461362142760     -1.28576505047035      1.66726315648984
  H   -0.60806659229275     -1.57736488727720      2.31326511412928
  H   0.98917117863822     -1.18190165942943      2.16598690247378
