15
Coordinates from ORCA-job run
  C   -0.38590554557766     -0.01252544497504     -0.22768373092251
  C   -0.17866165633015     -0.04272091920211      1.14934729412426
  Br  1.93260920326075      0.17402573823993     -1.30738368544719
  Cl  -2.91868356934282     -0.29420490273244      2.22790237666353
  H   -1.54360284010984     -0.15899134504046      1.57352628880337
  H   0.16094789246136     -1.00258506334287      1.54142884610808
  C   -0.88035704665158     -1.23761815947320     -0.94275094066396
  H   -0.32738827057982     -2.11192902078515     -0.59701821680796
  H   -1.94650055928417     -1.37492004194751     -0.72256332879143
  H   -0.73911274279655     -1.13895888276856     -2.01759025318739
  C   -0.81710840993983      1.25224614057575     -0.76821603344537
  N   -1.25564262250548      2.27616135369593     -1.15359463189826
  N   0.32982919619679      1.09894050169094      1.85931186340581
  H   -0.33479862464851      1.86274490140285      1.80290662334594
  H   1.17490559584750      1.39590514466195      1.37158752871306
