18
Coordinates from ORCA-job run
  C   -0.33839434489412     -0.01347912102711     -0.21965558364897
  C   -0.09543019123037     -0.04686257874664      1.15939393791727
  Br  1.95578084389737      0.19941544134177     -1.30669045076907
  Cl  -2.79627441480432     -0.36877027145941      2.27800251889972
  H   -1.42308059575363     -0.15622625074071      1.57333409513480
  C   -0.82612751644418     -1.22841248907835     -0.95957806135971
  H   -0.14931643010119     -2.06618105925170     -0.79967311236090
  H   -1.82667611444780     -1.49079886844786     -0.59060170984746
  H   -0.87465316145542     -1.02828850785005     -2.02920034436206
  C   -0.80867473881594      1.24890342772414     -0.73243045571989
  N   -1.26841383028064      2.26688101436051     -1.10973895866151
  N   0.38341044825941      1.15420657580745      1.80540821458544
  H   -0.30896539238382      1.89056993591823      1.71567293856575
  H   1.20776220258019      1.45446021808802      1.28220166896322
  C   0.47450089568402     -1.30593579362110      1.75902345699692
  H   1.50660195160970     -1.42787317319826      1.40560672210158
  H   -0.10213219587833     -2.19295657704928      1.49106030885120
  H   0.47203258445907     -1.20389192276967      2.84456481471367
