13
Coordinates from ORCA-job run
  C   -0.19233970988881      0.00215525489098     -0.32888389637938
  C   -0.25425130940500      0.06570051631499      1.12942844594561
  Cl  1.64487173221414     -0.12838491016751     -1.06462098540535
  H   -2.74004665260630     -0.31832416554821      1.60233351913128
  H   -1.47661821715032     -0.03147653583102      1.39588391969298
  H   0.16431755969985      0.97798788284732      1.55775194857265
  H   0.17575710958304     -0.82538467192095      1.59319372512372
  C   -0.92966506940349     -1.19932781615425     -0.87388066692726
  H   -0.44241904821950     -2.11112711569961     -0.52388612492583
  H   -1.94337870109262     -1.16005346186042     -0.44390972611692
  H   -0.96295141184763     -1.20378075304840     -1.96428508891612
  C   -0.66703924398764      1.23848492642896     -0.94494408807366
  N   -1.08023703789572      2.22474084974814     -1.43437098172172
