16
Coordinates from ORCA-job run
  C   -0.44625197384504      0.02194894577662     -0.26776987614462
  C   -0.23996081627549      0.04319423420050      1.10786123677149
  Br  1.86439697837375      0.08843573171476     -1.44797770159887
  Cl  -2.91520002595656     -0.37608939849823      2.27460912549060
  H   -1.60539535919679     -0.08362031327124      1.55382880466507
  H   0.01148057299460      1.01873955594880      1.52272706725154
  C   -0.89547272056567     -1.23804925596593     -0.95903042608533
  H   -0.22677428748606     -2.06310818753640     -0.71991363278554
  H   -1.91075443521151     -1.48090929656334     -0.61617640170635
  H   -0.89559940903585     -1.10368834357120     -2.03890531393907
  C   0.37751676117022     -1.14641619497296      1.79644718590881
  H   1.38787468215506     -1.30053288850506      1.39936158572429
  H   0.43306080343955     -0.97666607066521      2.87366910032728
  H   -0.20608313579254     -2.05560659184733      1.63930914956383
  C   -0.91089858921351      1.25028649615545     -0.85994038265226
  N   -1.36697904555416      2.23840157760075     -1.31204952079086
