16
Coordinates from ORCA-job run
  C   -0.40431888920943     -0.02601372462428     -0.25281344545982
  C   -0.13436461087470     -0.04198154268350      1.10953051911109
  Br  1.85604006878315      0.03146857366905     -1.51785191872397
  Cl  -2.74842919870138     -0.37074626726782      2.42802118191788
  H   -1.47277741636851     -0.15575967869303      1.62110497861705
  H   0.20862338687990     -1.01075045180312      1.47616047384502
  C   -0.93457672792368     -1.25964350926066     -0.93072396697422
  H   -0.35698035381287     -2.12853756249325     -0.61365022011821
  H   -1.98504868794395     -1.40053544972001     -0.64422783970847
  H   -0.85974803599683     -1.17078728351844     -2.01277796706985
  C   -0.84490517587582      1.22557603803571     -0.81672715690870
  N   -1.29407853345128      2.23232136196010     -1.23393614324746
  C   0.43303375332606      1.16240336751474      1.80744597831110
  H   0.37174333873440      1.04833809530339      2.89246369760311
  H   1.48243037683370      1.28302451766439      1.51434576225320
  H   -0.10331329439876      2.07238351591672      1.52964606655227
