15
Coordinates from ORCA-job run
  C   -0.10226488045740     -0.03621501999142     -0.39502401932605
  C   -0.33053380118226      0.04438233656110      1.04919938296611
  F   1.30951842263150     -0.11892624091853     -0.79134546286397
  H   -2.54529144685004      0.40504613781335      1.99754687959199
  H   -1.65577741289438      0.12840825421491      1.41806167897720
  H   -0.00044077241665     -0.88750059987043      1.53454791170832
  C   -0.74372746129657     -1.26760798431621     -1.01459022468014
  H   -0.35802495278068     -2.15348580285922     -0.50452433352595
  H   -1.82749121211927     -1.22876456749658     -0.88571043945897
  H   -0.49849016213381     -1.33705688784137     -2.07701209068698
  C   -0.57836952484709      1.18463016264569     -1.07344126177315
  N   -0.97716728421698      2.11207512116528     -1.67415527715711
  N   0.12485280850484      1.27858645711361      1.65130384846799
  H   0.99365379703656      1.16570144285390      2.15681110980975
  H   -0.60083611697778      1.56579719092592      2.31463229795097
