14
Coordinates from ORCA-job run
  C   -0.21559650995212      0.09004497283124     -0.45804428101586
  C   0.19665991396856      0.06359491731686      1.00797981550194
  Br  1.25453061233657     -0.69596190179157     -1.58737477205182
  F   -1.11789156653110     -2.05935237018855      2.03387404711405
  H   -0.65494969927966     -1.24194457932269      1.73020706235130
  H   1.21668530272356     -0.28961291371549      1.14896342289358
  C   -1.45799692210733     -0.74992439829032     -0.75579224463714
  H   -2.27989984815761     -0.34118857313406     -0.16120038017607
  H   -1.72184327382514     -0.73119017631541     -1.81689365162474
  H   -1.28286156687373     -1.77037027198334     -0.41999462121498
  C   -0.04504915296646      1.27133387429708      1.71733918828827
  N   -0.29063644572386      2.24029405040543      2.35071329061397
  C   -0.40799490214616      1.43945661399215     -1.00708487064367
  N   -0.61610594146552      2.50950075589864     -1.45045200539888
