16
Coordinates from ORCA-job run
  C   -0.19224187862721     -0.02637403928285     -0.30656392903151
  C   -0.27724269726630      0.10122473900735      1.14068941512741
  Cl  1.66169046566565     -0.21256434860207     -0.98896706975904
  F   -2.80504058908467     -0.18525111827321      1.30361271034866
  H   -1.62183411704328      0.03616991221245      1.28855386691231
  H   0.06243834714777     -0.83260877366353      1.60442691128264
  C   -0.91003430055433     -1.24823677961546     -0.85571640109023
  H   -0.44990096945090     -2.14397844040570     -0.43335024017530
  H   -1.94241014542926     -1.17746915442888     -0.50659764033425
  H   -0.85273239693196     -1.29615793203212     -1.94413290900867
  C   -0.61953647569157      1.19090967348497     -0.99781754431867
  N   -0.98624059121798      2.16225952524167     -1.54970795945400
  C   0.36786720411262      1.32662546704914      1.75326318757913
  H   -0.07512892816858      2.24491685312845      1.35465165468983
  H   0.20649665124429      1.33677271212229      2.83589666375971
  H   1.45091042129572      1.37424170405751      1.57146928347199
