16
Coordinates from ORCA-job run
  C   -0.08963579654923      0.08055306960801     -0.35800762612993
  C   -0.15867380724174      0.07539148213336      1.10926542543351
  F   1.26969279869851      0.05628243990696     -0.92137684787741
  H   -2.52301724666837     -0.46243031204667      1.60297470363520
  H   -1.49524849295664     -0.06929355816657      1.38636859569985
  H   0.22340304931103      1.00701912613264      1.53649114751573
  C   -0.79757128844777     -1.10739087871539     -0.98228461487244
  H   -0.25634864594015     -2.01721701422934     -0.71691324076861
  H   -1.81085091632591     -1.16898570575569     -0.56951145998201
  H   -0.82448449616138     -1.01905243002970     -2.07088989906640
  C   0.38041930892820     -1.17678700962429      1.77277831925865
  H   1.27204796683919     -1.59691233377264      1.29012423498500
  H   0.64111727922938     -0.96237149930935      2.81436025647622
  H   -0.40205934352495     -1.95116484764293      1.80209722373995
  C   -0.64747158557432      1.34326546040654     -0.88035611462599
  N   -1.09231878361584      2.34324401110507     -1.30897010342132
