19
Coordinates from ORCA-job run
  C   -0.06629194445384     -0.01703197157720     -0.37423648305256
  C   -0.09501848120687      0.03143358722304      1.09254651180775
  F   1.28466995087443     -0.03706758274672     -0.96623934978112
  H   -2.43702695596531     -0.25563920025391      1.83894286311615
  H   -1.40660274877025     -0.03449552811315      1.43549622514307
  C   -0.77047600928724     -1.23308830281304     -0.95139034266564
  H   -0.19165383502665     -2.12615798264324     -0.71323635833144
  H   -1.76384514605148     -1.31504426152275     -0.49708666639006
  H   -0.85461185096270     -1.15213755814309     -2.03762490161097
  C   -0.66027983478962      1.20863949170285     -0.94794588245530
  N   -1.14642924282713      2.16393146311390     -1.43071889527368
  C   0.49258423988135      1.27719902581125      1.71581388345946
  H   0.16853339501838      2.18601752442493      1.19777867537297
  H   0.13915036877319      1.35792957419850      2.75336664679024
  H   1.59376247756116      1.28118544292807      1.73746709093345
  C   0.38504038202383     -1.23648812672671      1.76705130855207
  H   -0.29153464333040     -2.07574933646106      1.56863652574908
  H   1.40827298921213     -1.52956926913444      1.48978473053992
  H   0.35944688932702     -1.08449698926725      2.85252441809663
