13
Coordinates from ORCA-job run
  C   -0.42558811969273      0.01451898214569     -0.27475680503946
  C   -0.24857308125887      0.06186751816882      1.09903723346366
  Br  1.86553272157915      0.00712399765387     -1.50408863995087
  Cl  -2.96557961085116     -0.29645778118888      2.25035581740696
  H   -1.65616139574428     -0.05427079458643      1.57764470429405
  H   0.06241364649598      0.99979185030651      1.54888654810514
  H   0.11551323473550     -0.84307624709970      1.57871334810449
  C   -0.91430818586307     -1.25417405689072     -0.92193382374711
  H   -0.33121114944198     -2.09980861747857     -0.55652112714895
  H   -1.96836057523556     -1.40011962566952     -0.65196968395309
  H   -0.81350645434481     -1.20538619217115     -2.00364515844512
  C   -0.84356154313197      1.23721000707488     -0.91552915571350
  N   -1.27966948724621      2.22037095973522     -1.39642325737620
