16
Coordinates from ORCA-job run
  C   -0.24661570627645      0.06207750798601     -0.36816182352652
  C   -0.17141882463744      0.05191466358236      1.08657400681612
  Br  1.70411521575873      0.00544112577169     -1.34008503173775
  F   -2.58102534213914     -0.61080983856399      1.54785123558879
  H   -1.42688590585642     -0.08762395269600      1.36182474130987
  H   0.25633285248108      0.97790837370741      1.47866680015647
  C   -0.74550645389082      1.33456804242626     -0.87686457392073
  N   -1.17748015237338      2.35535048414504     -1.27156173555178
  C   0.41639040454524     -1.19893143757327      1.71380101146807
  H   1.39096554504516     -1.46935918895597      1.28660988774058
  H   0.54337303488759     -1.04115180506541      2.78872602308597
  H   -0.27676536600797     -2.03469930902932      1.60081474715162
  C   -0.98368823143981     -1.11786379322095     -0.97916412734525
  H   -0.42822294905400     -2.03743511478798     -0.79259687028658
  H   -1.94197513293444     -1.16621527712673     -0.45226526689904
  H   -1.11367298810797     -0.99573048059912     -2.05504902404985
