15
Coordinates from ORCA-job run
  C   -0.19849526787492      0.02748573889827     -0.34622153867129
  C   -0.16745513853929     -0.04255059924631      1.13283028429958
  Br  1.78519425869312      0.10178729742072     -1.17730095628110
  H   -2.73141432615864     -0.63190449144412      1.50105720678928
  H   -1.31612947321886     -0.22687485991148      1.39132577871933
  H   0.33255746521609     -0.96483523887289      1.44532082935693
  C   -0.74886258135462      1.29592923139571     -0.80440849323669
  N   -1.22381524574429      2.31840602420217     -1.14155090966318
  N   0.34173744658450      1.10140140280508      1.86097036287646
  H   -0.34036855922143      1.84907920164135      1.81523918588517
  H   1.19863796923471      1.43363773032546      1.42852068600493
  C   -0.91592479214718     -1.15260321404644     -0.93776575174842
  H   -1.89941603087930     -1.17305261620059     -0.42266183382183
  H   -1.03273084334212     -1.07631985397761     -2.01961777049570
  H   -0.38463488124777     -2.07347575298930     -0.68993708001348
