16
Coordinates from ORCA-job run
  C   -0.09530718688037     -0.06143548754265     -0.33000486107596
  C   -0.13101671615167     -0.03275571031237      1.13258286094584
  F   1.25074560003045     -0.05850317178853     -0.93216661638438
  H   -2.55023048293720     -0.28378415091204      1.73378732827512
  H   -1.47161117710530     -0.14986243409387      1.45927596413371
  H   0.27783689043825     -0.96973171805070      1.53051283529927
  C   -0.78617600018135     -1.29173949065422     -0.88749175417893
  H   -0.25613024131677     -2.17628725704620     -0.52706691807513
  H   -1.81493187362613     -1.31815838160842     -0.51254297327647
  H   -0.77521361508268     -1.29001765593618     -1.98018821482202
  C   0.42966791586893      1.19744851481244      1.81184806495484
  H   -0.11765074181330      2.09464444184575      1.49938383534013
  H   0.29258335544396      1.11154823874836      2.89653597675320
  H   1.49736455455867      1.37759259385793      1.62256166097532
  C   -0.70412140243311      1.16182911356186     -0.89410648663423
  N   -1.19022887881238      2.12632255511883     -1.35747070223030
