19
Coordinates from ORCA-job run
  C   -0.36594929317805      0.02432399678554     -0.29905528296980
  C   -0.12240578435585      0.01318037508292      1.07688000350129
  Br  1.92311758846898     -0.06606633257725     -1.45975548835379
  Cl  -2.78026322571519     -0.12484685478961      2.30894034836184
  H   -1.44717987716025      0.02733731874983      1.51958829671432
  C   -0.73723799798362      1.28682734689547     -0.88685012590583
  N   -1.12270173980575      2.30159212641538     -1.34689649132033
  C   0.48008749800842      1.24544572353898      1.70343690458593
  H   0.03212680020746      2.16360563760810      1.31890984218764
  H   0.34535398737971      1.22591504452477      2.78851131759947
  H   1.55250802426770      1.26542367180176      1.47161124735782
  C   0.33585670873593     -1.29027759377777      1.68727329105402
  H   1.33485975953336     -1.52695773475471      1.29939621496997
  H   0.38111627020111     -1.19785703373786      2.77499903046637
  H   -0.33999112989908     -2.11538805892212      1.45799582845363
  C   -0.94623785682842     -1.17865247167969     -0.99623692614376
  H   -1.96412287082728     -1.34688019365363     -0.61817446524125
  H   -0.98047816658564     -1.01321226532770     -2.07202328194459
  H   -0.33797869446355     -2.06171270218240     -0.80956026337295
