13
Coordinates from ORCA-job run
  C   -0.15443281918127     -0.01016781939695     -0.31569205947972
  C   -0.23388881343268      0.09891803292681      1.13709539548571
  Cl  1.67422820804727     -0.17627448154454     -1.02565146999939
  F   -2.74019677737302     -0.29936869089385      1.35807977618978
  H   -1.58716745915235     -0.00732142104785      1.33149263449358
  H   0.22357449667628      1.01051171783369      1.52633110329397
  H   0.17878043251218     -0.79109900394697      1.62103578040430
  C   -0.87572075054193     -1.22756576763414     -0.87344194978859
  H   -0.41246469571131     -2.12626479596012     -0.46068087392443
  H   -1.90483119367535     -1.16551138586901     -0.51456445670293
  H   -0.82591691903345     -1.26667377533493     -1.96253744705332
  C   -0.60397939655660      1.21537812301403     -0.97863390643046
  N   -0.98173431257777      2.19722926785383     -1.50324252648851
