17
Coordinates from ORCA-job run
  C   -0.11910860094424     -0.03998487905685     -0.35321531070613
  C   -0.17667076196834     -0.05350449077548      1.10468923365129
  Br  1.93813041283909     -0.12242807350430     -1.08125135394875
  F   -2.59868584305347     -0.49254875085785      1.60736214482859
  H   -1.46292768440655     -0.07605311910323      1.29900331630440
  C   -0.80581422600402     -1.21266999811177     -1.01745934462012
  H   -0.31624587213585     -2.12229288306836     -0.67312476204543
  H   -1.83741077714362     -1.21473594653667     -0.65222834536689
  H   -0.77216448461225     -1.14086637431890     -2.10544404588803
  C   -0.53576468473668      1.24789239538996     -0.89483960556043
  N   -0.90594246465907      2.28153497592396     -1.31851402628082
  N   0.18690430310717     -1.35487773334042      1.65010049310140
  H   -0.60525279818171     -1.64807897246753      2.21297424557567
  H   0.97686444420340     -1.21304263929812      2.26893886777087
  N   0.47162452104065      1.06160507680113      1.77095193166268
  H   -0.16911643892509      1.83995081699984      1.85567485071712
  H   1.27603095558058      1.37220059532459      1.23002171080457
