20
Coordinates from ORCA-job run
  C   -0.27776167380912      0.03548621192433     -0.29350209538700
  C   -0.26698455809616      0.06584844487557      1.14351439343131
  Cl  1.67911708190136      0.07031117635058     -1.03718605935588
  F   -2.81047580510006     -0.10995099898996      1.36424766562201
  H   -1.65640731553733      0.00880692658080      1.29888673643255
  C   -0.80518363216532     -1.24490748763396     -0.90549707601667
  H   -0.19496133321850     -2.10636681202184     -0.63567477330372
  H   -1.82120583270467     -1.38038369462807     -0.52162305779211
  H   -0.82398587966346     -1.16985947426772     -1.99461494316274
  C   -0.86478475608664      1.26880003929109     -0.94252912412242
  H   -0.78641717023241      1.21339431038954     -2.03049826520675
  H   -1.91762939947561      1.30166457814862     -0.64272106617032
  H   -0.36927168252503      2.16432348400725     -0.57660843534344
  N   0.23143930689158      1.33285639174236      1.66738859697162
  H   1.25221252009740      1.31181052410806      1.65853180882204
  H   -0.06288363922614      1.42453807421781      2.63316281450900
  C   0.29393499432521     -1.15763750913273      1.84539259636022
  H   1.36026711998510     -1.30478042362996      1.60871841934777
  H   0.20172708868728     -1.02806345461302      2.92986897737151
  H   -0.24787543404753     -2.07214030671874      1.58950288699301
