20
Coordinates from ORCA-job run
  C   -0.15032095884195     -0.00186332006929     -0.35809718906341
  C   -0.14209912064583     -0.10970597210470      1.10170230821646
  F   1.22575371221298      0.24696187851334     -0.94067521127344
  H   -2.49749810413929      0.25216517416790      1.78179176169963
  H   -1.61904295753415     -0.02674483047824      1.47867204394147
  C   -0.94445843657257      1.19363923610256     -0.84979470243778
  H   -0.96349514228974      1.22132903282955     -1.94398817295043
  H   -1.96637376520369      1.14009760565979     -0.45810201750765
  H   -0.49348972933937      2.12017363344901     -0.49247534515248
  N   0.27255299626104      1.09306111081745      1.81136169848628
  H   -0.55248162033558      1.67009184226804      1.99167865006428
  H   0.92364787693065      1.64335382376997      1.25905555037605
  C   0.49803960145065     -1.34350224337919      1.69671029121103
  H   1.56922761133342     -1.46213778387381      1.44678102676601
  H   0.42966754393499     -1.26715266778796      2.78655206119310
  H   -0.01347678441521     -2.26931101691705      1.40297016030188
  C   -0.58694216975541     -1.27554180967765     -1.05987969275332
  H   -1.58717967780677     -1.56519869526437     -0.72265867199488
  H   -0.60148058852423     -1.12585038792372     -2.14432592254360
  H   0.10909971328005     -2.08669461010163     -0.84116862657919
