19
Coordinates from ORCA-job run
  C   -0.40492910090447      0.04572514437179     -0.24487461847929
  C   -0.19226831326263     -0.08839111165314      1.12005075737982
  Cl  1.87100729222423     -0.15993826246300     -1.10142369998412
  Cl  -3.08574141952353     -0.30571922415897      2.06231845660324
  H   -1.80255004432222     -0.16025873309233      1.52251601748256
  C   -0.92321166978026     -1.17266793031329     -0.95887097539865
  H   -0.51072778610154     -2.08755828692457     -0.54506221263334
  H   -2.01587132776318     -1.19334412835338     -0.83666770600542
  H   -0.68702015647589     -1.11205051592467     -2.02006012835865
  C   -0.74394413894970      1.34396655225345     -0.91324852003528
  H   -0.68211020798332      1.20665594816502     -1.99311419045218
  H   -1.76466617218992      1.63771501240555     -0.64006728574824
  H   -0.07509957989885      2.14659396889200     -0.61824935195133
  N   0.31419219527823     -1.31503898256149      1.59588025528238
  H   0.36203146636933     -1.30349353791807      2.60538545776168
  H   1.25812446129101     -1.41664973577572      1.22192035109494
  N   0.18601548946721      1.09192797835184      1.90523154063988
  O   0.98261001587095      0.92534390196744      2.83806804518144
  O   -0.36705100334547      2.17095194273150      1.66733780762058
