15
Coordinates from ORCA-job run
  C   -0.50773215144327      0.00550651118396     -0.23065835113362
  C   -0.22287162296429      0.00341151936129      1.11307089339018
  Br  1.97280390495508      0.07804924838382     -1.63339874073630
  Cl  -3.01768945213551     -0.06667237731579      2.13489373096986
  H   -1.59130590170572     -0.03358535326280      1.51368916539892
  H   0.09539771627426      0.93016132142258      1.58104594034497
  H   0.14214582014621     -0.91222659540800      1.56870146537787
  C   -0.90634584049824     -1.27310969936408     -0.89835526335018
  H   -0.32714692402456     -2.11318282931270     -0.51572797651223
  H   -1.97157424003329     -1.44909702744672     -0.68794757919533
  H   -0.75558706711754     -1.21023395345512     -1.97379139748600
  C   -0.97288298521655      1.27088517582397     -0.88021390344559
  H   -0.81356754042114      1.23334577700905     -1.95558040364902
  H   -2.04714286108980      1.38391711306324     -0.67255590219476
  H   -0.44350085472562      2.13568116931729     -0.48078167777877
