18
Coordinates from ORCA-job run
  C   -0.21553158696292      0.01016741023686     -0.33119973351258
  C   -0.11447180288790     -0.05491674244567      1.15528382785472
  Br  1.67859820562116      0.21700890264968     -1.19188855790668
  F   -2.61728678143299      0.12199798728620      1.50395318486032
  H   -1.44834713070185     -0.07701008245062      1.42973283858947
  C   -0.97819904386600      1.23870937742177     -0.79704322780670
  H   -1.07569770792059      1.24490103011135     -1.88493608269067
  H   -1.96000292687448      1.19039850697707     -0.31886082518250
  H   -0.47555211062191      2.15700588197788     -0.49136674465735
  N   0.38149937835364      1.12267678835829      1.84879123338636
  H   -0.36919002723694      1.79821192105123      1.91427754122592
  H   1.15525974503883      1.53739275430492      1.33508712609583
  C   0.52477379579048     -1.25630486510988      1.63257988841321
  N   1.01208416179984     -2.25720939219858      2.02189909630011
  C   -0.79599260484149     -1.26201512319592     -0.91900854283354
  H   -0.19377503735900     -2.13261145504427     -0.65598556013409
  H   -1.79568648178613     -1.37471157657115     -0.48779138373582
  H   -0.86788204411175     -1.19532132335916     -2.00717407826600
