17
Coordinates from ORCA-job run
  C   -0.24202464141672     -0.00869272157348     -0.35279898339705
  C   -0.28997191225068      0.04310356225310      1.09116494277695
  Cl  1.67134131703581     -0.06720358527902     -1.06963286244955
  H   -2.63964088952265      0.29096934318953      1.80169657913587
  H   -1.55282722441414      0.05294444847955      1.36374881809958
  H   0.09326083308295     -0.87334932362749      1.56097785688756
  C   -0.82740165051447     -1.29403017913562     -0.88940463972065
  H   -0.32888598214410     -2.16112340279460     -0.45038545482974
  H   -1.88892103135486     -1.32131923048554     -0.60928562630446
  H   -0.73615988992047     -1.35341066501179     -1.97620453235008
  C   -0.81446517692313      1.22407115751304     -1.00204356149866
  H   -0.77341945782681      1.16125196818894     -2.09216457427864
  H   -1.85943191638062      1.30662657611700     -0.66958908344031
  H   -0.28054065949971      2.10649005260737     -0.65498998291782
  N   0.12537519341669      1.28925588945441      1.70344421362684
  H   1.02150291690471      1.18793477816270      2.16207785099592
  H   -0.57619982827180      1.52779133194188      2.40470903966424
