18
Coordinates from ORCA-job run
  C   -0.25034286675196     -0.03664562839225     -0.33732387568611
  C   -0.19692228368950     -0.02899316780243      1.11545285508481
  Br  1.79093639928988     -0.09710680230895     -1.24661114799965
  H   -2.75769790135638      0.07357710124249      1.46075108357075
  H   -1.40222055374564     -0.01351594748152      1.35377968078399
  H   0.17803244485768     -0.97733536308406      1.51347875258762
  C   -0.86215261733649      1.21070900433307     -0.91286188284332
  H   -0.95426113126153      1.15091523988251     -1.99946693207492
  H   -1.86420084464084      1.27697134581816     -0.45204001403503
  H   -0.29484230601595      2.10633183262450     -0.65850682114561
  C   0.41042492061109      1.17563402747481      1.80577148882137
  H   -0.22647862654612      2.05744124684274      1.68633786054121
  H   0.49584384924341      0.99034728468440      2.88109071599038
  H   1.40810919502057      1.40671542576555      1.41483952050798
  C   -0.91373522530674     -1.28203771247160     -0.85915819938814
  H   -1.93706158532662     -1.26278812916000     -0.44569396007931
  H   -0.95255701745120     -1.30169193045474     -1.95049847449829
  H   -0.40747384959367     -2.18195782751265     -0.50416065013772
