18
Coordinates from ORCA-job run
  C   -0.15927250684075      0.01225868561728     -0.34092349379520
  C   -0.02498380406284      0.09048759963402      1.14573760292714
  Cl  1.53808485072095     -0.20531824946412     -1.17225794639026
  F   -2.51795359127216     -0.06696135966757      1.61124988302775
  H   -1.40692985494556      0.11748190099911      1.48176078876466
  C   -0.95635596625703     -1.20801979339805     -0.77265765291226
  H   -0.45485475605521     -2.12784322211038     -0.46880723829264
  H   -1.92810736795241     -1.15076994923383     -0.27826124950652
  H   -1.07576592165708     -1.22513879429751     -1.85862725217082
  C   -0.74408761422062      1.28578577638606     -0.92309407068457
  H   -0.84121350481691      1.20903769904605     -2.00906276097644
  H   -1.73078593036122      1.42405938700799     -0.47249439230569
  H   -0.11959812086222      2.14767924495851     -0.68420504909506
  N   0.48994521788041     -1.08649502638077      1.82984274286587
  H   1.24640209534447     -1.50958225256962      1.29798108259867
  H   -0.25766804631343     -1.76130115530787      1.92736201815517
  C   0.63594000475249      1.28821394392581      1.59159296198267
  N   1.14416481691915      2.29031556485486      1.95274402580751
