17
Coordinates from ORCA-job run
  C   -0.51916887429195      0.01673032020103     -0.21499134430046
  C   -0.33292314265544      0.07895594322255      1.14549130028064
  Cl  2.04305665994208      0.11579642071970     -0.93830227165732
  Cl  -3.19328450059569     -0.00519110991019      1.93766712439487
  H   -1.69020794148620      0.05457139068995      1.36127306682586
  H   -0.06899669951830     -0.86498109775876      1.63069790766051
  C   -0.88746513240575     -1.28697086867914     -0.84122813668268
  H   -0.57752745014047     -2.13283546214105     -0.22655268679674
  H   -1.97678531996364     -1.32341426108065     -0.97435530611886
  H   -0.40637125033055     -1.36873172552400     -1.81586898800541
  C   -0.85603667280884      1.24707101147650     -0.99071887637213
  H   -0.60611027842865      1.11225280484905     -2.04208005607794
  H   -1.93953021704590      1.41167426313271     -0.89346915546291
  H   -0.33534625930453      2.11721994033985     -0.60308238196319
  N   0.16174444478307      1.29748691932664      1.70729738717309
  H   1.11500276980125      1.40161254268136      1.36313642772858
  H   0.17153986444950      1.24006296845442      2.71640598937409
