15
Coordinates from ORCA-job run
  C   -0.24114929766477     -0.00034111922614     -0.29950330253153
  C   -0.15160751066493     -0.00131810893798      1.13428581127563
  Br  1.78235363459801      0.00493299637237     -1.30370372457923
  F   -2.70618742367824      0.01265529003497      1.38501286085611
  H   -1.49974960530407     -0.00673615192689      1.36798652450238
  H   0.27681725823269      0.90777867438273      1.56138766439886
  H   0.29154904289316     -0.90420123653058      1.55963102209673
  C   -0.85125612427431     -1.26166438951222     -0.87337192269282
  H   -0.29895021995125     -2.14418840957178     -0.54453586488675
  H   -1.86899683130565     -1.30637115541003     -0.47295504916402
  H   -0.86970364312869     -1.24447617704436     -1.96460734305651
  C   -0.85734533161968      1.25905620873302     -0.87097244010294
  H   -0.88853963430280      1.23772582356134     -1.96188824694147
  H   -1.86987095916867      1.30537880743214     -0.45793365002077
  H   -0.30060335466081      2.14243894764342     -0.55219233915367
