15
Coordinates from ORCA-job run
  C   -0.22779204525436     -0.00119256063554     -0.31624792703754
  C   -0.20218997985182     -0.00034507326107      1.12564782441351
  Cl  1.65284035683042      0.00380443308854     -1.18522711673384
  H   -2.69141503707594      0.03004327550470      1.52108738623713
  H   -1.47852819706449     -0.00101537672886      1.38572444503274
  H   0.20393409521016      0.90616460368093      1.57994467631985
  H   0.21014040492522     -0.90401962084512      1.58045450023094
  C   -0.84930276723248     -1.25513911413578     -0.87499110363112
  H   -0.31459482788526     -2.14306510810188     -0.53178805062932
  H   -1.87859404336078     -1.28844917563373     -0.48430617745441
  H   -0.86508332255233     -1.25247365382192     -1.96706652125630
  C   -0.85843399607915      1.24773662675918     -0.87453584767672
  H   -0.88101890074260      1.24256523581000     -1.96652383441144
  H   -1.88503839254293      1.27658096331090     -0.47552749057157
  H   -0.32632334732365      2.13918454500966     -0.53648476283190
