20
Coordinates from ORCA-job run
  C   -0.24154068818737     -0.01652276191849     -0.24673192714527
  C   -0.05624207898621     -0.09905974553185      1.18007417286099
  Br  1.78664971405504      0.19210998769687     -1.27409209836469
  F   -2.58948820138066     -0.05582862553579      1.55941006491014
  H   -1.35837807979123     -0.13208691622739      1.43768468752259
  C   -0.79773070554556     -1.26110460393328     -0.90215318454160
  H   -0.15692640567388     -2.12759232605230     -0.74460074836698
  H   -1.77505452015822     -1.43590976463976     -0.43805773782976
  H   -0.92017284123235     -1.11454434493045     -1.97688867548506
  C   -0.93312640835357      1.23968261438921     -0.72963085247454
  H   -1.03018931264739      1.24165481010786     -1.81651303951928
  H   -1.92017323216842      1.23000222597193     -0.25459054130638
  H   -0.39553855550937      2.13843925905645     -0.42994688626432
  N   0.46158617862118      1.09415397911193      1.84171643610123
  H   -0.27273993218875      1.79027852755278      1.89088887445054
  H   1.21911530872780      1.47961967785566      1.27861120170191
  C   0.60200022600498     -1.34964468186101      1.72201547723039
  H   0.65694317621509     -1.26540587185695      2.80940633195177
  H   1.62478809071673     -1.46043013359715      1.33170495355114
  H   0.04070826748216     -2.25627130565826      1.48057349101718
