16
Coordinates from ORCA-job run
  C   -0.18474096207213      0.00495833686779     -0.41286691665716
  C   -0.22091730233810      0.00858038534137      1.09148745805584
  Cl  1.56243829414801     -0.07710462399565     -1.06315735531602
  H   -2.79013118671969     -0.05070322283627      1.32423234787858
  H   -1.43661089683268      0.00388536816433      1.32094956318388
  H   0.18140488533770     -0.91902726079890      1.50948034412767
  C   -0.81214573176740      1.27035560327381     -0.96004151404791
  H   -0.84849032140210      1.24824790479583     -2.05233381343364
  H   -1.82908322512924      1.31943897822050     -0.55156291188882
  H   -0.25541135300544      2.15369189695810     -0.64135722398985
  C   0.39374365432114      1.15364774888457      1.71339633544471
  N   0.84290736718396      2.10598004947678      2.24247687051570
  C   -0.90478912246900     -1.23066325656675     -0.91362831257915
  H   -0.40081535922486     -2.13742544112305     -0.56981063814589
  H   -1.91648965686584     -1.20019122409041     -0.48914928499372
  H   -0.94905908316434     -1.24562124257207     -2.00570494815421
