20
Coordinates from ORCA-job run
  C   -0.31093302421617     -0.03328088311509     -0.27121159207634
  C   -0.19895218970267      0.04472700617362      1.19181435493696
  Br  1.68207350541573     -0.25654194255021     -1.19039806192012
  H   -2.72606686098777     -0.14772324710849      1.69683803254062
  H   -1.37925782240732      0.06917861272533      1.46271553589796
  C   -0.86757455253285      1.22171222766352     -0.89737410776401
  H   -0.99840353521046      1.10061299965470     -1.97508022171036
  H   -1.84991731008308      1.38867086010568     -0.42843117198640
  H   -0.23327267926860      2.08960148953686     -0.72056889919931
  C   0.45461974503891      1.28789866467625      1.76046329514338
  H   -0.09996015242030      2.19709866706490      1.51065763346486
  H   0.47281554436373      1.19035655811545      2.84774491188768
  H   1.48702447284817      1.39417758021675      1.40337743352452
  N   0.28674674971793     -1.15538010342076      1.86226980631218
  H   0.99561366513762     -1.60336909458413      1.28817333219874
  H   -0.49580791670422     -1.79524521007278      1.96684752345587
  C   -1.06729593694752     -1.25275358153223     -0.72046577404342
  H   -0.57548280115282     -2.17824496406981     -0.42318111261550
  H   -2.04172271411097     -1.19107150959887     -0.20035557431079
  H   -1.21210618677736     -1.26249412988066     -1.80295534373652
