19
Coordinates from ORCA-job run
  C   -0.25310026182322      0.01761563015791     -0.31101905045342
  C   -0.27126217386777     -0.12866709743171      1.13270428821617
  Cl  1.67149408683496      0.17514003952608     -0.99381739695428
  H   -2.61331209126166      0.24075426518287      1.80832510473484
  H   -1.51524106986789     -0.05353440961411      1.39023918173940
  C   -0.88980477575847      1.30433347568971     -0.77116183636631
  H   -0.92847695922747      1.35994756443300     -1.86134156528091
  H   -1.90926389559796      1.31834139802235     -0.35534179970723
  H   -0.36005982334415      2.17962461908853     -0.39696147375129
  N   0.23879261447881      0.98729041878854      1.90813216060067
  H   -0.54606364635461      1.58998341333452      2.15255223539360
  H   0.91641859131437      1.51969188196855      1.37256560931009
  N   0.16802726398267     -1.42806926295656      1.60459490060667
  H   -0.29657952832954     -1.57260240590163      2.49770669632171
  H   1.16220526979022     -1.35930372463795      1.81099516914536
  C   -0.78547542046684     -1.18573588281477     -1.04753004840865
  H   -1.83705303962243     -1.30750134824822     -0.75358300551762
  H   -0.72548759494086     -1.04395361862721     -2.12951715589201
  H   -0.24406754593815     -2.08076495595988     -0.75207201373677
