18
Coordinates from ORCA-job run
  C   -0.23771956325707     -0.02430729943117     -0.33944839845896
  C   -0.11100080430853     -0.00293130482576      1.08996110639282
  Cl  1.61492752710051     -0.05796462614580     -1.30201171754688
  F   -2.65237531831345      0.08028496604237      1.44354397088031
  H   -1.49561745740656      0.00277933276575      1.35406524306765
  H   0.30197287116615     -0.94091640915464      1.47527788653334
  C   -0.86541690098177     -1.29551059676475     -0.87145193791833
  H   -0.31507466998521     -2.17010125232675     -0.51819357795790
  H   -1.88533396933259     -1.33117351787457     -0.47758099675291
  H   -0.88029839468984     -1.30974891066629     -1.96321751467756
  C   0.50384642646073      1.22303303286982      1.73371646936507
  H   -0.14004380996842      2.10187142422084      1.62460774216647
  H   0.63152922182892      1.06265306320725      2.80962535673609
  H   1.48845208826369      1.46950830375754      1.30996580585349
  C   -0.85001295305039      1.22056797808933     -0.94800629751555
  H   -0.93844372868378      1.12463164615023     -2.03209130200438
  H   -1.84027694738427      1.33044494710187     -0.49535912036995
  H   -0.25155361745812      2.10576922298473     -0.73097271779283
