18
Coordinates from ORCA-job run
  C   -0.10250095650918     -0.05761636378200     -0.36515647961573
  C   -0.11546218076521     -0.05268827348290      1.09916672916121
  F   1.26423502945332     -0.07986650620944     -0.97116818575719
  H   -2.56276761239633      0.24150192904455      1.53033903734172
  H   -1.58495440316595      0.03535193557346      1.38229855635213
  H   0.27541712768267     -0.99049129642167      1.51251981279508
  C   -0.76221172506207     -1.30947011428616     -0.91286777754610
  H   -0.27237457072759     -2.19481341301813     -0.49784913136736
  H   -1.81719665342305     -1.32075342474188     -0.61934714216674
  H   -0.68381630647369     -1.34770864931976     -2.00481293273462
  C   -0.72962813987259      1.19454554827896     -0.94908220413060
  H   -0.76944720443999      1.13434033378449     -2.04190738814579
  H   -1.74129737445695      1.31273747516545     -0.54527466004108
  H   -0.13916586232701      2.07234146948418     -0.67752210851632
  C   0.41837496991538      1.18295931127440      1.79010303834167
  H   -0.34182053176423      1.98229919921310      1.80919618870094
  H   0.64936984086898      0.96041744410074      2.83885409610460
  H   1.33110655346349      1.60639339534262      1.34181055122416
