19
Coordinates from ORCA-job run
  C   -0.11181650477248     -0.00560574703810     -0.40573849548998
  C   -0.07399581352913     -0.04063866953942      1.11685010087411
  F   1.20834088037709      0.12611977940416     -0.92327484019217
  H   -2.74228989158942      0.18556014535351      1.55670820859121
  H   -1.19999556071378     -0.06668121288413      1.40242536790763
  C   -0.68771337149909     -1.29801448710062     -0.94739586892399
  H   -0.06071045446598     -2.14666831484625     -0.66703880549801
  H   -1.68887947191384     -1.43231713489690     -0.52613064703630
  H   -0.75104447593601     -1.25232263628821     -2.03834060132269
  C   -0.92231327575333      1.18066156654349     -0.88685439253116
  H   -1.06907698134470      1.11855667177293     -1.96906737400919
  H   -1.88771639807393      1.16224071225112     -0.36623814118614
  H   -0.41430992234575      2.12125449502961     -0.66759395641922
  C   0.53703113440486      1.19715646784997      1.79342744481265
  H   0.69855357368242      2.00665795482750      1.08096258092952
  H   -0.15289971143683      1.55815894256824      2.56324659070640
  H   1.50171535612832      0.97705834768025      2.25626171141495
  C   0.55768131524077     -1.25061606767718      1.60982557057692
  N   1.05269957354080     -2.22572081300998      2.04679554679549
