17
Coordinates from ORCA-job run
  C   -0.08559570028337     -0.02822728156948     -0.37888951272920
  C   -0.06668241011588     -0.13563383071115      1.07993358612416
  F   1.27489363909645      0.17076249253353     -0.99132474460821
  H   -2.41803348913943      0.26259856051324      1.72727718378083
  H   -1.52725809888905     -0.06602677703355      1.45834177897709
  H   0.41865216793607     -1.05754060157381      1.42468869639185
  C   -0.85896447054581      1.18037135136039     -0.86824231363009
  H   -0.90583081562613      1.19627057550833     -1.96194374066498
  H   -1.87018181539739      1.16128362292058     -0.44744556307752
  H   -0.37005096836174      2.09687377032208     -0.53305113324828
  N   0.36033763283803      1.02761694201553      1.83943264834332
  H   -0.46287493439909      1.60017225582619      2.04214869751649
  H   1.01204708183108      1.59961462194227      1.31205498748931
  C   -0.58256905435502     -1.30990263434373     -1.01965868309421
  H   -1.63942744571175     -1.46083264055084     -0.77889484614147
  H   -0.46014966114384     -1.27210612520548     -2.10712040242922
  H   -0.01149165773310     -2.15961430195410     -0.63554663899985
