16
Coordinates from ORCA-job run
  C   -0.14079764367005     -0.01952723255463     -0.42012680469442
  C   -0.20408640567677     -0.04579261474257      1.08377560142499
  F   1.21079557529963     -0.00719054400726     -0.89261818585338
  H   -2.72760623723076      0.10068806966203      1.31759785325103
  H   -1.45936603459599     -0.01609300620053      1.30553744292923
  H   0.19778929292419      0.87445379010895      1.51962683710571
  C   -0.78978713773998      1.25399198808248     -0.91948958209851
  H   -0.79665127714231      1.27907311909662     -2.01325111524758
  H   -1.81277214727570      1.29501541327186     -0.53128531344962
  H   -0.23258778060498      2.12089061485077     -0.55339545155904
  C   0.40104998546054     -1.20078849940330      1.68743281836708
  N   0.83812131013527     -2.16653123371987      2.20546212257312
  C   -0.79834854713117     -1.25251511157377     -1.00235624848147
  H   -0.26675032051097     -2.14984979188621     -0.67750943077084
  H   -1.83065671455622     -1.29616173792789     -0.64113415041088
  H   -0.78591591768473     -1.21124322305670     -2.09564639308543
