20
Coordinates from ORCA-job run
  C   -0.50176097256536      0.00532486730665     -0.27538418422201
  C   -0.23840923487089      0.04659897841334      1.08411480599250
  Br  2.12430289247962      0.07625313115193     -1.14953920689731
  Cl  -3.06583657403130     -0.05631201808317      1.98009530841700
  H   -1.55933540552326      0.05683825446763      1.32784886803877
  C   -0.91979933576234      1.24656189620649     -0.99639627558069
  H   -0.65881839086523      1.17290497677377     -2.05140074696912
  H   -2.01364669561438      1.32588052795430     -0.90196007147996
  H   -0.46768375330245      2.13464698556866     -0.56602512023006
  N   0.27418230648837      1.29351264802884      1.57599160490913
  H   1.20088773436506      1.40518811890965      1.16351626015679
  H   0.35750661689963      1.26110988178411      2.58379682532844
  C   0.20705479841596     -1.20563336173116      1.80382788921766
  H   1.23959838776030     -1.42155722908130      1.50653684873704
  H   0.16486985287408     -1.04471370674000      2.88478656918011
  H   -0.42886508163801     -2.06298466815123      1.57941098927285
  C   -0.89471443903844     -1.29065581315542     -0.91290000764575
  H   -1.88811304197850     -1.57974637382936     -0.54069188888440
  H   -0.94228683937398     -1.17904900027329     -1.99605712046460
  H   -0.18313282471886     -2.08207809552050     -0.68399134687640
