18
Coordinates from ORCA-job run
  C   -0.36477077155479      0.00046803079066     -0.26619493213512
  C   -0.18199000615122     -0.06327198488169      1.10952760935164
  Cl  1.86564527614134     -0.22617670303856     -1.14617696264850
  Cl  -3.11584736212271     -0.20775254450464      1.90048347688122
  H   -1.77629792601905     -0.08327844289842      1.43515888716614
  C   -0.91139759019804     -1.20735944607141     -0.96949384926550
  H   -0.46719604264314     -2.12033986047296     -0.58361527942187
  H   -1.99553710698662     -1.24405075690974     -0.79180654438150
  H   -0.72538538516960     -1.13642675707713     -2.04021408656646
  C   -0.69506828808888      1.32571243878880     -0.88717164766229
  H   -0.52982340942456      1.28410634350258     -1.96329295628547
  H   -1.75258310887939      1.55576086507993     -0.69678110183911
  H   -0.08080156064807      2.12608120439121     -0.47516450960052
  N   0.21715749655935     -1.32569612382329      1.67155527100699
  H   0.10833897573493     -1.31573926673366      2.67783668918746
  H   1.19966343678296     -1.46600345571125      1.44132948018861
  C   0.23705961877159      1.12333102944040      1.80532665359072
  N   0.53882375389587      2.06389543012923      2.44896380243357
