17
Coordinates from ORCA-job run
  C   -0.25482448400877     -0.00877801478557     -0.35447182293903
  C   -0.29704621015785      0.04637094397349      1.09730938714104
  Br  1.82006119171792     -0.06636994309248     -1.10174222084111
  H   -2.70328673006310      0.28354002211035      1.81170157673869
  H   -1.50579413119269      0.03388278479260      1.34919234156926
  H   0.10869261328058     -0.86471703938537      1.55790006536280
  C   -0.84171247036934     -1.29646456273271     -0.88198240904216
  H   -0.34169534248637     -2.16496513914883     -0.44774042730301
  H   -1.89945793585290     -1.31715402966006     -0.58329897969658
  H   -0.76961536516543     -1.35842706436034     -1.96984989351638
  C   -0.83624917963628      1.22060373230913     -0.99954473147704
  H   -0.79735978383011      1.16489596335643     -2.09000372164866
  H   -1.88270449121095      1.28273205487356     -0.66275850743578
  H   -0.31739363988805      2.10961734318233     -0.64618132399769
  N   0.13007286321108      1.29489100515996      1.69944014021839
  H   1.01925223931896      1.18318795632851      2.16886661118645
  H   -0.57650914366670      1.54802398707897      2.38874391568080
