18
Coordinates from ORCA-job run
  C   -0.50404217839723     -0.03123879569367     -0.23667497862832
  C   -0.14305429490156     -0.03296004341600      1.08762159356131
  Cl  1.83220493411286     -0.16442009498878     -1.56806214515991
  Cl  -2.88604491382571      0.21241634625602      2.20707102912657
  H   -1.51966786934712      0.05318353207564      1.50502182917084
  H   0.10298132679116     -1.00739407885132      1.50798792243474
  C   -0.83913754028920      1.25626534512277     -0.92374956865671
  H   -0.90406418669930      1.10744294686064     -2.00020197588288
  H   -1.80867323492535      1.61382940520552     -0.54581080594317
  H   -0.08063615409511      2.01372592023234     -0.73668063814184
  C   0.49466656674662      1.16008505488148      1.75021007703152
  H   -0.12113715447432      2.05667247990814      1.65095982816206
  H   0.63795228539712      0.97779796683775      2.81770478712863
  H   1.46774775712549      1.34652005409953      1.28405087882163
  C   -1.05691196598962     -1.27618259683325     -0.85381618676531
  H   -2.15117430810720     -1.26807327264015     -0.74922329971808
  H   -0.79719719226792     -1.31418242754431     -1.91043939627338
  H   -0.66292187685361     -2.16878774151235     -0.36607895026769
