18
Coordinates from ORCA-job run
  C   -0.20218899805271      0.03832027261156     -0.32408982911087
  C   -0.16193083618943      0.02764034088856      1.12258089935987
  Cl  1.67008720446071      0.07965500021080     -1.17466671002752
  H   -2.63388053487842     -0.15504037788738      1.57225778309530
  H   -1.41942496907023      0.00500247301423      1.37400724407961
  H   0.20992542712508      0.97080387670199      1.53524230273615
  C   -0.81539925055429     -1.20765715711382     -0.90839005520302
  H   -0.23575806543296     -2.09788644939248     -0.66226456096554
  H   -1.81583777212311     -1.29735663601349     -0.45475370133776
  H   -0.90183554381175     -1.13900369252153     -1.99526735696521
  C   -0.84700547850334      1.29206980975672     -0.85902976399586
  H   -0.84582816643654      1.31608517764458     -1.95120497988398
  H   -1.88275010917356      1.29524238944001     -0.48711927214599
  H   -0.33649550791992      2.18253023910709     -0.48624925359931
  C   0.40321821180984     -1.19412700096325      1.81472221146701
  H   1.37670898596131     -1.49255281956884      1.40719998198214
  H   0.52677648679774     -0.99849277005758      2.88475196993945
  H   -0.28720108400842     -2.04101267585717      1.72913309057555
