18
Coordinates from ORCA-job run
  C   -0.13793517589167     -0.05987161359656     -0.40244459089342
  C   -0.18014846520388     -0.04329740968987      1.11791132807139
  Br  1.79599313196783     -0.20869027345774     -0.99292418906665
  F   -2.78848498987764      0.13144254160272      0.87003916273020
  H   -1.33348782313766      0.04930660366000      1.25170811647626
  C   -0.92158052575465     -1.27066245395000     -0.93136538292106
  H   -0.29738463857368     -1.92985739359747     -1.53525009520202
  H   -1.32944490429638     -1.82693479978403     -0.09202200506972
  H   -1.76439961692714     -0.91642416756473     -1.52563388622216
  C   -0.69244063567185      1.24117017347196     -0.95015554889110
  H   -0.71446505913129      1.22176005143044     -2.04269233424712
  H   -1.70829227072818      1.27748470152425     -0.53702535303807
  H   -0.11274863088328      2.10644785769930     -0.62150426906362
  N   0.29977819724569     -1.29064234813787      1.70401588249171
  H   -0.05248007633709     -1.36059558819420      2.65081186980314
  H   1.31408040559100     -1.29074698002670      1.74137168864266
  C   0.47821039056007      1.13431444287186      1.68562369770627
  N   1.01259068704980      2.04495665573864      2.20704590869332
