17
Coordinates from ORCA-job run
  C   -0.51792596974645     -0.00391682982957     -0.21646972745804
  C   -0.33272411162158     -0.08301584658176      1.14330124918753
  Cl  2.04005234369473     -0.13044912583734     -0.94273814870167
  Cl  -3.19236557433751      0.03550199898039      1.93474326522147
  H   -1.69048162715044     -0.04157720516130      1.35972045939005
  H   -0.05558953183373      0.85194091894452      1.63841898312656
  C   -0.87411411793247     -1.22083291322365     -1.00472798494509
  H   -0.37529365764247     -2.10476734649699     -0.61936674402705
  H   -1.96164472198555     -1.36321502685299     -0.91818074038837
  H   -0.61219498460400     -1.08320984485873     -2.05276171922237
  C   -0.86743212906485      1.31171057989767     -0.82861727061131
  H   -0.39551660865160      1.39275702321674     -1.80774628486006
  H   -1.95730710284967      1.37008422602431     -0.94930069231770
  H   -0.53457695314584      2.14626934936285     -0.21054753205055
  N   0.14505627237896     -1.31405688430270      1.69252647208407
  H   0.15776325588862     -1.26624147281262      2.70210464409291
  H   1.09611521860384     -1.42863160046885      1.34559177147963
