16
Coordinates from ORCA-job run
  C   -0.19143238119223      0.00423936189553     -0.34546914295673
  C   -0.26318826236233      0.08131115430505      1.14838813602593
  Cl  1.57596714868567     -0.09773677679218     -0.97124589060343
  F   -2.80821056532235      0.03243314168140      1.18939640947672
  H   -1.64053172858181      0.08007503077715      1.30034512978292
  H   0.12885306726484     -0.82614282714519      1.61752196627284
  C   -0.87225524038678     -1.26598952755636     -0.82942917188362
  H   -0.37318897055468     -2.14608378871957     -0.41585337281226
  H   -1.90002828360233     -1.23187216536109     -0.46360850192455
  H   -0.85064742803985     -1.33385957967390     -1.92015258522949
  C   -0.79853053521002      1.23750105655317     -0.99104991535550
  H   -0.78476396389242      1.15699773946674     -2.08118646897877
  H   -1.82677768965223      1.30453049278826     -0.62845358733203
  H   -0.25403043813458      2.13656349127416     -0.69624295813408
  C   0.32628553394679      1.25304928499133      1.72662872436460
  N   0.75649973703432      2.23577391151550      2.21811122928744
