20
Coordinates from ORCA-job run
  C   -0.22347544775204     -0.00035634242320     -0.38489170721639
  C   -0.23846689742806      0.02818833343315      1.07057233184110
  Cl  1.65602963817878     -0.01318036689845     -1.11722562993771
  H   -2.52515008048729      0.16379428578011      1.96182973253118
  H   -1.47773818862854      0.01997024514276      1.38232644201782
  C   -0.82042625400882     -1.25897574562294     -0.97987653105385
  H   -0.25427518533239     -2.14953329740761     -0.70892532210423
  H   -1.84443276301835     -1.35867038278224     -0.59611195390360
  H   -0.84766569992816     -1.19462608310682     -2.07024163929530
  C   -0.82543849545970      1.24632846265256     -0.98923415162351
  H   -0.80050074470126      1.20845066196483     -2.08131656490492
  H   -1.86662718810047      1.30639204266605     -0.64305336240831
  H   -0.29938191601793      2.12665882380081     -0.62843378885265
  N   0.15932616602762      1.30566472550873      1.63680525143664
  H   1.09050207197700      1.23785771806384      2.03584618220863
  H   -0.49760673758687      1.50612980584327      2.39299821387032
  C   0.32788477158776     -1.16200480074425      1.81177409512623
  H   1.42695812136330     -1.17191778222239      1.78307343644153
  H   0.00382945265353     -1.09641581896935      2.85778984571724
  H   -0.03047462333812     -2.12000448467886      1.42505512010980
