15
Coordinates from ORCA-job run
  C   -0.18907320785412      0.05428800417276     -0.33882875580852
  C   -0.07255382653494      0.03759449808689      1.09408896183572
  Cl  1.63300963464128      0.11215579043265     -1.31413132290941
  F   -2.62136409783328     -0.04242582946244      1.45314830818643
  H   -1.48467776134978     -0.00034964566698      1.38434880392885
  H   0.36303726361772      0.94644604034878      1.51681714036282
  C   -0.78959819064835     -1.21242592968087     -0.91529106969942
  H   -0.20308563960292     -2.08321556690371     -0.61490824166697
  H   -1.79631833737170     -1.29919195867943     -0.49742400706599
  H   -0.83138677089933     -1.17937906689118     -2.00605117926713
  C   -0.85071028960639      1.30557302296441     -0.88099770014683
  H   -0.88942956151450      1.30174058794415     -1.97238930826871
  H   -1.86171403708697      1.32971816854682     -0.46492840336704
  H   -0.30927817464362      2.19579270279044     -0.55417006327777
  H   0.40166299668689     -0.86266081800227      1.49285683716398
