19
Coordinates from ORCA-job run
  C   -0.12115761554503      0.05595390984045     -0.42689886225947
  C   -0.15038695150124      0.01965432988797      1.08438647030280
  F   1.22748072292858      0.08674213124428     -0.91196113554508
  H   -2.63661791102435     -0.33258119772932      1.40247548256563
  H   -1.38225559342483     -0.04063935887646      1.32321950395611
  C   -0.80097251456778      1.30772740668376     -0.94174003970044
  H   -0.79170471779098      1.32103593302256     -2.03577655148636
  H   -1.83377323572367      1.31527409171804     -0.57970094731880
  H   -0.28608975044822      2.19791023949911     -0.57456127642726
  C   0.41172095884010      1.20749229112930      1.66932212495751
  N   0.83440783328057      2.18533489079721      2.17813141478513
  C   0.40576332593038     -1.25309446453165      1.71237278638845
  H   1.35898187309866     -1.56160270432708      1.26938565661264
  H   0.55684699939071     -1.10741422217738      2.78530809126962
  H   -0.32743767476971     -2.05898318567187      1.59730850234962
  C   -0.75986536778723     -1.19179204579697     -1.00109687698981
  H   -0.14917823422540     -2.06926845768475     -0.77950894473727
  H   -1.74887905447037     -1.31409362247907     -0.54698437675700
  H   -0.85086309219018     -1.10165596454813     -2.08767102196599
