19
Coordinates from ORCA-job run
  C   -0.18580767592230      0.00303823023606     -0.35329606358780
  C   -0.27974229092255     -0.14309444853136      1.09417657131086
  F   1.24612017394162      0.18559302064483     -0.83779597560596
  H   -2.54687650187311      0.29837031760021      1.98566954207544
  H   -1.76531210165294      0.04053501184919      1.54144623357118
  C   -0.65504640441477     -1.21848915454906     -1.11582649617928
  H   -0.13063241003231     -2.09442452014794     -0.73865806017236
  H   -1.72820427117837     -1.36594734085164     -0.95798817850675
  H   -0.46135693572615     -1.09278890629915     -2.18659565998013
  C   -0.85929855152437      1.26896655648626     -0.85351370283942
  H   -0.78091240430927      1.34146043679131     -1.94319300829041
  H   -1.91434093339608      1.26665862895448     -0.56007448912341
  H   -0.38914913833650      2.15165193302562     -0.41759899669180
  N   0.24967487222645      0.96926242336209      1.86535291310145
  H   -0.51465880072778      1.57623457464112      2.17078944923088
  H   0.90483581294770      1.52355306318510      1.32384205425740
  N   0.13265189649046     -1.44094067918194      1.60535202114528
  H   -0.43785788569043     -1.62685073315258      2.42926613546143
  H   1.08835355010069     -1.36464841406259      1.95376571082341
