17
Coordinates from ORCA-job run
  C   -0.15922874539140      0.01051324972362     -0.37274897564687
  C   -0.06920561396385      0.01598069609122      1.13645138675201
  Br  1.74333219990026     -0.00928949898840     -1.18495715989896
  H   -2.62989925957577     -0.01216915472944      1.32723659396323
  H   -1.26643151841907      0.05855223632200      1.36860970303051
  C   -0.85935158151629     -1.22948915131024     -0.87312331763798
  H   -0.30890715547161     -2.13665105337525     -0.62457498769969
  H   -1.83916947729757     -1.24498129836154     -0.37461166214862
  H   -0.98692631948604     -1.16409189188880     -1.95405817067856
  N   -0.83175366925572      1.17267575464343     -0.89096406625139
  H   -0.39041062081029      2.00454920380942     -0.50826754079413
  H   -1.76930978759344      1.11677035122034     -0.47146467961246
  C   0.52397089805287      1.24001126802370      1.64082855756650
  N   0.95143731415465      2.26206410516705      2.04134026823753
  N   0.45923367250125     -1.15368457973725      1.80613578060613
  H   1.24684987628610     -1.53087031760513      1.28829405705536
  H   -0.27630021211407     -1.85065991900472      1.84651421315739
