17
Coordinates from ORCA-job run
  C   -0.31603948417884     -0.06065121221944     -0.25931667798594
  C   -0.11430807703107     -0.04610906067683      1.15420542440045
  Br  1.74376286217089     -0.05702452334239     -1.33952026979770
  F   -2.61508734564338      0.41253626364040      1.41207021636466
  H   -1.46550516019309      0.08213983597441      1.39731380790728
  H   0.28168155755553     -0.98976874301462      1.53676006126566
  N   -0.91440366761670      1.10972847067313     -0.86297571453908
  H   -0.32527896225961      1.90931009950443     -0.66132584032291
  H   -1.77809774676154      1.22285722488811     -0.32536795804241
  C   0.51468557039531      1.17922900030168      1.77976818364420
  H   -0.13000866144097      2.05592949419889      1.66657548610542
  H   0.65705667108002      1.02968136087382      2.85444261416265
  H   1.49177236582297      1.40410368623285      1.33044642054165
  C   -0.93219773724897     -1.31821693689603     -0.81884291199699
  H   -1.96558679107787     -1.34636790722544     -0.45521353812742
  H   -0.92576217617704     -1.28590951597554     -1.90707790519821
  H   -0.40235321739564     -2.20636753693745     -0.47054139838132
