20
Coordinates from ORCA-job run
  C   -0.27820631700470     -0.00451773452518     -0.30921304636406
  C   -0.09031423993370     -0.00658336319031      1.11066240337199
  Cl  1.60468815281402      0.10741873645741     -1.29496011935609
  F   -2.60175338687333      0.37705401273116      1.43382213532537
  H   -1.49106333019340      0.10742896081842      1.36365195762377
  C   -0.83328613935749     -1.26549803604774     -0.93154812643774
  H   -0.20965704427403     -2.13560138525304     -0.73036963769186
  H   -1.83346904338793     -1.42254929305167     -0.51127883406643
  H   -0.91112075168925     -1.11936207511060     -2.00774987393112
  C   0.47245835507518      1.26892329114135      1.70450218079656
  H   -0.14412910577457      2.13830379825148      1.46267642017417
  H   0.49831652986733      1.19645596226668      2.79721811772913
  H   1.49635983475123      1.46130725171490      1.34901404897801
  C   0.53246420063720     -1.25013073394364      1.70836509560068
  H   1.56261150564052     -1.39581610931305      1.34685488795320
  H   0.56883274353088     -1.16833015531409      2.80062512658696
  H   -0.03443912471909     -2.15560744983095      1.47711812754678
  N   -0.93386861707053      1.15461327912711     -0.89368731029134
  H   -1.76745674036017      1.27685367496772     -0.31675123969066
  H   -0.33949748167819      1.96189736810404     -0.75097231385731
