19
Coordinates from ORCA-job run
  C   -0.21960064045947     -0.01811493971239     -0.30551235011757
  C   -0.08681181042892     -0.03467576232219      1.13744495893202
  Cl  1.70430597754551      0.08820143479628     -1.17092339992047
  H   -2.43598592157956      0.61683552489016      1.46351364230078
  H   -1.34485922669172      0.12561134432762      1.37601309393086
  C   -0.79786955344373     -1.26228776884162     -0.92204993689596
  H   -0.20040223172754     -2.14605239691424     -0.70315001480080
  H   -1.80875964748814     -1.39380928858299     -0.50772151120233
  H   -0.86890497101060     -1.12825121086414     -2.00105263647777
  N   -0.87240369390765      1.13790455365758     -0.84279014165794
  H   -0.36667197164545      1.95467735367567     -0.51638086833450
  H   -1.77005101374880      1.15631339615862     -0.32024292479551
  C   0.44789997509751     -1.28853737123218      1.78773224691376
  H   1.47956074468921     -1.49244900653963      1.47058514918535
  H   0.44588528649238     -1.14251848087289      2.87045174175696
  H   -0.16325584754964     -2.16734301571020      1.56076268402402
  N   0.45588528436264      1.16640613674016      1.74909748943632
  H   1.19592569698057      1.54526005281705      1.16449627624060
  H   -0.29164643548658      1.85364944452935      1.82492650148220
