17
Coordinates from ORCA-job run
  C   -0.11817289537340     -0.02098698170388     -0.40784084045063
  C   0.04168229969407     -0.02978302193674      1.06197557284744
  Br  1.68354516446760     -0.11453983052498     -1.45377212824153
  F   -2.63616472469275      0.28956076173122      1.35910193740576
  H   -1.67623809172860      0.11770315339791      1.42321109225687
  C   -0.87369339351798     -1.25055775271054     -0.88126955349205
  H   -0.36621330722881     -2.16465486021469     -0.57006182183501
  H   -1.87416783314588     -1.22596917841817     -0.44264640042652
  H   -0.94834549506702     -1.22511917179050     -1.96837155143607
  N   -0.74581357262645      1.18173947202310     -0.93453541564147
  H   -0.14652190716565      1.97869252565879     -0.74824225759759
  H   -1.60547031781671      1.30602347702327     -0.40327307194888
  C   0.66858545701364     -1.15353002463965      1.66178344486449
  N   1.12642099202223     -2.11415573136264      2.17395226643295
  N   0.58565235516785      1.24155801606730      1.60503979938988
  O   1.71889969738261      1.60718375410443      1.27801379373149
  O   -0.14964442738473      1.89753539329581      2.35195513414085
