15
Coordinates from ORCA-job run
  C   -0.15937530703333     -0.03537118139638     -0.37297750749055
  C   -0.16044125965883     -0.02842820141272      1.12985867246428
  Cl  1.58594207772815     -0.00675394774940     -1.05179435267550
  H   -2.61271490709178      0.46833159736958      1.22089325600349
  H   -1.42678110393136      0.15162929817906      1.32397708740236
  H   0.30956844251391      0.87573409804851      1.52834066788569
  C   -0.83473685030924     -1.27290634656989     -0.91950855570258
  H   -0.31996268084768     -2.17856670088536     -0.59596788403437
  H   -1.85825136479251     -1.27934075488506     -0.52697728580309
  H   -0.85944412016646     -1.22579834698073     -2.00885187971541
  N   -0.81727155638973      1.13912207573731     -0.91034483904193
  H   -0.32256163027087      1.95483597158981     -0.55834101119092
  H   -1.73044516501763      1.14208932136905     -0.43261072390512
  C   0.33894919460034     -1.20683118206522      1.77587762748007
  N   0.70761623066703     -2.18152570034855      2.32950672832357
