16
Coordinates from ORCA-job run
  C   -0.29521683415375     -0.02832144903089     -0.25852728120571
  C   -0.27365404290822     -0.10943900468655      1.16535552256137
  Cl  1.73335488201657      0.05763646575552     -0.95842430233187
  F   -2.82404646933447      0.21949731933737      1.17799090636115
  H   -1.72747266355426     -0.00352039254341      1.26649268211515
  H   0.09257983611929      0.83147459958876      1.60886628054451
  C   -0.80048726344502     -1.23843103532004     -0.99764664564179
  H   -0.29461899469081     -2.13497381567155     -0.64740576139590
  H   -1.86882199762474     -1.32254569879337     -0.76943161684216
  H   -0.65893268909451     -1.10563431704106     -2.06943727114070
  N   -0.82703889089135      1.19029935548357     -0.81869075284355
  H   -0.35898478922183      1.96530116331360     -0.35938155866663
  H   -1.79426250829409      1.19988385707820     -0.49305601228018
  N   0.30670028099353     -1.33132512402381      1.69796440789475
  H   0.07957469344516     -1.41252632017537      2.68071086072543
  H   1.31990745063850     -1.27932560327101      1.61031054214614
