17
Coordinates from ORCA-job run
  C   -0.25671224398639      0.01149693236665     -0.30813706394574
  C   -0.06782509260975      0.01759588813769      1.10757244782326
  Br  1.82827771108638      0.07300491963700     -1.35864525884932
  F   -2.61674791487741      0.23856827762334      1.29980200125725
  H   -1.43547896496705      0.10128878949586      1.32867515286272
  H   0.31479175654812      0.98111399191415      1.46027747232743
  C   -0.82577524507971     -1.24688999921741     -0.91530199867160
  H   -0.22251499623115     -2.12163684446861     -0.67551658901405
  H   -1.83028911287512     -1.36585790332502     -0.49344017724417
  H   -0.88610059660630     -1.13540068539371     -1.99677665551931
  N   -0.87794187988346      1.17680722545558     -0.88425133734729
  H   -0.39871026601674      1.99207150555972     -0.51444791850484
  H   -1.80794800495768      1.16883145644992     -0.45851081069729
  C   0.59185949270685     -1.17331017266025      1.76499516463985
  H   1.57475277023862     -1.38111419457447      1.32000127880478
  H   0.73363423689561     -0.99118531554586      2.83519622819618
  H   -0.01852164938482     -2.07695387145459      1.67464806388215
