16
Coordinates from ORCA-job run
  C   -0.21244753736577      0.03034900275787     -0.38989297482856
  C   -0.09443015865548     -0.01010745543902      1.10356065284606
  Br  1.63113985799232      0.15060964483174     -1.25398522912196
  F   -2.61140069414951      0.13540270847000      1.28700390350195
  H   -1.43766119248536      0.06457916612218      1.37509387426697
  H   0.33774850243948     -0.93312427566422      1.48553393314872
  C   -0.81149111570801     -1.28441341944165     -0.85999212882674
  H   -0.19008362848154     -2.13295212258564     -0.56802809388516
  H   -1.79250499109394     -1.36938025177591     -0.38601824267404
  H   -0.92015929505964     -1.26403225157958     -1.94470553395740
  N   -0.98686984708059      1.12330711282884     -0.94467228508744
  H   -0.57727619326229      1.97664964885489     -0.57831045753294
  H   -1.88607618885960      1.02748023203959     -0.46748202691275
  N   0.58638004361441      1.07890885406707      1.74324047527215
  O   1.14850454863622      0.85696967442991      2.82581543745904
  O   0.54574788951929      2.21293373208392      1.23701869633209
