18
Coordinates from ORCA-job run
  C   -0.21730384168435      0.09667792965264     -0.39506474765940
  C   -0.07405480044029      0.00705668338116      1.10961974249141
  F   1.05343023016738      0.27058847485004     -1.00741634451869
  H   -2.52977180271017     -0.19187658672833      1.49395621782460
  H   -1.33384973329878     -0.05369378549512      1.42392171639349
  C   -0.82111743570006     -1.16344716057095     -0.97373936669679
  H   -1.76336613457241     -1.37158398646409     -0.45824151054287
  H   -1.00273993087663     -1.00170747293639     -2.03785042945316
  H   -0.14005100027816     -2.00674020096433     -0.84750111240850
  C   0.47656109282230      1.21165581144034      1.65672918845011
  N   0.86740961031785      2.22029716186722      2.13255600688439
  C   0.57275302389406     -1.25652792825559      1.65570129848325
  H   1.50712249465671     -1.51501813654729      1.14302474666425
  H   0.79183959899658     -1.13967223193327      2.72087045118485
  H   -0.12551536096139     -2.09571611909785      1.56077678122433
  N   -1.01650582768038      1.23416936977469     -0.80643688698911
  H   -0.59502410785488      2.06261964864372     -0.39335285883954
  H   -1.91331607479736      1.10861852938342     -0.33114289249261
