19
Coordinates from ORCA-job run
  C   -0.27803218832786     -0.02374868495574     -0.25799281185307
  C   -0.10693492170379     -0.03385945780203      1.15991453557148
  Cl  1.68287607658851      0.10707469805996     -1.16980915261708
  F   -2.57242836344766      0.54468345312286      1.46230472690501
  H   -1.50021835011914      0.14053357850871      1.38868659063761
  C   -0.80751102690705     -1.27613447529638     -0.90960325583576
  H   -0.19100681078435     -2.14514133683357     -0.68419194435254
  H   -1.82590526622145     -1.44345356902763     -0.53864330164443
  H   -0.83885531950427     -1.12475006209707     -1.98745054729435
  N   -0.88453341851751      1.15057579385391     -0.85249226871646
  H   -0.29571311899371      1.94526723890127     -0.63238325695621
  H   -1.75044673499704      1.26491725564256     -0.32203991220912
  C   0.47564825549209     -1.27690040394430      1.79044113629658
  H   1.50659655926119     -1.44905700941770      1.44557551664815
  H   0.49785561855945     -1.14193171862717      2.87430755272982
  H   -0.11002945819785     -2.17408906152117      1.57165988217638
  N   0.44772629761392      1.17658716827960      1.75541621565003
  H   1.22369653372484      1.49953225862719      1.17833653709210
  H   -0.26208436351831      1.89923433452671      1.76662375777185
