16
Coordinates from ORCA-job run
  C   -0.40467932399798      0.00464412574074     -0.20855065544483
  C   -0.16335526934892     -0.10698623576343      1.19218667172742
  Cl  1.45971746192012      0.38401115367757     -1.21955627437197
  F   -2.66484576797440      0.15546678463847      1.64443374370422
  H   -1.57987810512886     -0.11749912276517      1.51862699155626
  H   0.35480232849306     -1.02527721692589      1.47767106044657
  C   -0.86951880529568     -1.25262455523857     -0.89630108976956
  H   -0.23221234533399     -2.09934535554896     -0.63537840435029
  H   -1.89266567346246     -1.45548809293859     -0.56135593894376
  H   -0.86459043448914     -1.10675219059537     -1.97534886502305
  N   0.33666365201410      1.05275439781773      1.91249414111492
  H   -0.41506748007626      1.71970846880672      2.03849751612207
  H   1.06575540634006      1.49794101575066      1.35797594300466
  N   -1.15050081535266      1.15624423855499     -0.67627033661464
  H   -0.63483894692661      1.98578342285932     -0.40536898046273
  H   -1.99918588138037      1.13476916192978     -0.10853552269533
