17
Coordinates from ORCA-job run
  C   -0.08616267642433      0.02857715615859     -0.42585256036439
  C   -0.13686074248536     -0.05080475698689      1.08174885829509
  F   1.25605285634555      0.01551712823285     -0.88470828304987
  H   -2.60887920858991     -0.02515310880807      1.44781009325354
  H   -1.38229683983534      0.04270384375988      1.30268072094732
  C   -0.79603119809564     -1.14822553946822     -1.04799146801257
  H   -0.28740289100433     -2.06727896433181     -0.76246555754201
  H   -1.82148819444900     -1.18338400677405     -0.66794555208379
  H   -0.79614847944867     -1.02517640492939     -2.13299748356240
  N   -0.65836136292764      1.26751578321215     -0.91920522645570
  H   -0.17354062458144      2.03478617237504     -0.46085912302693
  H   -1.61694227624556      1.28665345688113     -0.57141904831129
  N   0.20930126150644     -1.34717685400046      1.64733554519757
  H   -0.46497721692495     -1.55362897212579      2.38091459825312
  H   1.13756733103366     -1.34419046877627      2.05076174892093
  C   0.50734668092745      1.07577358146405      1.70979016862321
  N   0.99131358119908      2.00890195411728      2.24883256891817
