19
Coordinates from ORCA-job run
  C   -0.19308663238914     -0.07674180903979     -0.37630510428209
  C   0.00609560369195     -0.02049595046675      1.11778100724828
  Br  1.62339775443132     -0.09940257193479     -1.32827777229622
  F   -2.46155661624809      0.35709280037821      1.44607106597748
  H   -1.32482367279162      0.04771904216058      1.44406116149291
  C   -0.98179218656844     -1.25526451356593     -0.92284687755505
  H   -0.46619981552488     -2.19852993923233     -0.78917197488275
  H   -1.92616843691889     -1.27560279710311     -0.37092363066863
  H   -1.17941499690646     -1.06215392752093     -1.97832091945682
  N   -0.85338225283551      1.12809658614399     -0.86762031189549
  H   -0.28162680312105      1.93332502666644     -0.64238348838661
  H   -1.70038957992594      1.18794765848126     -0.29778917245333
  C   0.57912690692233      1.27332243493629      1.65714805318953
  H   -0.10608649556499      2.09694259766402      1.45431263626123
  H   0.68587014060536      1.19874591766766      2.73689856696258
  H   1.56427400580049      1.50426413418644      1.23041110430408
  N   0.65150706759615     -1.16903156523926      1.71956469156188
  O   0.53335348625929     -2.28727538951565      1.19676063323907
  O   1.26589252348810     -1.01711773466637      2.78959033163995
