17
Coordinates from ORCA-job run
  C   -0.13215958325489     -0.07804863494335     -0.38732450784977
  C   -0.09333574863613     -0.06824481869069      1.12117054823363
  Cl  1.61419444995405     -0.07723061353796     -1.07918209537059
  H   -2.36367393179519      0.82073438473306      1.39555771980875
  H   -1.32523008590908      0.15901152995498      1.34776708287241
  C   -0.82579986956987     -1.30824802177429     -0.92733561305846
  H   -0.32812076006685     -2.22195042402572     -0.60134215726542
  H   -1.85259904454069     -1.30335714863779     -0.54426776606571
  H   -0.84884404448160     -1.26236339063493     -2.01676184621447
  N   -0.76731617546875      1.10547658495136     -0.92922867000476
  H   -0.20567609541544      1.90667634487542     -0.65701012546568
  H   -1.63522120095078      1.19209090469424     -0.37985844457444
  C   0.35338976172272     -1.30564400108121      1.71013933154342
  N   0.65781242373418     -2.33659819659522      2.19624785826617
  N   0.49024088841986      1.08956442046616      1.75964476357661
  H   1.27350583457614      1.45055776439585      1.22623038393224
  H   -0.24236681831770      1.79599331585010      1.82445353763607
