18
Coordinates from ORCA-job run
  C   -0.08267716745647     -0.01816498963999     -0.40465234154190
  C   -0.03216515140718     -0.04768107993784      1.10832821388850
  F   1.22830116916924      0.09600559235713     -0.94481985351340
  H   -2.42626060947429      0.47177824684136      1.40161703458774
  H   -1.30432243929891      0.05192247979771      1.35699678056511
  C   -0.69779553553175     -1.27669057101575     -0.97270971629732
  H   -0.11810776872905     -2.15317134029058     -0.67794318797366
  H   -1.71775882803910     -1.37344252329823     -0.58958502802851
  H   -0.72288340439953     -1.19376163256223     -2.06074832841771
  N   -0.80583903698681      1.13581809480228     -0.90479703150508
  H   -0.27540599345487      1.95862689857558     -0.63478168322384
  H   -1.67222239248216      1.16721464820926     -0.35566957857390
  C   0.51233216013887      1.22456453359370      1.74012120067850
  H   -0.27265838619473      1.99226091110572      1.72572252910034
  H   0.77153939452601      1.05011316088985      2.78765617970714
  H   1.40319815648901      1.60555638430623      1.22810433120641
  C   0.53894607447755     -1.24326175983862      1.64879538725679
  N   0.97509975865419     -2.23808705389555      2.11510509208479
