18
Coordinates from ORCA-job run
  C   -0.29624054219866      0.00781527035391     -0.24684187842977
  C   -0.30291314259777     -0.13499884299364      1.18864940440255
  Cl  1.77522926924318      0.15451270409788     -0.83663346770243
  H   -2.68004902189206      0.47765952383535      1.32442269878897
  H   -1.57661839387936     -0.01316142866926      1.31527549466180
  N   -0.86555932178460      1.21434569009196     -0.73970997393369
  H   -0.43435801586008      1.98707318996783     -0.24367852497105
  H   -1.83868703774901      1.17457815190572     -0.37706732775377
  N   0.15651907302060      0.99478475716304      1.97291510578374
  H   -0.60351941249180      1.66508080684938      2.06043012931904
  H   0.95296310337164      1.43633176308735      1.52071591943891
  N   0.17400068855179     -1.41823268795999      1.65453559550434
  H   0.00645736877739     -1.43913234376239      2.65467703987453
  H   1.18623455188408     -1.42571363846840      1.52924644220056
  C   -0.79841363848835     -1.17518744258937     -1.01695919135406
  H   -1.86336017764046     -1.28611974748545     -0.75976435929238
  H   -0.70394021195036     -0.98541551599686     -2.08605945447314
  H   -0.27829513831618     -2.08530020942706     -0.73195365206415
