17
Coordinates from ORCA-job run
  C   -0.22449829477812     -0.04644438476904     -0.30119845122948
  C   -0.14023722106879     -0.04099209406064      1.13870592460866
  Cl  1.68688013940948     -0.02443539114380     -1.17386772132125
  H   -2.56410984912538      0.42313887797071      1.34541558023801
  H   -1.43016293370974      0.07191690484205      1.34453392784999
  H   0.21937524748098     -0.98450596341770      1.55800372422528
  C   -0.83646408293603     -1.29943269134196     -0.86335077392906
  H   -0.31576791180659     -2.18931462626088     -0.50568191138818
  H   -1.87937988024552     -1.32463657071244     -0.51227504704415
  H   -0.82086844450284     -1.27285510420010     -1.95259087798691
  N   -0.85303901770254      1.10598388795619     -0.88403589183499
  H   -0.34319738157904      1.93088983852091     -0.58569700787534
  H   -1.76462893259195      1.14218162560746     -0.39326322187824
  C   0.42684417567111      1.18659942688261      1.81442843612118
  H   -0.26949620420063      2.02994989885963      1.72708767536470
  H   0.56425913344823      1.00377826915641      2.88473809450509
  H   1.39366145823738      1.48232809611061      1.39017754157469
