17
Coordinates from ORCA-job run
  C   -0.10847909318029     -0.05871565487724     -0.34863319850648
  C   -0.11751735986079     -0.06824414286716      1.11862329457531
  F   1.24642306265996     -0.04150261417522     -0.92989888979699
  H   -2.52913981159881      0.53730766639108      1.39109259320382
  H   -1.63106670271273      0.17256969569827      1.35269970966666
  H   0.25666115581145     -1.01135357898779      1.53307560357145
  C   -0.76728669694372     -1.28656753829755     -0.94336462845089
  H   -0.29849008564621     -2.19143180461531     -0.54756368178759
  H   -1.82906774863864     -1.29096310443790     -0.67792571209919
  H   -0.66438330707225     -1.26421552407905     -2.03086033805305
  N   -0.71762770871421      1.13650415322890     -0.93675078416974
  H   -0.12273890634936      1.91430646198186     -0.66750131247002
  H   -1.59189064538751      1.27094513534832     -0.42511432963876
  C   0.45077741829896      1.16358098573458      1.78542168593963
  H   -0.29883807977705      1.97574156595699      1.81476668329898
  H   0.70640522110459      0.94982913943603      2.82998811336027
  H   1.35792928800664      1.57309915856120      1.31121519135659
