20
Coordinates from ORCA-job run
  C   -0.25605891466576     -0.00970015320453     -0.28653493398110
  C   -0.13754853664514     -0.01276992685727      1.16532623641786
  Br  1.90144557637816      0.03580466388102     -1.20118385510462
  H   -2.64171799643043      0.46250561839402      1.16709147608979
  H   -1.35420836301311      0.07706706707165      1.33480582575628
  C   -0.83143122973706     -1.25857026807008     -0.88796051491016
  H   -0.24815383174416     -2.14947724096229     -0.66340814588280
  H   -1.84450169344622     -1.35675551808942     -0.45977787250257
  H   -0.90934196867937     -1.13547572565517     -1.96734920715511
  N   -0.91127558971775      1.11549819104969     -0.83925826616756
  H   -0.48244921542275      1.95932814621068     -0.47501750297937
  H   -1.85468842111799      1.05859871955342     -0.37130610488045
  C   0.42147221048001      1.25467434990328      1.78584662302310
  H   -0.23154012675347      2.11270332618887      1.60231887216185
  H   0.49202477710046      1.14054595100133      2.87206909378048
  H   1.42041660087789      1.47141334496616      1.39022452746060
  C   0.42359039452483     -1.26806136144203      1.80226379243071
  H   1.46767935251727     -1.41629240097345      1.50011999683008
  H   0.38741932127575     -1.18590487243583      2.89364688765871
  H   -0.14418234578116     -2.15941191053008      1.52674307195424
