14
Coordinates from ORCA-job run
  C   -0.29289077282517     -0.01347154833866     -0.28294401601124
  C   -0.16545174379417     -0.03939113914640      1.14677097727118
  Br  1.90178873042314      0.02533134648023     -1.27602470307415
  H   -2.64331798266477      0.37145058161636      1.20406148222865
  H   -1.40469113822619      0.05879193772180      1.36008563937985
  H   0.24622126085137      0.86820737415884      1.59138784963512
  H   0.25717535298953     -0.94604310312824      1.58136555730548
  C   -0.87035787095801     -1.25905369819745     -0.87583860188792
  H   -0.32502971391596     -2.14834368622775     -0.55962686328113
  H   -1.90649269148706     -1.31032351418529     -0.49399217564819
  H   -0.88554793647841     -1.19768447857684     -1.96272888479858
  N   -0.93358758909682      1.12989238097666     -0.80373026506980
  H   -0.53711847592691      1.94868493843504     -0.35060645419094
  H   -1.89776942889057      1.03565260841171     -0.39675954185832
