19
Coordinates from ORCA-job run
  C   -0.23944660533543     -0.02438868053761     -0.33028186043693
  C   -0.23758066586392     -0.06577964308595      1.11559021630148
  Cl  1.72627307022772      0.00163632032768     -1.03102114309472
  H   -2.67166626580129      0.35480933207380      1.33823587776644
  H   -1.52366463023645      0.06151711173511      1.27437645209561
  C   -0.82911344333348     -1.24145714044517     -0.98377269009989
  H   -0.33642200161559     -2.14763830243317     -0.64255966879540
  H   -1.88505534479796     -1.27706562708598     -0.67409906392235
  H   -0.77015363365345     -1.14110663525963     -2.06757152309526
  N   -0.80899447390156      1.16360288184169     -0.90717601152766
  H   -0.30603203125137      1.96969823410738     -0.55512555227955
  H   -1.75271472954565      1.20377156700370     -0.49244649301947
  C   0.31113355858744      1.14432721944781      1.84244659403548
  H   -0.22880813391329      2.06005191761636      1.58230352386245
  H   0.17913617541076      1.00182239842334      2.92097665908073
  H   1.37987247355391      1.28912518114816      1.63530827523842
  N   0.18046049955513     -1.34588748860232      1.66176990244376
  H   -0.23726630596957     -1.45226752738417      2.58126250893589
  H   1.19185248788403     -1.34495111889102      1.78060399651100
