16
Coordinates from ORCA-job run
  C   -0.22650385012024      0.10264578518640     -0.36629953275506
  C   -0.02854571624706      0.02538220650244      1.11147431795215
  Cl  1.43012192055790      0.15090055627266     -1.28425558997343
  F   -2.49881602176901      0.35538171478415      1.57783558648854
  H   -1.38703941668377      0.16498613999138      1.52242674907804
  H   0.40837241414854     -0.92511707994342      1.40845858471098
  N   -0.96854182268517      1.25288312133864     -0.78824844164729
  H   -1.65389603713767      1.44511257544888     -0.06517133874163
  H   -1.44713862870990      1.04666204843014     -1.65714149479074
  N   0.75303847148661      1.05793086370734      1.73572945017974
  O   1.47423282595731      0.72918587918290      2.69360769793819
  O   0.63382128122364      2.22908858133716      1.35921785897491
  C   -0.85955172084424     -1.21188890996569     -0.81365611615960
  H   -1.82512829887182     -1.28420408930415     -0.30763933638882
  H   -1.00801980666918     -1.20727405707714     -1.89695625766402
  H   -0.23862559363594     -2.07143533589170     -0.55316213720198
