15
Coordinates from ORCA-job run
  C   -0.20199779493586     -0.00794425149852     -0.34261076120693
  C   -0.17756470017322      0.00203288004180      1.15803264216372
  Br  1.71295707694523     -0.04332328499564     -1.12359019684594
  H   -2.70090987988599      0.28159068643598      1.20649082648711
  H   -1.41716186022364      0.09031795844549      1.34760832721672
  H   0.20094448615472     -0.92397301589826      1.59884198205162
  C   -0.89527270038126     -1.25611705892262     -0.83759242305909
  H   -0.37992853767724     -2.15658814730096     -0.49790250625873
  H   -1.90851495938468     -1.23190953586800     -0.41466228511673
  H   -0.94735129495521     -1.24791978663267     -1.92665891232864
  N   -0.85121420915973      1.15068134447350     -0.90242449800117
  H   -0.38434561274844      1.98236102566679     -0.55002186810604
  H   -1.78209615144313      1.13304266627536     -0.45743392668646
  C   0.44307307607312      1.15935040746102      1.74345752765294
  N   0.90651306179535      2.12797811231673      2.22891607203763
