17
Coordinates from ORCA-job run
  C   -0.26476390802526     -0.04620290618888     -0.26189978692248
  C   -0.13332506012617     -0.04390961752328      1.15911961678676
  Cl  1.64601301927201      0.01661202401259     -1.19860205221103
  F   -2.66567653466909      0.32237195912986      1.36816941180398
  H   -1.57004101111150      0.06556559050466      1.37728753407094
  H   0.26916322170245     -0.98262635665685      1.54847945076567
  C   -0.83211748220833     -1.31043352021961     -0.86109083729669
  H   -0.28806940343087     -2.18809576254859     -0.50719135672813
  H   -1.87686429575853     -1.37890684937722     -0.54047170112929
  H   -0.78393990105416     -1.26067643864150     -1.94797866101025
  N   -0.87270082121136      1.12080331351905     -0.87983192602790
  H   -0.28683516728488      1.92350025183318     -0.68193147230212
  H   -1.74227091296033      1.24042280702602     -0.35874535014958
  C   0.45225026827524      1.18682312333594      1.81755919313117
  H   -0.19385978268591      2.05993053854450      1.67869635525252
  H   0.54415485525576      1.03587010088851      2.89799329717023
  H   1.44805291602093      1.43310174236163      1.42156828479618
