18
Coordinates from ORCA-job run
  C   -0.12970637408065      0.05242836597484     -0.39859432709714
  C   -0.08977437787664      0.00717917647757      1.11244889643728
  Cl  1.59550691638119      0.13325155323554     -1.11047734706395
  H   -2.62004382372877      0.01706315032096      1.27262370249308
  H   -1.32590208764806      0.05070736728862      1.31744849217877
  N   -0.83499078448533      1.21584476520439     -0.89530216186583
  H   -0.39459607127908      2.04348738473087     -0.50161445438611
  H   -1.75980816443093      1.14449748849651     -0.45417016758073
  C   0.48148066775871      1.20254625447437      1.67284191507028
  N   0.89640362469187      2.19594888927816      2.15564082658583
  C   0.44076588887539     -1.26546011758946      1.75184299842142
  H   1.41009977295865     -1.56733073482499      1.33932721470761
  H   0.55552061718273     -1.12516973594775      2.83001793399231
  H   -0.27878599105146     -2.07656412225228      1.60453486180343
  C   -0.78674315425377     -1.18637636410283     -0.96753540498516
  H   -0.20360423138908     -2.08376385848209     -0.75884583826154
  H   -1.77439343222324     -1.26895421995635     -0.49824985659419
  H   -0.89355899540152     -1.06528524232607     -2.04629728385537
