16
Coordinates from ORCA-job run
  C   -0.13278039607486     -0.06314319645313     -0.44613570145780
  C   -0.08442000835626     -0.05559078371020      1.06422398853018
  F   1.18477483091849     -0.04672849945884     -0.96130749546922
  H   -2.55636279665290      0.36585810403010      1.29346705312638
  H   -1.28161949282597      0.06664761432178      1.34620989414629
  H   0.42883745016713      0.83454446643027      1.42866736419912
  N   -0.75888120852185      1.16928784349689     -0.88700116501754
  H   -0.24790348338208      1.93679496807276     -0.45723183313270
  H   -1.68073149380370      1.16766982634319     -0.43481514601292
  N   0.48671189884496     -1.17919705127280      1.75494750560535
  O   0.19521179577470     -2.33210939881217      1.39281939764588
  O   1.17355769110240     -0.94980192655730      2.76745333471962
  C   -0.86295833130566     -1.22741556226698     -1.07027399411161
  H   -0.32053865819408     -2.15316308847342     -0.89939304901591
  H   -1.85369393362180     -1.30527820039940     -0.61545597790880
  H   -0.95877386406851     -1.02615511529075     -2.13918417584633
