16
Coordinates from ORCA-job run
  C   -0.22824323438374     -0.01347121846840     -0.30477268428742
  C   -0.09558523456048      0.13028000955615      1.13104351099211
  Br  1.78108094896068     -0.29965730381629     -1.25896639168081
  H   -2.47916867792282     -0.42369014219740      1.54126382857035
  H   -1.33212062729666      0.10047335375443      1.37827751123469
  H   -0.50290301161571      0.91778747892316     -0.80511697383328
  N   -1.02255997845160     -1.09851056735601     -0.77425296784016
  H   -1.90512775356138     -0.98360430771761     -0.23262355172767
  H   -0.61644981413908     -1.95235371329888     -0.40344811951202
  N   0.33661356347969     -1.04498979285593      1.86546662820135
  H   1.03771208866836     -1.54758336935663      1.32800854316269
  H   -0.47575253491890     -1.64435079106637      2.00202238956488
  C   0.57476307949917      1.38988865429547      1.61914047436833
  H   0.38516490668826      1.51250026285886      2.68903636095717
  H   1.65940088718904      1.33613830202336      1.46520206822452
  H   0.19887539236516      2.27408314472208      1.09204937360526
