14
Coordinates from ORCA-job run
  C   -0.12367221788585      0.10710885622600     -0.39433213808756
  C   -0.04271412021124      0.10571188520388      1.10494859105788
  Br  1.73247641659229      0.11607679164179     -1.24995161743773
  H   -2.29026176743888     -0.86825983471813      1.47297861951986
  H   -1.23685872712495     -0.10276458064521      1.37029877987992
  H   -0.55070711804145      1.04489130612039     -0.75716645964309
  N   -0.84297314758034     -1.01063899401367     -0.94798373497389
  H   -1.67827041851692     -1.08725670856880     -0.34382420096850
  H   -0.30672458687183     -1.84986013637653     -0.74925994476775
  C   0.43628241472920      1.35595928870004      1.65044910606489
  N   0.78330623525941      2.39757530922592      2.07863563816129
  N   0.55345879550157     -1.05148156535478      1.73159011071132
  H   -0.19012605682028     -1.74416817133783      1.82515919901703
  H   1.30885429840927     -1.42427344610307      1.16684805146632
