13
Coordinates from ORCA-job run
  C   -0.12119135123723      0.03759488071050     -0.48468098994754
  C   -0.20301734087847      0.02844601784506      0.98331555075932
  F   1.24270199966168     -0.03334964805384     -0.99802849723430
  H   -2.40184883299653     -0.32467295093666      2.06545581111612
  H   -1.65151923655666     -0.03436460036408      1.53747102586133
  H   -0.49680707743757      0.98018129772033     -0.90450222885777
  H   0.30903354523476      0.88850007299104      1.44446416374229
  N   0.14586930351160     -1.27270345870088      1.53817265361731
  H   -0.52168218125434     -1.48736567550126      2.28588270789742
  H   1.07936097445799     -1.30154929964910      1.92881767546116
  N   -0.80332638076561     -1.08195301753481     -1.11742356961966
  H   -1.79215179819592     -0.92413873868227     -0.93775925510986
  H   -0.55776162354369     -1.86124487984405     -0.50656504768581
