15
Coordinates from ORCA-job run
  C   -0.17628341865624      0.01349377448873     -0.31380423183284
  C   -0.12900800617518      0.01347790758884      1.19219326837792
  F   1.13148671155138     -0.15156132771086     -0.82569478938535
  H   -2.38942097678717     -0.73909315163957      1.75234563897336
  H   -1.32652576483280     -0.13295017781943      1.52713323713351
  N   -0.96658255695413     -1.06761108314084     -0.85264262486428
  H   -1.88151839578609     -0.98535564235017     -0.40442318620667
  H   -0.58308298801072     -1.92522263812130     -0.46435513544591
  N   0.35257087523683      1.28509151242086      1.73105145121285
  O   0.96673482357079      1.31468774054884      2.80241198727802
  O   0.01607123416579      2.31743491792364      1.11941899519797
  N   0.48575963675584     -1.11773514661359      1.78738471339858
  H   1.16333673284439     -1.56384357660674      1.18573545538962
  H   -0.23966325800909     -1.76539444474782      2.08502040289130
  H   -0.54680464891359      0.96363133577942     -0.69241518211808
