11
Coordinates from ORCA-job run
  C   -0.18908875312762     -0.06111090246724     -0.34651397662181
  C   -0.28750226819238      0.12248724783309      1.07235567501570
  Br  1.89812059041273     -0.36062059932562     -1.08097087750552
  F   -2.83199114541895     -0.06678628256094      0.91874039723352
  H   -1.70452114072748      0.13625734590144      1.08786412820011
  H   -0.38363342081577      0.84116582244310     -0.92503580960292
  H   -0.01687550307896     -0.76551505433398      1.65048127759189
  N   -0.87881659981269     -1.19105500604561     -0.93360387898630
  H   -1.82588901536987     -1.08813120272329     -0.56216454916205
  H   -0.49511343423596     -2.02860914606085     -0.50681939398351
  H   0.19231069036695      1.02635777733991      1.45182700782090
