15
Coordinates from ORCA-job run
  C   -0.21058346065870      0.02634738697056     -0.37150823045172
  C   -0.04475323482599      0.05884733913119      1.12559969508319
  Cl  1.41790298270145     -0.20317219262360     -1.19819794588150
  H   -2.35820662490765     -0.51796212783238      1.77154426180344
  H   -1.21596328861635      0.03941751021317      1.50774842251521
  H   -0.56845035912934      0.98549638313445     -0.73452825661041
  N   -1.08807125936579     -1.03086457464704     -0.81630687580566
  H   -1.92302661312368     -0.93016777815097     -0.22630530809177
  H   -0.67394364509919     -1.90984584714846     -0.51887321269190
  N   0.49037180675674     -1.09157851309380      1.74715163490539
  H   1.14855869630600     -1.59921166461968      1.17225531489262
  H   -0.28010864614730     -1.67838479522749      2.05556699219988
  N   0.58369870017703      1.31017177866697      1.57209967287135
  O   1.31214464290664      1.31979766829990      2.56718944586798
  O   0.26831030302610      2.33979942692719      0.95064438939390
