11
Coordinates from ORCA-job run
  C   -0.08661425867092     -0.02453586644307     -0.35220714868598
  C   -0.11275541221850      0.02678907603438      1.11644229341974
  F   1.23189026354745     -0.07075907116801     -0.95485958093430
  H   -2.64295629537099     -0.08921902558502      1.27941289526898
  H   -1.64813619961158     -0.00097934311820      1.31669992542982
  H   -0.53110379560066      0.88226408574029     -0.78455324805549
  H   0.39017393047380      0.91455414580913      1.52300407979756
  H   0.30236627142595     -0.89147062049982      1.55810909125173
  N   -0.79673238152144     -1.16583427457425     -0.92262683831270
  H   -1.74571813729612     -1.07896427457072     -0.55497842392032
  H   -0.41236398515699     -1.98369483162471     -0.45473304525905
