16
Coordinates from ORCA-job run
  C   -0.23775472800801      0.05045168616785     -0.28707731461372
  C   -0.05436218187615      0.06293306101115      1.13078571414223
  Br  1.78981380104488     -0.01868111599435     -1.33530508746500
  F   -2.46232877613743     -0.64435690127235      1.49286512846358
  H   -1.39374818167366     -0.11585563970179      1.37788133318322
  H   -0.56829272587023      1.00380381062856     -0.70193477420854
  N   -0.91332126097335     -1.06043491990471     -0.91001693333477
  H   -1.76170090933344     -1.15869895624614     -0.34599665248164
  H   -0.35554131769915     -1.89015379754193     -0.73967135807927
  C   0.56818844219206      1.30858262515933      1.70720123440543
  H   0.13384707715747      2.21405823841462      1.26956696993356
  H   0.41843882736797      1.33632907947381      2.78988942337407
  H   1.64935098701309      1.32627939767103      1.51003858408658
  N   0.48250299922608     -1.14840313404715      1.73679697482271
  H   -0.24893597077725     -1.84894646871469      1.75778417908574
  H   1.25012391834712     -1.49426696510324      1.16224257868582
