15
Coordinates from ORCA-job run
  C   -0.16270004919546     -0.03962944517510     -0.34067305357442
  C   0.00628443998090     -0.02154772478488      1.14075182450665
  Cl  1.46053313465339      0.10834971686117     -1.26098686317957
  F   -2.53095680724600     -0.02982063388020      1.25181068195332
  H   -1.40935388959260     -0.04610575960556      1.36600565886014
  H   -0.69711373903734      0.86238483017167     -0.64441051047672
  N   -0.85458371901554     -1.18449353766810     -0.89066847008489
  H   -1.75711304429876     -1.16224945743049     -0.41772306136595
  H   -0.37199359763120     -2.01893479988654     -0.56847486812477
  C   0.59705535750900      1.26027609656282      1.70068462055208
  H   0.00562499396578      2.11422840818030      1.35175701908635
  H   0.55799794657268      1.26076797292058      2.79398111861118
  H   1.63854531970955      1.42301500512532      1.39307083433344
  C   0.61075570026060     -1.21567729795478      1.64384629162340
  N   1.07037795336500     -2.21521337343619      2.07487877727978
