16
Coordinates from ORCA-job run
  C   -0.32682217281722      0.03479229820639     -0.21530090375236
  C   -0.16122487423926     -0.02594333229643      1.21861368629921
  Cl  1.45719311683975      0.28921694721406     -1.18193005822112
  H   -2.57154445386528     -0.51900089246280      1.60099845110460
  H   -1.44700997224197     -0.20962666817776      1.48761993487124
  H   -0.79427223625960      0.97518294131171     -0.51854950622516
  N   0.29793686068321      1.19942137863470      1.85595755218064
  H   -0.45023639991489      1.88493478124689      1.80470819856874
  H   1.08144546703511      1.57269827987072      1.32279220357987
  C   0.50316280323415     -1.25211448237085      1.79011561981677
  H   1.54295088665523     -1.36052701620857      1.45243405480543
  H   0.49846723184080     -1.16861214665601      2.87961563635612
  H   -0.04688582880616     -2.16286388919077      1.52781914703405
  N   -0.98066108905001     -1.06009836795097     -0.86219840840510
  H   -1.89016195175857     -1.11134933665320     -0.37806074035538
  H   -0.48563738733528     -1.91090049451710     -0.61821486765754
