14
Coordinates from ORCA-job run
  C   -0.20495962923609     -0.04812827241355     -0.30661024961548
  C   -0.14270594888334      0.00351827101163      1.13315423000002
  Br  1.79949643160585     -0.00622109878645     -1.26482579573322
  H   -2.64837801453000     -0.10210010007361      1.50140267441012
  H   -1.39871510260283     -0.06584376484555      1.33968450647332
  H   -0.57627170381074      0.88072017249046     -0.74442941583124
  H   0.23266764471083     -0.93013516787881      1.56906441377502
  N   -0.89398593276433     -1.15938512207842     -0.88019938540060
  H   -1.86756828028081     -1.02182226891302     -0.57500078991882
  H   -0.57460925282823     -1.99737977437821     -0.40316551173748
  C   0.43596075391236      1.24467850676383      1.76607635225571
  H   -0.04402925419407      2.13864834110795      1.35302594774417
  H   0.25280217627498      1.24869766721629      2.84580381527091
  H   1.51443611262642      1.33374261077746      1.59231920830757
