14
Coordinates from ORCA-job run
  C   -0.08278023616275      0.09881559828965     -0.41655811553894
  C   -0.02766199782225      0.10975384548079      1.08527545853445
  Cl  1.61697766564366      0.10208286140622     -1.16804281239172
  H   -2.24778174026719     -0.84912162460017      1.47153498318328
  H   -1.24963516734047     -0.13075989956204      1.35133259986270
  H   -0.52772533187611      1.02616969270899     -0.78469413720135
  N   -0.79090826750062     -1.03112995201274     -0.97296423481710
  H   -1.63447543174524     -1.11129932723915     -0.38890647108888
  H   -0.24812500218321     -1.86202244867296     -0.75758266965936
  C   0.42410621825130      1.36717025332739      1.62652569903152
  N   0.74605865017880      2.41959638592650      2.05031642108583
  N   0.57082672547657     -1.03757266893643      1.72729783440009
  H   -0.16785910349371     -1.73546126788174      1.82610147510076
  H   1.33474301884123     -1.41550144823428      1.17853396949873
