15
Coordinates from ORCA-job run
  C   -0.23023925824732     -0.01406659305611     -0.30902863201573
  C   -0.26170628687269      0.20691460417562      1.11569233790207
  Br  1.93634031440957     -0.25504967574601     -0.95749233303832
  H   -2.64420383233301     -0.44318721430996      1.30172434981383
  H   -1.51519881981851      0.13442582051672      1.23646243647939
  H   -0.46498206090256      0.88527372064986     -0.87742349425908
  N   -0.90613321990308     -1.15925743142324     -0.80061783504837
  H   -1.86392204458245     -1.04772924525662     -0.40506999426432
  H   -0.53128771545293     -1.96673536553917     -0.31199214096387
  N   0.13836604619870     -0.89647824344159      1.96627527531914
  H   0.91448560397049     -1.40144239437389      1.54644839287109
  H   -0.65966497108161     -1.51884228641888      2.07645213999740
  N   0.26517593515896      1.49872040494817      1.49474539076499
  H   1.27592281161781      1.46370265135096      1.36607293278101
  H   0.10325749783863      1.59673124792412      2.49121117366076
