14
Coordinates from ORCA-job run
  C   -0.12993427405875     -0.12624569447129     -0.35660471664076
  C   -0.04869064785181     -0.06148222891643      1.14768015271853
  Cl  1.51937218428895      0.05723923651268     -1.14251375028101
  H   -2.43825011479688      0.62726415429458      1.19105872427553
  H   -1.25360684708265      0.06008396373125      1.33364326114731
  H   -0.69215661363394      0.75654625972083     -0.67223561730535
  N   -0.78569797739796     -1.29120187234694     -0.88366872399387
  H   -1.75884440279617     -1.19133326214946     -0.59658301342643
  H   -0.41102535278533     -2.11488229659178     -0.42250169476055
  C   0.49407117560862     -1.26785484562269      1.72555290253838
  N   0.86488741003416     -2.28850961340967      2.18621043148690
  N   0.48379248135538      1.15325866477906      1.72522940517059
  H   1.23368548520385      1.52033392961495      1.14993889590018
  H   -0.28856250608747      1.81989360485491      1.72179374317056
