13
Coordinates from ORCA-job run
  C   -0.23177502035693     -0.03895172392911     -0.29024737407793
  C   -0.32428001102665      0.15134887635852      1.12561579236942
  Br  2.01377976617327     -0.11415923878332     -0.90170784400477
  H   -2.79457100733854     -0.34925402494919      0.96534837287265
  H   -1.58710363956667      0.06606790852570      1.16850302208755
  H   -0.46224729188597      0.86270905463193     -0.85611804119507
  H   -0.02682271031601     -0.75016187091962      1.68611893096899
  N   -0.86333335988703     -1.18054583361121     -0.81551072239223
  H   -1.86859574907315     -1.01139445121649     -0.56746798599777
  H   -0.59675612953328     -1.97453925940955     -0.23977200406297
  N   0.20470608177892      1.41343610682024      1.60103967318184
  H   1.21543040190388      1.39532930115781      1.48973217522892
  H   -0.00377133087187      1.51518515532431      2.58655600502139
