15
Coordinates from ORCA-job run
  C   -0.23630558368066      0.03202268210233     -0.27710411778820
  C   -0.26218186751218      0.19200657794461      1.13892439468115
  Br  1.98191864743894     -0.09745325605602     -0.92137016945977
  F   -2.69602236925964     -0.51355946814240      1.19420775247833
  H   -1.62081699806547      0.02995698396669      1.19159414116765
  H   -0.48761167229378      0.94160458336217     -0.81946453651167
  N   -0.78410891777865     -1.14814402550803     -0.87719226541260
  H   -1.73857493786447     -1.17202040699064     -0.50868484227227
  H   -0.30467745431959     -1.94490022330672     -0.47116544375216
  N   0.25084310550870      1.47453821186756      1.55889893900251
  H   1.25646343704657      1.47388906090211      1.38161741682779
  H   0.12846763419734      1.52928570968278      2.56334581993812
  N   0.16865948239036     -0.93435779125892      1.95295839980980
  H   1.00823921703050     -1.34636204988029      1.54612149904369
  H   -0.57113172283794     -1.62594658868522      1.96908301224762
