16
Coordinates from ORCA-job run
  C   -0.31656824795018      0.05565761292956     -0.18643230959113
  C   -0.06791455091561     -0.01722193057124      1.22555545370468
  Br  1.65594671062159      0.30258201917074     -1.30999212136306
  F   -2.58547003010757     -0.41017396580198      1.45684643219717
  H   -1.40902364992963     -0.15730025951164      1.46669794674900
  H   -0.73150532376510      1.01891696596456     -0.48649367559665
  N   -0.97683670018604     -1.01579367293995     -0.86889759894400
  H   -1.87404351638845     -1.07478221342127     -0.38128829163488
  H   -0.47260160915279     -1.87376934858898     -0.67734774106550
  C   0.59850601690369     -1.26511650632716      1.75062252357273
  H   1.63459526556123     -1.34529167403480      1.38950076560025
  H   0.61492571846899     -1.22557518530995      2.84209324437564
  H   0.05807444530242     -2.16896315309105      1.45578334658231
  N   0.49308519109300      1.18287579086940      1.83041133055286
  H   -0.16849025974382      1.94342393288348      1.71509443695475
  H   1.32502054018827      1.43830158778028      1.29555625790582
