14
Coordinates from ORCA-job run
  C   -0.21450919059174      0.03461225355327     -0.31495698080806
  C   -0.14493348567672      0.05128637366433      1.12680421804593
  Br  1.81213660145064      0.03253529250074     -1.27815557399350
  H   -2.56870420954893     -0.54222194674555      1.35101866623619
  H   -1.39848302138340     -0.06800495711756      1.33568626022906
  H   -0.55506103327419      0.98135770266860     -0.73657074069384
  H   0.23040982026763      0.99563703942428      1.53005389622249
  N   -0.91535418212127     -1.05728001976929     -0.91204954381502
  H   -1.81925795955249     -1.05254038905794     -0.39545109142026
  H   -0.45638461357325     -1.91813545247888     -0.63251175958550
  C   0.41759173431057     -1.17247498977712      1.81676294602650
  H   1.40374376802004     -1.44617442330336      1.42452262798720
  H   0.51007257029924     -0.99427231363168      2.89234449578827
  H   -0.26331679862614     -2.02261416992983      1.69684257978053
