12
Coordinates from ORCA-job run
  C   -0.13884012895034     -0.06091822058054     -0.38844282852421
  C   -0.31338194286095      0.16639055307876      1.07968874240183
  Br  1.81219071700759     -0.21946694286493     -0.94285494553698
  H   -2.81018342329982     -0.21388593740936      0.91428724623685
  H   -1.57522922507889      0.08871262004623      1.13569444803025
  H   -0.46915796074978      0.81447462915741     -0.95038897600770
  H   0.04180626197131     -0.68517893572180      1.66782179872119
  N   -0.83863139010011     -1.22069684735318     -0.87493278647742
  H   -1.80259594510662     -1.07134381078220     -0.53260057625232
  H   -0.49224936715490     -2.02570768227476     -0.35944078016637
  C   0.19360934654941      1.41017865118070      1.59021379193139
  N   0.56473305777310      2.44450192352366      2.01688486564347
