15
Coordinates from ORCA-job run
  C   -0.00497316371268      0.15967402770546     -0.29195561068367
  C   -0.13491162134691      0.02227521870129      1.20297928017135
  F   1.34783872779221      0.24510554197069     -0.69024613442056
  H   -2.48310321189439     -0.76097193258408      1.15537359180217
  H   -1.40526170249799     -0.22491946069154      1.29119081936531
  H   -0.47448599275679      1.09402782608726     -0.61806350130885
  N   -0.58888613294809     -0.93310423945943     -1.03595563018743
  H   -1.51445020000250     -1.07329448596353     -0.61638396139198
  H   -0.05584525161562     -1.76582501511405     -0.80401481632644
  C   0.46890922002189     -1.25426531935213      1.76659304978009
  H   -0.20409328963721     -2.09194315084797      1.54212304171695
  H   1.46523654561950     -1.47047593156914      1.36480330429742
  H   0.54657810618172     -1.19027749578903      2.85494759131015
  C   0.24694858314586      1.20965043683772      1.90667362911031
  N   0.50565938365098      2.19491398006849      2.50537534676517
