14
Coordinates from ORCA-job run
  C   -0.24105956028893      0.12200480989620     -0.35931819491818
  C   -0.13191713502531      0.16776597952557      1.10092460099757
  F   1.02824632391326      0.26129970852920     -1.07131084879883
  H   -2.35327378934531     -0.80563410717173      1.69159205421941
  H   -1.53811031278688     -0.27464237732066      1.50744650839124
  H   0.15111931346914      1.16063049630380      1.46929034417986
  N   -0.79606159383123     -1.11939831826438     -0.89685074837679
  H   -1.59157032972999     -1.33941614334782     -0.29490244088331
  H   -0.10579701823103     -1.83825229228891     -0.70110588240488
  H   -0.83719512875589      0.96067120442544     -0.74145763614390
  C   0.64834130543870     -0.96662539829485      1.72737696586068
  H   0.01581326858789     -1.86835195393540      1.81798388108711
  H   1.56336273997739     -1.25765969142721      1.18734022512176
  H   0.94873191660820     -0.70508191662925      2.74868117166826
