16
Coordinates from ORCA-job run
  C   -0.17354383338268      0.01052959677003     -0.38380649401312
  C   -0.05923628328673      0.00091324487772      1.10840489383456
  Cl  1.47915032763185     -0.12186601349336     -1.20062214639240
  F   -2.52227146904796     -0.41645058225547      1.41011452290430
  H   -1.40378652905409     -0.09652449123581      1.40282614302299
  H   -0.54574896259031      0.97819849398607     -0.70883616235357
  N   -1.00613484787532     -1.03989793263465     -0.94433720978062
  H   -1.85050020798634     -1.01716932090595     -0.36972303849428
  H   -0.55527544687806     -1.93035351300174     -0.76343599741612
  N   0.47358730311501      1.23616268867142      1.62149557835803
  O   1.07701041450200      1.22081457842530      2.70840580069238
  O   0.26002369592382      2.29163675525453      1.00147026724698
  C   0.57708242033667     -1.21129332567256      1.73896724573068
  H   1.64977405626640     -1.28712844704495      1.52489105304196
  H   0.44573563868251     -1.18373582335482      2.82015400345859
  H   0.07634372364325     -2.10912590838574      1.36865154015965
