15
Coordinates from ORCA-job run
  C   -0.33880680609437      0.05953068666417     -0.26010641157920
  C   -0.33725428031308      0.21742849669720      1.15456997083086
  Cl  1.65855065699914     -0.24489993905901     -0.91804252003351
  F   -2.82272778814497     -0.29421739913495      1.33619724256652
  H   -1.77487981167908      0.13020566407701      1.27537293578432
  H   -0.52768563558526      0.98763264495791     -0.79559144182422
  N   0.28267169860521      1.45842250916579      1.56448259665973
  H   1.28896163869600      1.36619509101819      1.41817718485063
  H   0.14161349084980      1.54738071596130      2.56400089013478
  N   0.04816143919144     -0.94129851648501      1.95143694571749
  H   0.84135937197452     -1.40972035057189      1.51359819373479
  H   -0.73028411455460     -1.58731512161960      1.99651905411901
  N   -1.00166888329204     -1.07556127692999     -0.85253831297717
  H   -1.92529654325718     -1.07085835202365     -0.41847963532675
  H   -0.52924443339553     -1.90841485271747     -0.51793669265729
