15
Coordinates from ORCA-job run
  C   -0.12305291676680      0.02741430063822     -0.37505303648040
  C   -0.10513815372706      0.03805510036484      1.13085511088302
  Cl  1.57650118966466     -0.00394736563426     -1.10408871668032
  H   -2.54674758542374     -0.51795594372868      1.29958814607384
  H   -1.34323141049055     -0.06585393914693      1.33335210767421
  H   -0.54040944251106      0.96892622292928     -0.73866490153506
  N   -0.87443023243233     -1.06300960352693     -0.94915145706615
  H   -1.75589573953221     -1.06091850446082     -0.41405723316338
  H   -0.40344656716081     -1.92933716446004     -0.70740164719226
  C   0.42346059734713      1.25467806394119      1.68046390594144
  N   0.81941463138655      2.26321521315486      2.14803382850002
  C   0.44237930446203     -1.21939552686881      1.78327636466789
  H   1.41880984910617     -1.51543062115177      1.38526718134452
  H   0.53928189673002     -1.06978924488021      2.86143166015998
  H   -0.27634542065198     -2.03348098716994      1.63640868687267
