18
Coordinates from ORCA-job run
  C   -0.15128130872419      0.07193208319125     -0.33307773275028
  C   -0.13380838505223      0.04433584947016      1.17943707963325
  Cl  1.50103314933960     -0.00844603076668     -1.03930330386332
  H   -2.40528880529848     -1.08676379875809      1.44630686156140
  H   -1.26505299670826     -0.14393634369863      1.46040289300745
  N   -0.96979319309410     -0.97299097072505     -0.86410998796803
  H   -1.70406429250079     -1.16157879093109     -0.14427123945361
  H   -0.41452749539861     -1.80858009484439     -0.98855363671847
  N   -0.82901976159729      1.36628194408194     -0.84851802960182
  O   -0.37408321958318      1.94537672766559     -1.82146183260075
  O   -1.86994557146244      1.63791462219405     -0.26631044824178
  C   0.53784237903454     -1.18092339451062      1.75847269289890
  H   1.59626877421945     -1.24402306149774      1.49465840283832
  H   0.42891704020258     -1.15168578099554      2.84174746639958
  H   -0.00122927617048     -2.06021819974929      1.40301638212432
  N   0.38769141049420      1.26481354463899      1.79624644935113
  O   0.55792467224203      1.25767129547116      3.02167061730723
  O   0.59387688005763      2.25805039976396      1.08604736607646
