16
Coordinates from ORCA-job run
  C   -0.08345762652541     -0.01435308430785     -0.34223343654051
  C   -0.16276120408997      0.07509885190696      1.11472125065005
  F   1.22673312306163     -0.02599713439600     -0.89604472384517
  H   -2.47601166075535     -0.68206266284958      1.39368628084385
  H   -1.53853401885714     -0.16169888037649      1.31620874544045
  H   0.21917179676855      1.02642032828842      1.49012355451716
  N   -0.69386763055717      1.27511875439969     -0.90216441829932
  O   -0.00648661595144      2.29278541303000     -0.82028646192903
  O   -1.84066205421218      1.23190564072571     -1.33896946364768
  C   0.36955408930119     -1.14958149107989      1.82740763328923
  H   1.28350867914741     -1.57513745204711      1.39031382403372
  H   0.59130609836304     -0.90652705405963      2.87171352392972
  H   -0.40503069935422     -1.93447092574051      1.84598128842362
  N   -0.76262149342522     -1.11874004446412     -0.94842837199826
  H   -1.63940653088212     -1.23482987469433     -0.43329623425312
  H   -0.19376425203159     -1.93603038433529     -0.76020299061471
