15
Coordinates from ORCA-job run
  C   -0.05208955316758     -0.09692584871233     -0.26409544651220
  C   -0.09004478169584     -0.13142899708911      1.20015002476956
  F   1.13780695971197      0.37793480119729     -0.86667515042555
  H   -2.37478302227467      0.34927009936464      1.95432634312507
  H   -1.37913928054356     -0.04472303069666      1.55154061400997
  H   0.31587352159078     -1.08622112889891      1.54936225177618
  N   -0.35227363459819     -1.35154721255721     -0.84422551278858
  H   -0.65105170233099     -1.22245113367223     -1.80307034175734
  H   -1.13258497547763     -1.74371580683631     -0.33145939637853
  N   -1.05235610461030      0.99454838302813     -0.74330075774770
  O   -0.78796139876742      2.16438099281217     -0.47585385932452
  O   -2.09177719666276      0.61984396182473     -1.29235390579077
  N   0.42462079882138      1.01416495476002      1.91505013198816
  H   -0.38080836771233      1.59651949388065      2.15595910275348
  H   1.02964873771715      1.56755047159507      1.32225590230271
