14
Coordinates from ORCA-job run
  C   -0.33008330266140     -0.11091801577479     -0.23790501670217
  C   -0.13392180616537      0.01030902043131      1.19502063889902
  Br  1.76856384159048     -0.14143404160703     -1.45058962289487
  H   -2.37510548097476     -0.89205685410166      1.35876875364947
  H   -1.32866974084613     -0.26912440412044      1.53348443783313
  H   0.17357747498449      0.99801507558706      1.52674128120112
  N   -1.07550256024725     -1.16553847103974     -0.57938944426270
  H   -1.45786478773955     -1.09082389680598     -1.51477409337328
  H   -1.84641951539391     -1.27325293405258      0.22313754140427
  N   -0.75119721541860      1.22123379718162     -0.86996743891887
  O   -0.38474948218141      2.26454196084402     -0.34018991127734
  O   -1.46730693540629      1.14910360751452     -1.86651577312683
  C   0.62998547489055     -1.04856359855084      1.80484641213052
  N   1.20946403556917     -1.89935124550547      2.37274223543854
