19
Coordinates from ORCA-job run
  C   -0.14905169631412      0.00638535968571     -0.27813779128533
  C   -0.14823825452853      0.06216859175031      1.18247388884316
  Cl  1.63268783967878     -0.09248783758062     -1.08580770305133
  H   -2.47807682449042     -0.76276743978996      1.46134059542101
  H   -1.38297558396858     -0.15392658730928      1.38268753401345
  N   -0.89061554270796     -1.05551769720333     -0.85711456641199
  H   -1.71986403590430     -1.17310536743525     -0.24548082603201
  H   -0.33504752206108     -1.89850220323690     -0.79819395392311
  N   -0.72761687341074      1.31934222934109     -0.82165117554996
  O   -0.01197894134745      2.31689902478281     -0.85414751697888
  O   -1.92228099582670      1.29744239703384     -1.10554047513712
  C   0.42182247219160     -1.20226899376597      1.79759263723648
  H   1.45931966013552     -1.38388716829201      1.49394699370653
  H   0.38454218093166     -1.12045631781693      2.88854514625717
  H   -0.19433546832961     -2.06611995213396      1.53049548953385
  C   0.35912531182091      1.32117097331984      1.85154915183026
  H   0.23917251646342      1.21882598583194      2.93557696134031
  H   1.42083835967857      1.50051989077780      1.63861742776125
  H   -0.19289660201099      2.21161511204089      1.54470818242624
