16
Coordinates from ORCA-job run
  C   -0.14967297996148     -0.08100910172845     -0.30653298246465
  C   -0.14777953816010      0.06661835373843      1.19881980545246
  Cl  1.51608767094993     -0.38342960264457     -0.98117788518890
  H   -2.34371927437758     -0.87473838777371      1.62947735532351
  H   -1.36391554855954     -0.06388892060625      1.44829250034545
  N   -1.02565316454797     -1.09905466859124     -0.77833116361836
  H   -1.78051638152454     -1.17923087858989     -0.07748373087690
  H   -0.52827022373284     -1.97793822182045     -0.80773746736422
  N   -0.64752258408980      1.25576731380572     -0.89427253433667
  O   0.15388904264484      2.08149739176678     -1.31466162835037
  O   -1.86313220154936      1.40126846838277     -0.82817387185710
  N   0.32025039054915     -1.09233878109500      1.91543770584164
  H   1.05116170436698     -1.58139213788255      1.41376621283603
  H   -0.50188707931150     -1.69263813405987      2.03432922897661
  C   0.43977581921272      1.29695515770254      1.67354181074655
  N   0.88777434809106      2.30893214939575      2.07896664453492
