17
Coordinates from ORCA-job run
  C   -0.11800013875184      0.00979354067188     -0.33018371655403
  C   -0.24916549520023      0.16874186956095      1.11545334091835
  F   1.21624904193893     -0.19049718012795     -0.80251868470590
  H   -2.44288521834115     -0.70017353909484      1.70645046582620
  H   -1.68933976376124     -0.16170675444941      1.42042371445992
  N   -0.87158026187567     -1.06536245534052     -0.91983307320391
  H   -1.68810360294153     -1.21374473337282     -0.33106826915213
  H   -0.29574994782549     -1.89530758869986     -0.87425471457652
  N   0.17528170197983      1.46932821166424      1.58527748850424
  H   1.15205054986055      1.43684595493708      1.87164320511409
  H   -0.36003548045488      1.69059077776899      2.41855722418807
  N   0.26630655630658     -0.96911039519750      1.84433175541570
  H   0.95955510093748     -1.49765102937607      1.32527394722976
  H   -0.51125545109263     -1.59090798088392      2.08838301118325
  N   -0.56560516970110      1.29909045161532     -1.02068471533804
  O   0.26908140117659      2.01821788015492     -1.55673985254578
  O   -1.77165382225419      1.51678297016950     -0.98579112676327
