17
Coordinates from ORCA-job run
  C   -0.14586995660237      0.02798328282672     -0.30902918552180
  C   -0.09081467064597      0.02881454122484      1.20009227748988
  Cl  1.49047318044458     -0.13471592245808     -1.04920199049870
  H   -2.21671488310163     -0.98469134200703      1.75498453298538
  H   -1.26322638269564     -0.11098355760230      1.53397001363304
  N   -0.99268336488726     -1.02646153852125     -0.79440720288790
  H   -1.71601856433588     -1.16281029180254     -0.07087298585525
  H   -0.45339747657890     -1.88003858960557     -0.84806128584949
  N   -0.80386541907388      1.30612369831959     -0.86173446082786
  O   -0.31792229790835      1.88921710423333     -1.81648475069676
  O   -1.86773347754662      1.57187256014443     -0.31668398708620
  N   0.45071114416956     -1.14333102517738      1.77686249260009
  H   1.12856132339530     -1.60844936087688      1.18940106744485
  H   -0.33885945221471     -1.75097976437034      2.01091488613985
  N   0.49383943161491      1.24900765438789      1.77342294354962
  O   0.70976259901657      1.27593804805473      2.98532045252685
  O   0.67346826695030      2.21791450322980      1.01823718285441
