19
Coordinates from ORCA-job run
  C   -0.04338928501058     -0.06150922481467     -0.35899298552875
  C   -0.16534487896615      0.08546586249682      1.09477063128458
  F   1.27574870606679     -0.23494849053744     -0.85132080706581
  H   -2.46060252952198     -0.72045468281287      1.49634626353328
  H   -1.54619050360136     -0.22405623193521      1.33234724968806
  N   -0.81585996224575     -1.11163448288223     -0.96128537741637
  H   -1.64014335580158     -1.24876381394522     -0.37370313877576
  H   -0.25559086471436     -1.95283937236540     -0.92984132014842
  N   -0.50105255982153      1.25140611182368     -1.02007453593068
  O   0.34949930370755      2.05054000158784     -1.40424215119487
  O   -1.71268816183958      1.43295529065176     -1.06853179041787
  C   0.40172920815663     -1.11663070244490      1.81585131381146
  H   1.48178281261465     -1.26791649284407      1.66699197114579
  H   0.21965413137498     -1.00666451616778      2.89234371585018
  H   -0.12293919677995     -2.03236760047684      1.51607495707219
  C   0.30226980832925      1.39869172260466      1.67905806835719
  H   -0.21250339663834      2.25633656366444      1.23307471636141
  H   0.06624305053887      1.41638870372415      2.75087484745511
  H   1.38625767415245      1.57952135467330      1.57912837191929
