18
Coordinates from ORCA-job run
  C   -0.18658216352722      0.00036335059463     -0.22025799707335
  C   -0.15805132590796      0.00588794556030      1.24626279754233
  Cl  1.60217708994405      0.14778243313763     -1.04424393758813
  H   -2.47323868904590     -0.88456289964147      1.43233086803752
  H   -1.38611120995546     -0.25034723419173      1.43953219431611
  N   -0.81801004416001     -1.11456492008180     -0.81308512957673
  H   -1.67093463841531     -1.27118799088107     -0.23757194926008
  H   -0.21044319478757     -1.91418510481609     -0.68546340673185
  N   -0.90992218128616      1.25570601405845     -0.70772966132102
  O   -0.35122515419935      2.34412889581685     -0.57796546825386
  O   -2.05954401763506      1.09971297850703     -1.11190309152942
  N   0.29038602152136      1.19694280835295      1.94207886627753
  H   -0.39150009541307      1.93560252351010      1.81705021861222
  H   1.14634941652117      1.53088166516508      1.50558966468217
  C   0.46906661015024     -1.24938345783105      1.81924638997297
  H   -0.17252866068545     -2.11686588213399      1.63332279519557
  H   1.47159605281648     -1.44036841029585      1.41722401513535
  H   0.54214618406520     -1.11421271482999      2.89990283156269
