18
Coordinates from ORCA-job run
  C   -0.30514457236121     -0.00888544277055     -0.25632790040128
  C   -0.14894148874570      0.11823681840850      1.16927595681733
  Cl  1.43816560512617     -0.27618908261997     -1.22809460487839
  F   -2.48230684963338     -0.67948838159754      1.74568821854580
  H   -1.54206966891586     -0.10957084679525      1.52601744766282
  N   -1.09142566785103     -1.08604745795625     -0.77038849010833
  H   -1.84758071144200     -1.23431484940195     -0.10509870349371
  H   -0.51325507269395     -1.91174587137591     -0.82386225610835
  C   0.53244161726753      1.35433535408172      1.70758768043289
  H   0.02314990528963      2.27967294609210      1.43081528548309
  H   0.54820185153208      1.28032929637558      2.79721837528453
  H   1.57154527724816      1.42922199296121      1.35415418807672
  N   0.38325185743676     -1.09349803321228      1.78952228226981
  H   1.11296129874751     -1.49343900660847      1.20266776747588
  H   -0.36529879273039     -1.76872000733935      1.88351018967643
  N   -0.83534627966348      1.29846832553961     -0.85536014619466
  O   -0.06670903639240      2.23656904324153     -1.04134561362086
  O   -2.05089927221845      1.33936520297726     -1.03028967691971
