16
Coordinates from ORCA-job run
  C   -0.18359915919042     -0.06271099534249     -0.29740962987205
  C   -0.17191308736772      0.05278342257954      1.14927802872742
  Cl  1.61700280561312     -0.21737211144393     -1.12368397512078
  H   -2.58305966071439     -0.56682996616305      1.40095767057931
  H   -1.42071552532881     -0.11453188901824      1.36776678275476
  H   0.18700858294480     -0.89565027791999      1.56168760993700
  N   -0.93130217498125     -1.14900839438071     -0.81454533850796
  H   -1.81326436295160     -1.14329222783858     -0.26596910970886
  H   -0.43228505434605     -1.99489859922073     -0.56448752563334
  N   -0.73737917425487      1.22415354080868     -0.90046426879726
  O   -0.05620562972955      2.24319643206939     -0.81008736325647
  O   -1.87532338785147      1.17373738609916     -1.36059388395312
  C   0.44211222532253      1.25068772522585      1.83809235731536
  H   -0.11912226469118      2.16540330901235      1.63737387890061
  H   0.43199578563823      1.08731132945824      2.92074196242576
  H   1.47650008188861      1.42415131607452      1.52207280420963
