15
Coordinates from ORCA-job run
  C   -0.09752504524148      0.01441916942334     -0.35793035208294
  C   -0.12371326905267      0.15307199529085      1.09877027421091
  F   1.19916477411568     -0.08619853531091     -0.95021918719917
  H   -2.33383402023524     -0.69342591174215      1.57495513392123
  H   -1.51821564445411     -0.10120206523276      1.38291721455101
  H   0.29065592394162      1.10194766991852      1.44577047155769
  N   -0.83598838997360     -1.07915880705839     -0.91463274219279
  H   -1.67545588657044     -1.18574433658686     -0.34283119545735
  H   -0.27024045026931     -1.90567974105060     -0.76867762425436
  N   0.35926687436002     -0.99810733333227      1.83114410803594
  H   1.07267636826406     -1.51210971625757      1.32696142997281
  H   -0.43585713783068     -1.62196351031958      2.00208734837721
  N   -0.66362392605608      1.30998142516487     -0.93329988248009
  O   0.08588263912427      2.28591277266915     -0.95183606233853
  O   -1.84407281012201      1.32111692442440     -1.27380893462156
