16
Coordinates from ORCA-job run
  C   -0.38419262504119     -0.04491634683707     -0.18336072429910
  C   -0.09661722936610      0.03332842394265      1.23376857119442
  Br  2.03006998126952      0.35038348427497     -1.21630087901117
  H   -2.27027525663651     -0.87136368288099      1.38732497126802
  H   -1.33189205915160     -0.22409490544921      1.59675669022837
  N   -1.05559490766806     -1.15311602238740     -0.51052917037291
  H   -1.49575743566423     -1.06514200036723     -1.42287977749587
  H   -1.82850174532675     -1.28451086190121      0.34154814385462
  N   -0.86485369721567      1.19056154905729     -0.90064829240988
  O   -0.81313928452297      2.28246788080317     -0.33609064255721
  O   -1.34735682532677      1.01400952257214     -2.01721320673123
  C   0.51177703595162     -1.20113822099037      1.70250487071588
  N   0.98196187433957     -2.18221217543097      2.14743362332813
  N   0.49619226937669      1.16872884373524      1.88191257614226
  H   1.42991279151621      1.25944517442879      1.47906696305374
  H   -0.01285288653373      1.99141933743020      1.58857628309193
