19
Coordinates from ORCA-job run
  C   -0.23600231396892      0.00403241293515     -0.32063304504665
  C   -0.11058652820414      0.10823507183376      1.11423336041063
  Cl  1.46993603777722     -0.21492118895236     -1.28523626006771
  F   -2.46401908240889     -0.67585116200187      1.65842625887790
  H   -1.47701297325640     -0.15015152572466      1.46801356841297
  N   -1.04288592917702     -1.05058119496007     -0.85416434591691
  H   -1.78178432731644     -1.22115448536521     -0.17386206174378
  H   -0.47414625775726     -1.87626282859959     -0.96958774756296
  C   0.54577284777010      1.35655577371399      1.66565948786073
  H   0.00690097871084      2.27112504383163      1.40892582720135
  H   0.57552637541914      1.29300556254102      2.75885674852693
  H   1.57946325315125      1.47303387509769      1.30549977490361
  C   0.47929454412665     -1.15166743067637      1.72610019082067
  H   1.54582054423492     -1.26711373334267      1.47931583604071
  H   0.37943100100877     -1.11053649857695      2.81544233099110
  H   -0.05287367263184     -2.04527703889135      1.39543996392327
  N   -0.77391959214214      1.33503022667323     -0.88365425183898
  O   -0.00506828984244      2.27727518646901     -1.04991561250523
  O   -1.99004661549339      1.38468393399562     -1.04305002328767
