15
Coordinates from ORCA-job run
  C   -0.24265588906407     -0.01011521569539     -0.23971671935683
  C   -0.19840854179473      0.01016677135658      1.21693958387493
  Cl  1.57819079807955      0.13723270323534     -1.10036843239218
  H   -2.57380198100383     -0.75630146837682      1.34265076405205
  H   -1.43310580510420     -0.23507355481405      1.42138009671044
  H   0.22416272485257     -0.93645451752093      1.56824388192615
  N   -0.87162061276317     -1.13980753893392     -0.79178547011265
  H   -1.77605963557615     -1.20861153475019     -0.27179343542306
  H   -0.31731069012417     -1.94473431071749     -0.52075235727491
  N   -0.95281734828437      1.23235618590995     -0.74697958891421
  O   -0.44390177900512      2.32621314437358     -0.50245502864400
  O   -2.04398246704386      1.07126441561212     -1.28907429373950
  N   0.32729437116528      1.13146919973735      1.96136196285958
  H   -0.31462119433504      1.90986854928200      1.87590294137218
  H   1.18970805000135      1.43644717130184      1.51826609506199
