15
Coordinates from ORCA-job run
  C   -0.26623545917520     -0.03989005339691     -0.19458457111360
  C   -0.16404657693646     -0.00402993104533      1.25497859968932
  Br  1.63787020273416      0.12088081415982     -1.19495056049692
  F   -2.56521270467966     -0.79135517712131      1.47861427839596
  H   -1.48982276674835     -0.27767578627858      1.49724289957406
  H   0.25141583604693     -0.96357816905097      1.58289935862086
  N   -0.99172340369968      1.20089963902195     -0.72183933321102
  O   -0.51040884759149      2.30110426910776     -0.45737941780765
  O   -2.05399766867690      1.02479897595963     -1.30883447064316
  N   0.46534245147384      1.10078025550302      1.94626024563063
  H   -0.12181409858984      1.92026017927044      1.86179625923310
  H   1.33085399526790      1.33339113456813      1.46171412190492
  N   -0.86704352651804     -1.19424040651143     -0.76790689020228
  H   -1.71577443244304     -1.34287669876408     -0.21353491244828
  H   -0.23539300046416     -1.96876904542216     -0.60337560712594
