17
Coordinates from ORCA-job run
  C   -0.05721211814218     -0.11990264592228     -0.35711478744279
  C   -0.09296098732584     -0.01699321690137      1.15463483658974
  F   1.21496165572684     -0.31919795741218     -0.84608276386666
  H   -2.54522540345931     -0.67498531799383      1.35319926463688
  H   -1.29326766831473     -0.23819031169284      1.37985574214631
  N   -0.92385985595617     -1.09578222303683     -0.91673560178099
  H   -1.77289215183525     -1.09342038874558     -0.32441390959633
  H   -0.47160663571615     -1.99490994108122     -0.78808741275267
  N   -0.48624524816869      1.24781044129392     -0.90658517867373
  O   0.39725427620167      2.03411484184856     -1.23760988856543
  O   -1.68971557030637      1.47177983083909     -0.92088935352908
  C   0.35851949749868      1.30309323049067      1.76515541766277
  H   -0.34514992205429      2.09462191692707      1.49286148906658
  H   0.34642838163203      1.21932717527926      2.85483074874822
  H   1.36198130007247      1.60369102610774      1.44801676323411
  C   0.60191830528661     -1.15424470965040      1.70173243785462
  N   1.13525214486069     -2.09520175034977      2.17024219626843
