17
Coordinates from ORCA-job run
  C   -0.25288431146711     -0.02986769104518     -0.19308943439766
  C   -0.35737319681740      0.16962631023285      1.22549621634552
  Cl  1.64986117641758     -0.31221790054580     -0.77331278251111
  F   -2.73306881891929     -0.69861692780606      1.49278039453012
  H   -1.82734698158144     -0.10776604450596      1.37687683982086
  N   -0.92143690699633     -1.14757336937134     -0.78869966637971
  H   -1.77237156546779     -1.29337139047172     -0.25091406553025
  H   -0.32731735839325     -1.96060904194230     -0.71338953438212
  N   -0.69118539789339      1.23661497188977     -0.93487757454739
  O   0.11872462377229      2.05836531589840     -1.33750924467868
  O   -1.91193310916641      1.33527683966749     -1.03526605218615
  N   0.16300393095163      1.45374245294037      1.63024159784707
  H   1.18302278735095      1.42721906827222      1.58876062733932
  H   -0.08893767249393      1.59054341096564      2.60119477741313
  N   0.11066628396350     -0.96157108976622      2.01696186411426
  H   0.92807180401053     -1.38962534168941      1.58395190947764
  H   -0.62628528727015     -1.65157957272269      2.08734412772514
