16
Coordinates from ORCA-job run
  C   -0.19402481017963     -0.01758233630571     -0.30482608111159
  C   -0.16877598672188      0.07003159248515      1.14279920242803
  Cl  1.59347468098107     -0.07893520008565     -1.17097584859813
  H   -2.50035332428797     -0.74509380022599      1.40124057367347
  H   -1.40708216689622     -0.12174080282176      1.35855380381114
  H   0.17916351677324      1.03265159533796      1.51484159325226
  N   -0.91289331437187     -1.09727568119057     -0.85887044231661
  H   -1.75034635092074     -1.19925587274431     -0.25115374452726
  H   -0.35351403005393     -1.93449073271823     -0.75849210600837
  N   -0.76669957124590      1.29796399228300     -0.84324410382752
  O   -0.19058935206802      2.33195663921102     -0.51392821998496
  O   -1.79309108880152      1.24420609153325     -1.51322571703622
  C   0.43008914863439     -1.12949313280571      1.84418043935843
  H   1.42447501684065     -1.38636462830644      1.46368743500874
  H   0.51016636559393     -0.93109486716757      2.91700450456456
  H   -0.23418873327559     -1.99388285647844      1.73128871131403
