13
Coordinates from ORCA-job run
  C   -0.19698680613757     -0.07931964391318     -0.30186112579378
  C   -0.17328970208739      0.06041661430882      1.13489274011873
  Cl  1.60117160635972     -0.24365789579277     -1.17779509151729
  H   -2.56650354106318     -0.59475302743404      1.38878284485511
  H   -1.42621751714995     -0.11963828749734      1.37813640857494
  H   0.24655534077840     -0.81860077192332      1.62617967623926
  N   -0.95341975071443     -1.15186019242030     -0.82130708099033
  H   -1.82382315813630     -1.15536189506926     -0.25252851693364
  H   -0.45304848274876     -2.00577116118768     -0.60559266073399
  N   -0.71072683930702      1.23209492586324     -0.90101407769024
  O   -0.12301679730404      2.26030957306145     -0.57478799998085
  O   -1.70420451993157      1.18512079874374     -1.61956773785212
  H   0.24127016744209      0.99282096326063      1.51182262170419
