17
Coordinates from ORCA-job run
  C   -0.34197081994003     -0.05566920719014     -0.23142921001113
  C   -0.06751365759075      0.03353872516113      1.19337085491220
  Br  1.87015372209392      0.00391635955918     -1.47249428237218
  H   -2.27666709169481     -0.87366169929054      1.38864553975243
  H   -1.26677768169119     -0.23565849666721      1.56201329118790
  N   -1.05087465101473     -1.14326544049800     -0.53938272480623
  H   -1.48179048423178     -1.06786443472116     -1.45536483957697
  H   -1.81010081701440     -1.26122155618414      0.30546069168478
  N   -0.79469180700499      1.21155331603307     -0.93930152872421
  O   -0.42977683228223      2.30246499971293     -0.51470310020149
  O   -1.53700620391738      1.05352958070332     -1.90863608423469
  C   0.59460088993960     -1.17313236168300      1.65014476825698
  N   1.11838517383543     -2.11643603649946      2.11844299459028
  C   0.52205984918369      1.26597424348314      1.85873897523761
  H   0.73714739260917      1.03253909363119      2.90445434959570
  H   1.44984265823818      1.54527144431082      1.35358103441826
  H   -0.16191963951772      2.11055147013889      1.81714927029077
