16
Coordinates from ORCA-job run
  C   -0.43744424817592     -0.03786116397329     -0.17486260243229
  C   -0.10892670242276      0.05572828891106      1.20122733504899
  Br  2.03369825121109     -0.11658664629112     -1.58361674577153
  H   -2.20844450417581     -0.98552574737157      1.46106699493706
  H   -1.28132791170175     -0.26104588317255      1.60800675074694
  H   0.18059482035329      1.05393152744343      1.51620565805398
  N   -1.10982086492273     -1.12237742662402     -0.54784173579515
  H   -1.55877318117031     -1.00488734720587     -1.45081975165700
  H   -1.81770591628118     -1.33930516934827      0.30851842960241
  N   -0.76934406266979      1.23687379123187     -0.88992578135058
  O   -0.35749044706898      2.29363377424348     -0.42153924285723
  O   -1.46891259204020      1.13997776370839     -1.90044731404705
  C   0.73939303910780     -1.07067912904057      1.75826472332049
  H   0.25167707524093     -2.03453206819110      1.60016247880920
  H   1.69656799632535     -1.07660782358487      1.23081515227449
  H   0.90133924839098     -0.93700674073499      2.83184565111726
