18
Coordinates from ORCA-job run
  C   -0.13237695850732     -0.02760202397100     -0.30037414704444
  C   -0.10539256586876      0.05820863779738      1.15676908412744
  Cl  1.66380915708574     -0.17920595023971     -1.11137997576366
  H   -2.31149965564987     -0.88057898011040      1.53557626563950
  H   -1.34960554185975     -0.16290547196749      1.37983870677877
  N   -0.87323777385788     -1.10587037298930     -0.84731885659723
  H   -1.67737982996144     -1.23486485334796     -0.20787885684468
  H   -0.30377500275216     -1.93922098321264     -0.79003612214382
  N   -0.70192943287198      1.27141183556316     -0.86845973481166
  O   0.02737289671398      2.25339203417864     -0.97121774566419
  O   -1.90944373334050      1.26031651107861     -1.09822954355810
  C   0.41294470779659      1.31942154994888      1.80477096538282
  H   -0.15044357466218      2.20871953152399      1.51220991504586
  H   0.32435310625863      1.19247479499142      2.88625110646454
  H   1.46889401127990      1.49428090049253      1.56352384660248
  N   0.41557387448621     -1.14127643144474      1.78614727110829
  H   1.14942005839432     -1.55654520110500      1.22160511355892
  H   -0.36221374268353     -1.79957552718634      1.86723270771918
