16
Coordinates from ORCA-job run
  C   -0.18158986354863     -0.13960860432473     -0.20068970635613
  C   -0.22992981848639      0.04476384864024      1.21338220574225
  Cl  1.67534547726190     -0.14760616029306     -1.04935622863945
  F   -2.65267484615552     -0.71600455154664      1.34778704160025
  H   -1.62286832777021     -0.20951020874854      1.36452526924320
  N   -0.75763128434832     -1.31659325540110     -0.68059460813917
  H   -1.65916767029519     -1.41400670762063     -0.21459839535060
  H   -0.85123549476509     -1.29651268420820     -1.68564018924948
  N   -0.68861076214235      1.13347126333068     -0.93762912889071
  O   -0.38541708363750      2.23129446171834     -0.48768191693912
  O   -1.37086057772840      0.95530215603732     -1.94574726985941
  C   0.39301363329922     -1.07597888214474      2.02274334297201
  H   1.45037874093986     -1.22952817784321      1.76924657315094
  H   0.32250386423348     -0.84932037281590      3.09136776145497
  H   -0.13476792115437     -2.01584100690855      1.85227598402656
  H   0.08028193429750      1.04386888212874      1.50977926523386
