17
Coordinates from ORCA-job run
  C   -0.29236796732114      0.04991746210911     -0.25169863388611
  C   -0.18408307378749      0.01346016271134      1.20738470913967
  Cl  1.59306746154782      0.12232380782556     -1.12831823142349
  H   -2.52554038296213     -0.86353659820186      1.33197746185035
  H   -1.39319065679067     -0.21701843254425      1.41928357769744
  N   -0.99078901245665     -1.02723943029198     -0.85406183392207
  H   -1.84298330508870     -1.12248860728540     -0.23215253278300
  H   -0.44928368257297     -1.87025055964666     -0.69283656714069
  C   -0.83728496958723      1.32931848102399     -0.71090619901102
  N   -1.31121433029824      2.36034560840841     -1.02148500345514
  N   0.28303163023365      1.21788160031606      1.86879082431103
  H   -0.37281047964851      1.97066319834469      1.69218505178811
  H   1.17150374704565      1.49425746738133      1.45521279899976
  C   0.46980800732785     -1.22865089613309      1.76925762085837
  H   1.49288539100012     -1.35087506283740      1.39593045595533
  H   0.49436561699739     -1.13251176241928      2.85652040826544
  H   -0.11512399363874     -2.11980643876059      1.52562609275600
