16
Coordinates from ORCA-job run
  C   -0.14843065694415      0.06972645850815     -0.31243088354430
  C   -0.14317075355425      0.01607892689733      1.19946953130620
  F   1.16234992412309      0.04232930205823     -0.83043556108347
  H   -2.47361486276732     -0.83840827653369      1.35768887723772
  H   -1.35822361387013     -0.18306114625656      1.41701765878540
  N   -0.86340914588272     -1.02479656238720     -0.91819213708466
  H   -1.70813073514162     -1.14843134988257     -0.33426927529992
  H   -0.29377840581197     -1.85256587440825     -0.77157644175444
  C   -0.74407350508759      1.34434546195069     -0.78300853112453
  N   -1.20718020635725      2.35538635378558     -1.15920592866453
  C   0.47028071479193     -1.27210859060013      1.73452163236153
  H   1.39559167166982     -1.54886701405623      1.21999259190329
  H   0.68808235691861     -1.16472112884283      2.79961624007505
  H   -0.27175817950088     -2.07315291413717      1.63257292945797
  C   0.38775310686684      1.20174669561691      1.81444228432044
  N   0.80244229054759      2.16466965828773      2.35570701310824
