13
Coordinates from ORCA-job run
  C   -0.23355031376729      0.01912495332982     -0.38915694783787
  C   -0.03593977637049      0.01148748773621      1.10119555304343
  Br  1.53152822801492      0.13051969600877     -1.40904682344645
  F   -2.50278276358372     -0.46454393889205      1.28500183206222
  H   -1.33176475895726     -0.17591451999046      1.39751081902253
  H   0.36384695676113      0.95207039120728      1.48520773501407
  N   -0.93814008204627     -1.12440980958032     -0.92692933560890
  H   -1.77938888659038     -1.16789625089757     -0.33930133297777
  H   -0.37926768934837     -1.94627199222744     -0.71429347415670
  C   -0.93731337087215      1.24928689756496     -0.77513614848032
  N   -1.49042480722778      2.24257049776266     -1.07119329220273
  C   0.71488649533061     -1.12433824415187      1.55478980185329
  N   1.28685076865705     -2.08204516787000      1.93569161371520
