17
Coordinates from ORCA-job run
  C   -0.27996436571421      0.01363167686714     -0.30456293220635
  C   -0.15544909166776      0.08779450320961      1.15040883185961
  Cl  1.54600468697838     -0.26201286309817     -1.17826243084686
  H   -2.43963586663036     -0.69688987186486      1.57602840680410
  H   -1.37853951227558     -0.02136818493332      1.42173671686034
  N   -1.08356493180154     -1.06325344742548     -0.79994408563470
  H   -1.88686328662977     -1.08695575809869     -0.13217499920766
  H   -0.57214041816851     -1.92168911619148     -0.62528796536386
  C   -0.70850726923044      1.27420709745449     -0.90943242720277
  N   -1.08854458967927      2.29104057910207     -1.36249616664729
  C   0.49515414600148      1.32069205712191      1.72855942357528
  H   0.05799829371716      2.24287339607625      1.33608543640811
  H   0.36582172082793      1.30538047062577      2.81349378189814
  H   1.57106807367093      1.32910244030636      1.51402008606521
  N   0.31788006540342     -1.13150789216467      1.77594703014460
  H   1.00983385434820     -1.58650972075077      1.18852022934627
  H   -0.48741150915006     -1.74708536623617      1.89253106414785
