15
Coordinates from ORCA-job run
  C   -0.20484961492651     -0.01097704601475     -0.34471730317167
  C   -0.06714160022206      0.04872798018382      1.14438765448281
  Cl  1.45808877867538     -0.31570621169742     -1.18684874859810
  F   -2.46226291010040     -0.56388812021033      1.60511768769163
  H   -1.46426877268587     -0.07646821357396      1.49539088074711
  N   -1.06220581907681     -1.07603257218072     -0.84252805384574
  H   -1.87872343486079     -1.05847342000442     -0.22812057258293
  H   -0.57927691988502     -1.94879372244843     -0.65736469534988
  C   -0.66736425652899      1.27030484363487     -0.89200452248218
  N   -1.06401259545423      2.29066349304879     -1.31896884279463
  N   0.42510619944921     -1.16498610006624      1.76726924933682
  H   1.18300171742084     -1.58375131850963      1.23609378548171
  H   -0.33852760730026     -1.82101779290765      1.86177519240244
  C   0.61951989394778      1.22127836825540      1.61310616061948
  N   1.16576694154772      2.18984983249068      2.00584212806314
