16
Coordinates from ORCA-job run
  C   -0.08578239210097     -0.09886363256607     -0.43483726255379
  C   -0.13247413853308     -0.01573485339579      1.08172323667845
  Br  1.83748138858685     -0.31461065304875     -1.10502442820143
  H   -2.72371224286786     -0.30471487502648      0.83768370756624
  H   -1.31998782367937     -0.04523787234623      1.19373404577457
  C   -0.50967326477916      1.18413484165045     -1.01108306764500
  N   -0.83458060376736      2.22336867394967     -1.45397606862312
  C   0.47307274108327      1.22383073531061      1.72055341440672
  H   0.35718866707414      1.17471912336571      2.80621611979099
  H   1.53762574412190      1.32222071509425      1.48620474686812
  H   -0.05102035829005      2.11450744637996      1.36612740393963
  N   -0.89009595406054     -1.14862912682027     -0.97694831024287
  H   -1.81830733771331     -0.98250090243954     -0.50770203323575
  H   -0.53962151992158     -2.02686826246234     -0.60052096015100
  C   0.36226783585240     -1.24313643810931      1.66621542014048
  N   0.74272925899475     -2.24240491953588      2.15932403548773
