15
Coordinates from ORCA-job run
  C   -0.15332956618941      0.08061081198928     -0.28581207357823
  C   -0.18219301255594      0.01372694984723      1.17845218409842
  F   1.18162905784031      0.07577814179060     -0.87139759533961
  H   -2.45983573998276     -0.85867558738625      1.45238306373075
  H   -1.54571032775595     -0.30541694255375      1.39991048608660
  N   -0.82738803462862     -1.02030607746121     -0.95773971586629
  H   -1.65373034353351     -1.22491363674252     -0.38559052365637
  H   -0.20944560707220     -1.81922635861526     -0.86105760635755
  C   -0.73690856618970      1.36252641662889     -0.75145235998905
  N   -1.19143734851469      2.38757969543838     -1.10171108777929
  C   0.44009144571929     -1.24091149020435      1.75424431028305
  H   1.34139260927254     -1.58290865646879      1.22852210400483
  H   0.71536248617388     -1.07813822210906      2.80128756954606
  H   -0.29741358747120     -2.06129664265160      1.74752139290098
  H   0.13737653488797      0.94536159849841      1.65239985191570
