15
Coordinates from ORCA-job run
  C   -0.66256198354013     -0.07952936387547     -0.14356822245932
  C   -0.53615124947316      0.09909390637692      1.22246917270375
  Cl  1.91513110613709     -0.18630032605309     -1.06827163332247
  Cl  -3.20831031705227      0.09809357337181      2.42374638243085
  H   -1.88186093926255      0.11524367980451      1.64968616796909
  H   -0.24298629896532     -0.80558475403442      1.75727592591579
  N   -0.96487909702096     -1.27643159786435     -0.73203431702910
  H   -0.54683955502906     -2.05272133092448     -0.23775973610317
  H   -0.68889575006253     -1.29494550548419     -1.70415216417639
  C   -0.89144646543337      1.07739659077499     -0.97293594181000
  N   -1.17919531992668      2.02513587699426     -1.60913615681207
  C   0.01782270499006      1.39120057301704      1.76605191913065
  H   -0.47492046042847      2.25436176804253      1.31369007151742
  H   -0.14065594503250      1.44444267718261      2.84537821727903
  H   1.08745957009984      1.44819423267134      1.54416031476594
