13
Coordinates from ORCA-job run
  C   -0.39560060909678     -0.00726724980455     -0.21769899215595
  C   -0.39684351435587      0.19271478024734      1.17929496968757
  Cl  1.84997437474729     -0.37479104716693     -0.93166500105456
  Cl  -3.24899700608958     -0.15481800402958      1.98051409432357
  H   -1.88613868557395      0.13280169766067      1.51459651172370
  H   -0.14702087830358     -0.68994978367567      1.76697107859039
  N   -0.98526840285056     -1.13972018233418     -0.73053088859220
  H   -0.83498657315455     -1.95145530237364     -0.14735360191865
  H   -0.70403811746197     -1.31854150099221     -1.68389210141504
  C   -0.53424981260837      1.15773710983715     -1.06315516974893
  N   -0.73591785194923      2.09957882137879     -1.73921307511917
  C   0.11726943780699      1.41365550455350      1.70754206287377
  N   0.49530763889017      2.41789515669931      2.19172011280550
