13
Coordinates from ORCA-job run
  C   -0.48796190223137     -0.03350619902987     -0.19027999030286
  C   -0.17074316425634      0.00346335164047      1.22398831026981
  Br  1.70638027118955      0.17039435276852     -1.54686472630544
  H   -2.26966580820315     -1.12050815117436      1.47513695788240
  H   -1.32523826645443     -0.38701740920260      1.63198724704588
  H   0.11802339956145      0.97951703850785      1.60794545840711
  N   -1.12083087879927     -1.17419543329146     -0.52882464449522
  H   -1.58595741917526     -1.13840737857726     -1.42839979850698
  H   -1.80731944901051     -1.41594915903601      0.34157465943245
  C   0.67204603388478     -1.05640298614173      1.72231361536678
  N   1.31892632562435     -1.91047201396423      2.20580407319641
  C   -0.93605775338175      1.21604432666476     -0.76661729105418
  N   -1.44166138874806      2.19108966083591     -1.19591387093618
