16
Coordinates from ORCA-job run
  C   -0.09646848109554      0.04026531246425     -0.36389242758490
  C   -0.14723814158856      0.11116227236244      1.15325980594143
  Cl  1.62052697378201     -0.24880478745333     -0.95434606143173
  H   -2.48420606573345     -0.60535905678503      1.47375030443143
  H   -1.33469705008491      0.12781368638966      1.36901605252687
  N   -0.90851116053507     -1.06135309134808     -0.84624488408262
  H   -1.77631731130043     -1.00647237324412     -0.28707848246302
  H   -0.45515656245183     -1.91721539845978     -0.54229076149621
  C   -0.58633651640139      1.25334791724434     -1.03125979361945
  N   -1.05061304314370      2.16821963017359     -1.60327883922504
  N   0.22622414035347     -1.06673285840481      1.83912638146208
  H   0.92588907154064     -1.61510469254058      1.35783655912352
  H   -0.62654091364908     -1.59780224833671      2.02153959844509
  N   0.50463591445546      1.30690960697800      1.72430098573364
  O   0.86791796861098      2.20261408544743      0.94820972046941
  O   0.59023117724140      1.38290199551273      2.94986184176950
