15
Coordinates from ORCA-job run
  C   -0.15879028036835     -0.05857612399102     -0.35018537047600
  C   -0.11295737084049      0.00774040350151      1.17400415242835
  Cl  1.54332183201686     -0.15264608562983     -1.05791368380515
  H   -2.67086496664737     -0.10192382801807      1.13244234619421
  H   -1.31226369702909     -0.03640580135334      1.35680956785020
  N   -0.94336713956698     -1.15002645847610     -0.85399618980574
  H   -1.85352639062365     -1.02264028771459     -0.37219254296661
  H   -0.53440447327672     -2.00846419829317     -0.49262180368320
  C   -0.70596718125877      1.21231162854688     -0.85546513717721
  N   -1.09598937298543      2.24777279272246     -1.24990850033164
  C   0.46772737992342     -1.20698407353397      1.70671210130001
  N   0.89034557258932     -2.22165565373277      2.13052756314134
  N   0.42758428969431      1.19968423877073      1.78399873747928
  H   1.25075982743626      1.52584252897580      1.28874778514698
  H   -0.28223802906332      1.92278091822550      1.74788097470520
