16
Coordinates from ORCA-job run
  C   -0.27651525439212      0.01660379708040     -0.42235752344765
  C   -0.15554365240929      0.07184797520813      1.08958135412046
  Cl  1.38838140736603     -0.03180377078753     -1.23947629418313
  H   -2.50826899054029     -0.81176028567620      1.40376482901290
  H   -1.32415723638657     -0.09749510634906      1.38435531025725
  N   -1.03498384420640     -1.11580312692445     -0.89027239780871
  H   -1.82961480033627     -1.17792680948209     -0.21761169363192
  H   -0.46956936524518     -1.94545244901588     -0.74031100341491
  C   -0.91098224218210      1.24631680783993     -0.92393554653293
  N   -1.43406673099173      2.22182879349039     -1.31775613381521
  C   0.49982221179009     -1.15554283333012      1.70387187985654
  H   1.47493695270299     -1.38228515706178      1.26378332299123
  H   0.62693546923457     -0.99639951824031      2.77729046448109
  H   -0.17922492612752     -2.00518551672939      1.58421378477544
  C   0.39404804116439      1.31011081581494      1.57978321329154
  N   0.82698296055942      2.31212638416304      2.02489643404802
