15
Coordinates from ORCA-job run
  C   -0.24837476842970      0.01353132408596     -0.29763185218913
  C   -0.20546931408862      0.04506804427525      1.15841324288759
  Cl  1.58796730286638     -0.03409374208843     -1.14854401548500
  H   -2.51707325362440     -0.83518272777401      1.41334035973182
  H   -1.43160363044888     -0.18388364642940      1.37993684416250
  H   0.10744260618431      1.01028309016094      1.56250251434586
  N   -0.94050677254188     -1.10678085979720     -0.86988934295246
  H   -1.77634309856894     -1.21119771604682     -0.25435263308002
  H   -0.37269519418456     -1.93142188624760     -0.70681648146816
  C   0.44213879764340     -1.14812719772593      1.82829598829419
  H   1.42946410669994     -1.37700340142925      1.41400196138579
  H   0.55211116064901     -0.95803425711116      2.89989814009445
  H   -0.20620851092699     -2.02612281406180      1.72880012565651
  C   -0.78035029304075      1.26500616269623     -0.84307798918868
  N   -1.23775913818832      2.26867962749320     -1.25035686219525
