15
Coordinates from ORCA-job run
  C   -0.12374568430359      0.03921153539912     -0.37419237980928
  C   -0.13321723545310      0.13924917494098      1.13318422382505
  F   1.19238948978997     -0.14842536420396     -0.85932256722242
  H   -2.34932356838076     -0.75504738644180      1.50666335573610
  H   -1.37312684018626     -0.02688226949243      1.38192225779704
  N   -0.89841091505185     -1.06993589248782     -0.87819809745087
  H   -1.72355439475623     -1.13047213297370     -0.26420170512850
  H   -0.35198664890533     -1.90228775676847     -0.68175341435024
  C   -0.61881671461489      1.29104548683711     -0.99072192569903
  N   -1.01804653300554      2.27969034949097     -1.48257269229708
  N   0.36587102455252     -1.03678649405289      1.80850404332065
  H   1.08789716104705     -1.50340125330322      1.27372319155827
  H   -0.43722922654344     -1.65720395138452      1.94045658401998
  C   0.43368303615777      1.36382152495932      1.64092214431156
  N   0.86402704965366      2.37566442948131      2.06746698138876
