14
Coordinates from ORCA-job run
  C   -0.31037116398305     -0.09392159430848     -0.35249295869071
  C   -0.06715317656766      0.07336907799944      1.13107067400815
  Cl  1.26331640443131     -0.32009745810940     -1.28081117082190
  F   -2.53169172142326     -0.19969114932503      1.51408608858103
  H   -1.32286402204980     -0.00859861741229      1.52677022141832
  H   0.41960715090369      1.01204075227850      1.38695435844608
  N   -1.21294696868209     -1.15066585714841     -0.75547356027311
  H   -2.02294776603952     -1.00108876518625     -0.14263673990191
  H   -0.77871637943242     -2.00866979366205     -0.42951493539992
  C   -0.85118593183437      1.19075873787541     -0.82952927759612
  N   -1.27387704966674      2.22190250156774     -1.19944447961242
  N   0.68824351257037     -0.99388937127583      1.74017250751342
  O   1.37593878861679     -0.71905443070784      2.73075007109649
  O   0.57647832315672     -2.14659403258551      1.29724920123261
