14
Coordinates from ORCA-job run
  C   -0.25643375207714      0.01667885668701     -0.40779289291996
  C   0.01023599146050      0.01859962755075      1.04348548664433
  Br  1.67673867949293      0.15787028076996     -1.49613955089456
  Cl  -2.73039528314373     -0.09408234660549      2.23698743994781
  H   -1.38034977837063     -0.01418488137332      1.62271147002368
  N   -0.93038021678144     -1.11455019371643     -0.85991602661434
  H   -1.00460810996322     -1.15013329039845     -1.86666540380015
  H   -0.53437558814091     -1.96980823469770     -0.48932369296596
  C   -0.86997797153776      1.24903761585632     -0.88569609475835
  N   -1.39790285199115      2.22213688467181     -1.28268403181655
  C   0.61332532028343      1.20396480114568      1.57261009316121
  N   1.09417521898906      2.17040604505878      2.04372978879899
  C   0.56662960751763     -1.21239934632189      1.51997517544393
  N   0.95235873426244     -2.26761581862704      1.87660823974993
