14
Coordinates from ORCA-job run
  C   -0.23974634117915      0.01373140840053     -0.29669190289120
  C   -0.32863955467667      0.14316418914461      1.14218980660695
  Cl  1.70010543830178     -0.17039611945429     -0.90611101284123
  H   -2.74609399134210     -0.46804574940234      1.26231612677610
  H   -1.59140312842733     -0.02413413393992      1.27981018974111
  H   0.03746413299785     -0.77660434353878      1.62495932256244
  N   -0.90920696581835     -1.13371286233654     -0.83358619187549
  H   -1.85046297815541     -1.09009775845837     -0.39317138213638
  H   -0.46106185915255     -1.95144267503837     -0.43092375202744
  C   -0.65481068590212      1.22616163914104     -1.00105773792893
  N   -1.04084752413294      2.17574798634444     -1.57602552896510
  N   0.14905886942723      1.39581247340425      1.67827784021322
  H   1.14730403121321      1.35309177985035      1.85211166550293
  H   -0.32275944315346      1.59144416588339      2.55246255726304
