12
Coordinates from ORCA-job run
  C   -0.26008264201442      0.02154996616053     -0.29987796175720
  C   -0.18585223467845      0.10306119627315      1.14127031722189
  Br  1.69885544056657     -0.20052791248841     -1.26574748545613
  F   -2.62949992579009     -0.52505241943227      1.39320940960165
  H   -1.52350905260951     -0.08121864490599      1.39122689308735
  H   0.27117683535331      1.01598918770831      1.52425611999117
  H   0.25069630949554     -0.79795960682187      1.57919891195843
  N   -0.99620050238230     -1.09680237408752     -0.86159133045391
  H   -1.83633904570732     -1.13428637613120     -0.27377307741736
  H   -0.45871529599831     -1.93330110852587     -0.66048891057087
  C   -0.69974477821430      1.27743619796278     -0.91366105054342
  N   -1.08017510802072      2.29676189428835     -1.35977183566160
