15
Coordinates from ORCA-job run
  C   -0.27202622042740     -0.00237502220357     -0.28791546922456
  C   -0.18141183232666      0.03300608957628      1.15821064078623
  Cl  1.58970676952618     -0.11730975274396     -1.17332435836475
  H   -2.58352976445532     -0.64441722667732      1.39631989778500
  H   -1.41030263708657     -0.16256052998665      1.40862047749471
  H   0.23155953457616     -0.91216039739268      1.52722096413135
  N   -1.01365457422524     -1.09797222458957     -0.82498773413623
  H   -1.89245392596674     -1.08306072121191     -0.25294266841084
  H   -0.53149824028433     -1.94483204318724     -0.53636221117761
  C   0.42360921900253      1.24950260239229      1.81893728535297
  H   -0.09103512828969      2.16239744084428      1.50686230485257
  H   0.33127998673698      1.17559439187374      2.90705236040416
  H   1.48529333172220      1.36016302899427      1.56950000983231
  C   -0.75970489570852      1.25719855189316     -0.85128829639796
  N   -1.18872162279358      2.27487581241887     -1.25576320292735
