18
Coordinates from ORCA-job run
  C   -0.30597973638849      0.04020790393292     -0.29242504105410
  C   -0.13612649437545      0.07905897120989      1.14473704003653
  Br  1.64458770194353     -0.09498132851959     -1.34769130879538
  F   -2.50386696958763     -0.73926942749247      1.53636554912375
  H   -1.40671398250895     -0.14454958231489      1.42459600619917
  N   -1.04507588656592     -1.06785050719851     -0.86203034994440
  H   -1.80185677356629     -1.21840858179826     -0.18303070794215
  H   -0.44480050990450     -1.88315986814390     -0.85484341511151
  C   0.47035017089060      1.34440967250230      1.70805205698731
  H   -0.03501339657072      2.24269936517243      1.34512983458574
  H   0.39839642539670      1.34190920774860      2.80066487320740
  H   1.53400913755724      1.42397511842817      1.43840702365610
  C   0.47233391482314     -1.17769141420629      1.73653616208025
  H   1.52400444325900     -1.29016142350816      1.43777051213622
  H   0.42076357465441     -1.12791775365171      2.82838163574412
  H   -0.08394951963441     -2.06570976486808      1.43457771880979
  C   -0.79038431524629      1.30239073202564     -0.85647233973352
  N   -1.21466778417596      2.31557868068192     -1.27818524998534
