14
Coordinates from ORCA-job run
  C   -0.25820867890675     -0.09835081803874     -0.33837611898889
  C   -0.14984029444953     -0.02164534261297      1.16711012762892
  Cl  1.45999879553890     -0.31470102868406     -1.13226820423490
  H   -2.56194430849465     -0.85060030306025      1.47564715849597
  H   -1.26894353498740     -0.26297286376771      1.51556126993813
  H   0.22582275940703      0.93537877142940      1.51752130352742
  N   -1.12807799322231     -1.11733937344264     -0.74160582298487
  H   -1.55321853476264     -0.93162618370141     -1.63960145572896
  H   -1.84409248929364     -1.24718197104940      0.01093744280537
  N   0.66281920633300     -1.05772443838417      1.78393090270891
  O   0.55689312516821     -2.21194868641868      1.36836663954394
  O   1.35226194015946     -0.72342796459750      2.75789634417747
  C   -0.63945996587762      1.24227819030946     -0.82277829471852
  N   -1.00763002661206      2.28986201201868     -1.21081129217000
