16
Coordinates from ORCA-job run
  C   -0.21876079153242      0.05138271265723     -0.35709599680677
  C   -0.15892163227712      0.06510953770115      1.15972313776226
  Br  1.66317868074631     -0.03263324137709     -1.17455896785856
  H   -2.58584634324196     -0.82131153680311      1.25377057083130
  H   -1.31819847261897     -0.05138819449437      1.38576889777194
  N   -0.98996310783347     -1.03399353602395     -0.88539543610128
  H   -1.82168351761573     -1.07723314848719     -0.23630105666951
  H   -0.47093446759962     -1.89236754501211     -0.72765753680679
  C   0.41378679946110      1.27310883153845      1.70834263132747
  N   0.86840649329077      2.24451223336030      2.19518372936469
  C   0.42934199017209     -1.19653221698721      1.77487488094297
  H   1.42433267788629     -1.42422313082101      1.38346308020610
  H   0.49447339290667     -1.07383614338374      2.85853980651923
  H   -0.25725582332350     -2.02551887595684      1.58407086974257
  C   -0.76117885309373      1.32016696685099     -0.85911866503274
  N   -1.21748702532672      2.33018728723850     -1.25136994519291
