13
Coordinates from ORCA-job run
  C   -0.13265394404136     -0.04662285466757     -0.37819975314787
  C   -0.14559541339681      0.02467041941469      1.13303871846246
  F   1.17340515753843     -0.15729353273142     -0.88389139183860
  H   -2.65911697595434     -0.28586555845622      1.14805312792748
  H   -1.38098275496846     -0.04749257409695      1.32231842905298
  H   0.26665843492996      0.95843288706945      1.52330668512007
  N   -0.90467211621271     -1.13378550820766     -0.91427806167619
  H   -1.82044708302052     -1.04941060723059     -0.44297446823452
  H   -0.48210083568455     -1.98769842092360     -0.55713887538699
  C   -0.66195116472441      1.23125992714805     -0.91710969815047
  N   -1.03381553125377      2.25813889663582     -1.34625175285846
  C   0.48294371211157     -1.12593490721169      1.72332510515024
  N   0.95816851467698     -2.08478816674230      2.21696193557990
