16
Coordinates from ORCA-job run
  C   -0.19236237125158     -0.01773928146657     -0.32981851569488
  C   -0.36222512531190      0.14940001052927      1.11524647744785
  F   1.23511438704463     -0.33593026059776     -0.69865408766873
  H   -2.50923390643206     -0.29936515861014      2.08934794504128
  H   -1.69370906090677      0.03278276472331      1.50581336926140
  N   -0.99047984843518     -1.07531456131130     -0.86101934395989
  H   -1.12793684684482     -1.76415305751745     -0.13308782116307
  H   -0.52405335411862     -1.49343280707206     -1.65579993943213
  C   -0.42752825003583      1.22289224515093     -1.09276993927318
  N   -0.61790913545791      2.15863189815623     -1.77645329812383
  N   0.11529416119353      1.42657271413324      1.59419798026420
  H   1.05249871703551      1.30976376358420      1.97115841165175
  H   -0.47707428053944      1.69039234363867      2.37901184891994
  N   0.10892027303358     -0.99761988636111      1.86215620600586
  H   0.70356469637118     -1.61185948996676      1.32053598274114
  H   -0.69585005534432     -1.50330123701270      2.24641472398226
