13
Coordinates from ORCA-job run
  C   -0.19766413763163     -0.02981215700676     -0.33769418844632
  C   -0.14972509638239      0.02959132611029      1.16685730391372
  Cl  1.48938293367283     -0.11078654451222     -1.10532276286632
  F   -2.65570861504795     -0.22273847182003      1.15754689912016
  H   -1.50606712792954     -0.03737369597680      1.35384465705106
  H   0.30091997227970      0.95112832205271      1.54086260868010
  N   -0.94994427900366     -1.14278592371872     -0.88231620327982
  H   -1.83972901196395     -1.09314437003954     -0.37641817521112
  H   -0.47932000258293     -1.99115621756979     -0.57904894808492
  C   -0.77605597617851      1.22734833053577     -0.84104987328573
  N   -1.21799950284336      2.24352048680200     -1.22925016034907
  C   0.45245383007503     -1.13996077954652      1.73802194089254
  N   0.89757701353636     -2.12258030531037      2.21418690186570
