16
Coordinates from ORCA-job run
  C   -0.28754641209437      0.01450189812807     -0.30175630875065
  C   -0.09108272183990      0.10096707980064      1.12151509369886
  Br  1.68641887173468     -0.40617374287304     -1.35751716509500
  F   -2.41139866813924     -0.70642601991436      1.70489729885676
  H   -1.37944993430326     -0.06713958133284      1.43844745458801
  N   -1.11968894048185     -1.05553328911064     -0.80198785007221
  H   -1.82532053846830     -1.20202347637326     -0.07519425836466
  H   -0.54982447010801     -1.88781367331966     -0.87932454239933
  C   -0.61908005338209      1.29766620664172     -0.91165074252477
  N   -0.92125529458184      2.35319050548644     -1.33628911441398
  N   0.44366489195063     -1.07440354825518      1.76534262188264
  H   1.15047953172783     -1.49175644147106      1.16294862598479
  H   -0.31580240251068     -1.72631784014534      1.91343740845143
  N   0.59351723648120      1.29010630809305      1.59256444004583
  H   0.75023620067746      1.14443497717764      2.58188671517215
  H   -0.00097729666225      2.10398063746782      1.48172032294011
