16
Coordinates from ORCA-job run
  C   -0.48088340174497     -0.01104917195777     -0.20392510754046
  C   -0.12029834959495      0.05161029842924      1.15596357053945
  Cl  1.69723104256604     -0.47062295182372     -1.24202128011658
  Cl  -2.89053219893303     -0.15636213619433      2.15264577266192
  H   -1.45104759878912      0.09347471218019      1.47403535783344
  C   -0.81541651170524      1.24728911268840     -0.81760213053285
  N   -1.10392171301705      2.30512021392472     -1.25059629755494
  N   0.55538159857748      1.18193940455720      1.65755489844642
  H   0.40180946715422      1.24608794786879      2.65518930329479
  H   0.29432245998121      2.04131272315131      1.19265436170766
  N   0.29232949857034     -1.13045408318915      1.84400579031689
  H   1.12080565466869     -1.46927720892697      1.35500482882614
  H   -0.43670149315428     -1.83182319815869      1.80671204777400
  N   -1.12637640057351     -1.12545409651873     -0.77178750162296
  H   -2.08931399609460     -1.18166178988069     -0.44840489303528
  H   -0.61498805791124     -1.97001977614980     -0.55745872099765
