14
Coordinates from ORCA-job run
  C   -0.22480972314898      0.06824150271276     -0.28671705330810
  C   -0.09042623287061      0.05939011971580      1.13706988619793
  Cl  1.63843245173609      0.03702659777770     -1.25876945598690
  F   -2.64195405547239     -0.28871842678573      1.38637347490661
  H   -1.57325460440488     -0.07366866823685      1.39461130323924
  H   0.35879316256399      0.95805331888870      1.56416584860907
  N   -0.83573259902263     -1.10884734154054     -0.88925347991478
  H   -1.71771341470094     -1.19898917432175     -0.38463836146201
  H   -0.26820244461930     -1.90756550780530     -0.62464657868438
  C   -0.82944493148305      1.32319193156307     -0.87488203109319
  H   -0.81304237357205      1.27335606759890     -1.96275480764390
  H   -1.86362760241905      1.38031770184753     -0.52080161632480
  H   -0.28666469335152      2.20837951281699     -0.53877493522599
  H   0.35411706076534     -0.85616763423128      1.53557780669118
