18
Coordinates from ORCA-job run
  C   -0.16447990270958      0.04770620301205     -0.37725329121743
  C   -0.12646232378872      0.04722492296025      1.13369031270023
  Cl  1.56490389855861     -0.00841063933167     -1.09127963052092
  H   -2.55971439803690     -0.50241495372579      1.29606047426838
  H   -1.36697540736134     -0.06640984824140      1.34039568408104
  N   -0.85944966741202     -1.10540813209057     -0.91077659990834
  H   -1.73850768999779     -1.13155032831042     -0.37111561504747
  H   -0.34274798337614     -1.93887461338048     -0.64825734236748
  C   -0.82401954664805      1.30119485260170     -0.90964774727604
  H   -0.86665750270793      1.25282180318219     -1.99840767666736
  H   -1.84213340626502      1.32582816813083     -0.50433635728140
  H   -0.28820562175109      2.19763366812841     -0.59519667599825
  C   0.39767264466744      1.25415294040009      1.70736939465237
  N   0.79500930866537      2.24837017283618      2.20457626405706
  C   0.43112633902734     -1.21156784774382      1.77771919423894
  H   1.39600876054375     -1.51050171321013      1.35446560842022
  H   0.55792573819071     -1.05715641351202      2.85229570629171
  H   -0.29304323959863     -2.02465824170541      1.65360829757474
