17
Coordinates from ORCA-job run
  C   -0.17432075096579      0.01778906996651     -0.33347034547773
  C   -0.08697026173335     -0.05174438788134      1.17572575415064
  Cl  1.53581008783668      0.16690545573744     -1.07438026565732
  H   -2.58325316720048     -0.02235047023775      1.52298277755359
  H   -1.30452010448877     -0.14368812278929      1.43442682111371
  N   -0.77525062290030     -1.16756663634592     -0.90664252159894
  H   -1.70585973805832     -1.21043053172026     -0.48256077922530
  H   -0.26453766794992     -1.97945483420716     -0.57017962944299
  C   -0.95871168788256      1.23052648829269     -0.78006481944183
  H   -1.07797204860792      1.20145990875990     -1.86384347804858
  H   -1.93523671169076      1.18092652647195     -0.28308191377509
  H   -0.45817077718449      2.15564865754783     -0.49413137676344
  N   0.36085384193062      1.12001465618043      1.89715114251997
  H   -0.44010869933917      1.73354288666538      2.01524983006122
  H   1.08445332593624      1.60976498292641      1.38204617752697
  C   0.57365995013051     -1.25833821698223      1.62239535487945
  N   1.04930503216777     -2.27737543238459      1.97691727162569
