18
Coordinates from ORCA-job run
  C   -0.13525208736643      0.06029398975281     -0.41078444112743
  C   -0.13563002777770      0.04315794044236      1.10320569194780
  F   1.19608259399871      0.00080070225258     -0.90857997157043
  H   -2.53227517449120     -0.51813581916908      1.26960883820985
  H   -1.41483533000480     -0.09788000316085      1.30535759928451
  C   -0.76827718713092      1.31870362010874     -0.95876077860723
  H   -0.76109635835865      1.26862889133714     -2.04908872599300
  H   -1.80050224518565      1.37641969297932     -0.60127235646607
  H   -0.22067140008789      2.20046782817414     -0.62153008406801
  C   0.38018481027730      1.23721412412297      1.69959638614336
  N   0.76356114794883      2.22848655665245      2.21717641787985
  C   0.42744391410158     -1.23166658657747      1.71405915029943
  H   1.34383153168113     -1.57150295051295      1.21817959376005
  H   0.65136234282982     -1.08128688673289      2.77337371232086
  H   -0.33217438947655     -2.02234469327689      1.65385372779558
  N   -0.80742097338162     -1.09612946631616     -0.97180400637614
  H   -1.69678596914335     -1.15904356794677     -0.46360147549059
  H   -0.27175519843261     -1.91412337212944     -0.69733927794242
