16
Coordinates from ORCA-job run
  C   -0.36503030780266      0.01001373227443     -0.22907064366260
  C   -0.11882100862496      0.11539003410060      1.17106530568095
  Cl  1.49757071377469     -0.35651068261062     -1.24957634159275
  F   -2.61387867835781     -0.16797026159805      1.63846040408208
  H   -1.53142301175155      0.11695774627271      1.50121389155990
  H   0.39419230383602      1.03518355724544      1.46086178990987
  C   -0.83734364497093      1.26870397257517     -0.90904633283071
  H   -0.83428986347650      1.12842480203966     -1.98882727637451
  H   -1.86077558512055      1.46516582998899     -0.57103779982222
  H   -0.20346393623539      2.11711562018888     -0.64527013211589
  N   0.38684634290835     -1.04601409561418      1.88398592569660
  H   1.11321908628367     -1.48882885036943      1.32424216332900
  H   -0.36366809387628     -1.71362546260686      2.01338833080811
  N   -1.10761292431044     -1.14250554553837     -0.69978130339995
  H   -1.95213371498756     -1.13039472970620     -0.12546500783860
  H   -0.58526767728810     -1.97102566664217     -0.43871297342930
