19
Coordinates from ORCA-job run
  C   -0.23313666720506      0.03527156017928     -0.34175135848132
  C   -0.22837303317972      0.06584034349749      1.10546199377150
  Cl  1.71107223059858     -0.01029697982545     -1.05558999567327
  H   -2.65580779932015     -0.32387400651333      1.42306001612293
  H   -1.51124797202517     -0.05199145639094      1.28134873028652
  N   -0.81899344517758     -1.14648462943760     -0.92482571282604
  H   -1.75118530905525     -1.19733148023913     -0.49013793922721
  H   -0.30509074174912     -1.95713260631042     -0.60017988789098
  C   -0.81680854581530      1.26269467299147     -0.98351105804937
  H   -0.76512317711597      1.16902392890802     -2.06834720220443
  H   -1.87014309223963      1.30907553710258     -0.66805030783133
  H   -0.31205022041278      2.16108411217362     -0.63898664697049
  N   0.18895796487655      1.34008446678202      1.66484045960699
  H   1.19334880816689      1.32485542381756      1.83021311002655
  H   -0.26917127198978      1.45656398018141      2.56418037001431
  C   0.31639761099075     -1.15070274351762      1.82292550863539
  H   1.38771456158895     -1.29147355247318      1.62589308187061
  H   0.17141207892786     -1.02058086822802      2.90135902514681
  H   -0.21837197986408     -2.06463570269778      1.54645781367287
