19
Coordinates from ORCA-job run
  C   -0.18633720372232      0.11587445169451     -0.35732754694283
  C   -0.15145556388740      0.09171590492867      1.15467508345594
  Cl  1.54015737903069      0.16520148458971     -1.04761621956104
  F   -2.62977128913779     -0.35603940313167      1.27977442432052
  H   -1.54279335583158     -0.00975338670824      1.35710818938048
  N   -0.76728073227789     -1.11941821486070     -0.88044638936873
  H   -1.66461946565672     -1.19650689600459     -0.39999270207318
  H   -0.19773049255245     -1.89916992065434     -0.57286104614909
  C   -0.95679500193547      1.25788483512934     -0.99953018235030
  H   -1.02986538685476      1.05059754758422     -2.06844228301542
  H   -1.95674710000648      1.25532949413506     -0.55783932096503
  H   -0.48442060166164      2.21646985825890     -0.82093685632260
  C   0.37995980770412     -1.18988504345280      1.76501308485988
  H   1.36339170151703     -1.46925365110439      1.36192814145218
  H   0.47757198592324     -1.05956821936483      2.83999787108636
  H   -0.32285302650530     -2.00724870869491      1.59658311589962
  N   0.39942158423601      1.25696158986681      1.80151202155658
  O   0.79117023473908      1.16264774982588      2.97914453889959
  O   0.41738652687965      2.34622052796336      1.20526607583703
