16
Coordinates from ORCA-job run
  C   -0.29818130504077      0.03218545709765     -0.27438247117678
  C   -0.12970316611387      0.11026905199676      1.15982500447131
  Br  1.85514530583868     -0.28171964858193     -1.21785534032604
  H   -2.56926856415166     -0.35259923181692      1.36524536937935
  H   -1.35211826634899      0.10560701037607      1.39558047120420
  H   0.33553765778503      1.03627620289112      1.50630408314140
  N   -1.03063368356261     -1.08044651958940     -0.74077795544790
  H   -1.94612341190319     -0.95796439814078     -0.23360966540500
  H   -0.62446264058784     -1.91590538418042     -0.32989578448502
  N   0.35209149935495     -1.04902181142112      1.88045274429002
  H   1.10986960775313     -1.47152358869388      1.35113071139730
  H   -0.40680743659550     -1.71855153245899      1.96553724224889
  C   -0.77966593354546      1.30096635276246     -0.90686180175330
  H   -0.78428189173778      1.20656067397164     -1.99184054940381
  H   -1.81367226208137      1.45063227576906     -0.55396775684504
  H   -0.17092550906276      2.15589509001868     -0.60965430128959
