18
Coordinates from ORCA-job run
  C   -0.14459075865008     -0.02320345144559     -0.36050535930168
  C   -0.08522580120500     -0.01362789476365      1.14969345388789
  Cl  1.57274550969282     -0.07420723362119     -1.09773481962050
  H   -2.60955666064227     -0.06066101839691      1.33668052641122
  H   -1.32299774254236     -0.06813095747070      1.36905057919401
  N   -0.84800462149933     -1.17926700821905     -0.87604934361352
  H   -1.76622982731879     -1.12712250046626     -0.41828994353443
  H   -0.39450717200262     -2.01290305316182     -0.51096358699748
  C   -0.81681869403422      1.22415885572580     -0.89190075994489
  H   -0.93692994853698      1.12725766270087     -1.97167953318720
  H   -1.79905051521633      1.28907875899698     -0.40868748035749
  H   -0.23688287739489      2.12044125889191     -0.67006797657750
  C   0.45056039762255      1.24364086166873      1.81437531337413
  H   -0.26419524042404      2.06174061039869      1.68390844314394
  H   0.56407833806383      1.08071174795039      2.88954349554944
  H   1.42153688324061      1.54920738316806      1.40826700342912
  C   0.49668394286976     -1.22004228708691      1.67346770293937
  N   0.93690478797732     -2.22251173486936      2.11321228520557
