18
Coordinates from ORCA-job run
  C   -0.17551290498587     -0.01627924775165     -0.36450270348347
  C   -0.07568017675984      0.03049818416453      1.14186717390006
  Br  1.73949503582278     -0.07841179366005     -1.15884583620949
  F   -2.60189207041462     -0.00944201253995      1.30386070626459
  H   -1.47335453473992     -0.06421354421176      1.37195200246439
  N   -0.88925415307015     -1.12141403513361     -0.95930861086142
  H   -1.83788538516379     -1.01044692113804     -0.59889420876899
  H   -0.53378928976141     -1.96470694944757     -0.52145481470040
  C   -0.78006959102155      1.27287456799253     -0.89859527456159
  H   -0.89084097836251      1.17914142054060     -1.97927933189933
  H   -1.76252827935195      1.38144996479663     -0.43055489950841
  H   -0.16644197347905      2.14275781575909     -0.67201180679616
  N   0.61483464081025     -1.12463562972449      1.70803308537886
  O   0.33827407010760     -2.25466119266289      1.26269746957978
  O   1.42744588003141     -0.96745204721387      2.62312943983799
  N   0.42078479539263      1.23497292274407      1.72671425650609
  H   1.26099236285378      1.56998194975929      1.26173752261753
  H   -0.29537744790777      1.94514654772715      1.69821583023995
