17
Coordinates from ORCA-job run
  C   -0.23851961353559     -0.01182657946967     -0.29790324503053
  C   -0.14259032557522      0.00924552325327      1.13792408776684
  Cl  1.70206633748397     -0.09451749194580     -1.17661001913698
  H   -2.61982600651859     -0.20715543748508      1.32631746413690
  H   -1.43238972281804     -0.06446298698723      1.34499470939980
  H   0.21815127772566     -0.94359547573076      1.53980213190770
  N   -0.89462103949970     -1.16553844565893     -0.83253029188494
  H   -1.84988746170635     -1.08691088813104     -0.44084477961133
  H   -0.48551224634646     -1.98318902033505     -0.38878919328762
  C   -0.81401801797629      1.23082997917387     -0.91213713451086
  H   -0.87344638676734      1.11608876981747     -1.99398531055566
  H   -1.82831847425397      1.33926255593223     -0.49331383336645
  H   -0.22732121437310      2.11658005021506     -0.67131774382744
  C   0.45284290656282      1.21832112924691      1.82208983893701
  H   -0.18451717688416      2.09941241765128      1.69441154292951
  H   0.54252526848585      1.04380222453047      2.89921126066263
  H   1.44897189599652      1.45649367592300      1.42966051547142
