18
Coordinates from ORCA-job run
  C   -0.15975254708286      0.08534397628901     -0.35779276764546
  C   -0.27156935147189      0.18437503466427      1.10355596064578
  F   1.25269844454487     -0.10048133534079     -0.79099550563269
  H   -2.57557494795153     -0.63770617318175      1.69355097121296
  H   -1.82249213666558     -0.17839131331618      1.45141396536183
  N   -0.80046977464569     -1.10916264944761     -0.91684203711137
  H   -1.70912529061824     -1.16390464549514     -0.45779157081282
  H   -0.27806445715140     -1.89808496084601     -0.54958471306148
  N   0.20925093784690      1.45488603492003      1.63308502174032
  H   1.20770654926250      1.37239478716992      1.83800815661981
  H   -0.23741036054512      1.58981239978045      2.53519712073862
  N   0.26786948908643     -0.96803866636945      1.80959793878366
  H   0.98965492785294     -1.44515586661499      1.27455884994925
  H   -0.47884342894126     -1.63487958719635      2.01309573775511
  C   -0.62923290863191      1.30959815072811     -1.10929079241966
  H   -0.12112898496377      2.19085170729380     -0.72248429410927
  H   -1.70585421592850      1.43728656105275     -0.96234298725959
  H   -0.42574194399589      1.17077654590993     -2.17392905475500
