19
Coordinates from ORCA-job run
  C   -0.36668527592404      0.03918809401353     -0.24386184419496
  C   -0.13911898715634      0.07655927019071      1.16549244648173
  Cl  1.55722474664187     -0.15283708756474     -1.22730843664701
  F   -2.60792353376670     -0.42783258253518      1.56660881107931
  H   -1.52768484848470     -0.05781051162627      1.45098287951162
  N   -1.01852069564110     -1.13406539490995     -0.78882017605981
  H   -1.87040912752114     -1.21332523087722     -0.22999062850954
  H   -0.44251791491240     -1.93719642183178     -0.56530277854025
  C   0.49752955086440      1.31827232378592      1.74391577580155
  H   -0.07297595158936      2.22516653475048      1.52528949990283
  H   0.55717248131312      1.20817451459234      2.82920403335219
  H   1.51872689412658      1.45524767377598      1.35695008091994
  N   0.40955195806126     -1.13339864273034      1.76732478526843
  H   1.15971852444525     -1.48404305356231      1.17247989434288
  H   -0.31386497947652     -1.84068377528922      1.81653714877574
  C   -0.89514790857287      1.28779204158359     -0.90327726941240
  H   -1.89687135300820      1.48181886165989     -0.50132200319148
  H   -0.25551013304042      2.14943593187031     -0.71772831247003
  H   -0.96615344635869      1.11486745470427     -1.97598390641074
