20
Coordinates from ORCA-job run
  C   -0.21507330609022      0.02179156272077     -0.30367967043812
  C   -0.12052174902298      0.02018965231520      1.14370383152169
  Cl  1.69058928210408     -0.03995243518007     -1.16261443417744
  H   -2.56815582644858     -0.37347411353562      1.37547089085603
  H   -1.39608436407429     -0.08087166950201      1.34388621948409
  N   -0.86868750228353     -1.12374353237979     -0.87524445364526
  H   -1.77738251032570     -1.14330050999166     -0.37854927372857
  H   -0.36986182178276     -1.95664517294704     -0.58341409785999
  C   -0.80738653367679      1.26838927342329     -0.90541472494430
  H   -0.87486047806186      1.14604279694225     -1.98594827624925
  H   -1.81987336316651      1.37174692247779     -0.48504696955188
  H   -0.22518994456187      2.15985939977445     -0.67672091379101
  C   0.41687861269045      1.27661199960730      1.79381894148686
  H   -0.17463433955067      2.15832690163710      1.53256706115335
  H   0.37876660502317      1.18014717026099      2.88462063297578
  H   1.45969091893402      1.46654387129623      1.50446780350201
  C   0.41853477116179     -1.25187255422986      1.76451568162223
  H   1.41836162415572     -1.49909348707271      1.38547653011969
  H   0.47966670343504     -1.14038056591049      2.85216707918566
  H   -0.25101677845852     -2.09830550970612      1.57716814247844
