14
Coordinates from ORCA-job run
  C   -0.13988243658858      0.02168085390933     -0.35455136614811
  C   -0.14237176209333      0.02786516909646      1.11849118629334
  F   1.19293795865714     -0.03634289435955     -0.95464906098849
  H   -2.65934782565253     -0.20039474804445      1.30525279319845
  H   -1.68487250665862     -0.06986043659483      1.34373560173241
  H   0.34476086649297      0.91646553887971      1.54186139526209
  N   -0.81439590444373     -1.14648799437620     -0.92634046003533
  H   -1.74279555433917     -1.13753744735887     -0.49958442394861
  H   -0.34642337223409     -1.95314896473105     -0.51997913096927
  C   -0.77333822789092      1.27246213833352     -0.93220976715021
  H   -0.72838086591095      1.23496398904569     -2.02334763363891
  H   -1.81684226007848      1.33134277663295     -0.60638281154694
  H   -0.23984569951997      2.15647847195016     -0.57420431977711
  H   0.30800759026026     -0.88935645238286      1.52506799771668
