16
Coordinates from ORCA-job run
  C   -0.13911623218465      0.03861509304099     -0.41288436810557
  C   -0.11639500909232      0.02991749312982      1.09798805846215
  F   1.18608421344047      0.00100144222072     -0.90608403579938
  H   -2.59672313251403     -0.36067226888382      1.28977963291340
  H   -1.31959905594882     -0.06898363974387      1.35881892427118
  H   0.37369048596236     -0.86970202764629      1.47081777704299
  N   -0.77817924925046     -1.18289254955547     -0.86517351000919
  H   -1.70730522982268     -1.16628400996210     -0.42832465987270
  H   -0.28756443745370     -1.95897174475689     -0.42715580494340
  C   -0.83938113742126      1.21555953211836     -1.04765673916107
  H   -0.92627045956819      1.01458417461549     -2.11737976211673
  H   -1.83391829453089      1.31386644174719     -0.60532898819991
  H   -0.28116836001515      2.13107982030172     -0.87210926182488
  N   0.46651236825475      1.14337966249924      1.79602514967265
  O   1.14117866753198      0.90191428588006      2.81377988539765
  O   0.19592486261257      2.30100829499484      1.43302770227281
