16
Coordinates from ORCA-job run
  C   -0.32532072213404      0.02980794769546     -0.21171429708607
  C   -0.16436276867028     -0.03482492665915      1.20785617905765
  Cl  1.62108434164759      0.21450021209065     -1.12240980685081
  F   -2.71438115468678     -0.35679748558019      1.36800111675088
  H   -1.59705189291044     -0.20516344956381      1.41337900147283
  H   0.27953486306689     -0.98276500141045      1.53199358564439
  N   -0.83481585702560     -1.15393314148739     -0.85210438021978
  H   -1.78611954867180     -1.23432798503621     -0.49273794946231
  H   -0.31625655419742     -1.94552660138413     -0.48379411981948
  C   -0.98397838563626      1.26652269408603     -0.76920782002819
  H   -0.97706689752198      1.22787433175910     -1.85740899656878
  H   -2.01380702621424      1.27567946915739     -0.39739281911546
  H   -0.47128130023888      2.16880726390944     -0.43792148118222
  N   0.40740189448695      1.09846373991295      1.91444714114511
  H   -0.26570795920264      1.85370469797684      1.94614832711717
  H   1.21493896790891      1.43217823453347      1.39020631914506
