16
Coordinates from ORCA-job run
  C   -0.28402343919343     -0.00307855320906     -0.22553765337978
  C   -0.14063595322022     -0.06224642309762      1.20700516439067
  Cl  1.69245723866537      0.23683965105638     -1.11046732424165
  H   -2.60978087520334     -0.42514568885623      1.37462808441272
  H   -1.40242401549433     -0.22555203925851      1.42586532061300
  H   0.30418274832201     -1.00235123770205      1.55073876967470
  N   -0.81776945753260     -1.17945811246245     -0.80786270328668
  H   -1.80300215581188     -1.17843415119272     -0.48906748743881
  H   -0.38050945494324     -1.98007805731250     -0.36027812505965
  N   0.36661839946997      1.08037633076038      1.93771550900173
  H   -0.34850827877674      1.79805071912336      1.96412461430666
  H   1.16447705192402      1.45751371143486      1.43229678091598
  C   -0.99331401722026      1.20820820145897     -0.74108588271948
  H   -1.05525451279557      1.17663482311973     -1.82809900366320
  H   -2.00738206804035      1.16721678374311     -0.30516123492107
  H   -0.50338121014941      2.12946404239433     -0.43025482860513
