15
Coordinates from ORCA-job run
  C   -0.20773404457279      0.02661838007329     -0.32087998622839
  C   -0.08305430637273     -0.01013598690404      1.16657466342263
  Br  1.64515788974557      0.11946045598182     -1.23738403444016
  F   -2.60599582968989     -0.31543259354281      1.33461965039704
  H   -1.47912000400188     -0.13654553615171      1.41701914199041
  N   -0.84214405440918     -1.14674274598019     -0.89646747194956
  H   -1.73178475320919     -1.20001586028515     -0.39673729771947
  H   -0.30519412744052     -1.96234519795574     -0.61467022109137
  C   -0.94349961976498      1.27162416950544     -0.78009320941032
  H   -1.02207310391961      1.27824415881991     -1.86749595772932
  H   -1.93813595390934      1.23167990994195     -0.32972041569104
  H   -0.42977549286311      2.17421156735567     -0.44314877558940
  C   0.57359303718968     -1.17309619862318      1.68088054179431
  N   1.05908360764203     -2.16371887110470      2.10010263507974
  H   0.32552675557595      0.91140434886943      1.58830073716491
