17
Coordinates from ORCA-job run
  C   -0.22229397008196      0.03074879838446     -0.32984832128016
  C   -0.21268290677319      0.06351019258927      1.11199133635300
  Cl  1.73372551796799      0.00721485687594     -1.10081831568872
  H   -2.63961205250584     -0.42549028895700      1.20930958913709
  H   -1.50787218255569     -0.05342146956778      1.25217713587107
  N   -0.80828934239867     -1.14323501857739     -0.91262988363125
  H   -1.74544424794157     -1.17394571351099     -0.47185665229367
  H   -0.30960226445056     -1.95447766830107     -0.56244647145924
  C   -0.81453485325547      1.26206061171771     -0.95715266810355
  H   -0.74399133822046      1.20462518505185     -2.04302010005674
  H   -1.87393411165002      1.28829217339367     -0.65964371522427
  H   -0.31864021185008      2.16608176077273     -0.59981964904417
  C   0.32414163221453     -1.14317739337100      1.84772636005408
  H   1.30602695239653     -1.45355256056919      1.47139047583313
  H   0.42033706475907     -0.92688795865625      2.91623504077656
  H   -0.37170044162183     -1.98694148177828      1.75932419299889
  H   0.11787675596724      1.02017597450330      1.52517164575794
