17
Coordinates from ORCA-job run
  C   -0.11911008251921     -0.07592438573240     -0.34741027484557
  C   -0.15963315242263      0.03338066085367      1.18900160781231
  F   1.19444333516321     -0.28058113035439     -0.77390336272078
  H   -2.83531170831905     -0.24442271151920      0.97281858912510
  H   -1.29013518190721      0.01934275608446      1.40241763405149
  N   -0.90354269859007     -1.20296798416088     -0.75865834797796
  H   -1.83299880254850     -1.05325794037298     -0.31575413748673
  H   -0.50747559490604     -2.04119996028396     -0.34017277405872
  C   -0.66749289021541      1.18401847639155     -0.97257322667793
  H   -0.72586612551305      1.02612923204536     -2.05018172927260
  H   -1.67266724051008      1.35030853227034     -0.57304640687289
  H   -0.02014992910116      2.03653161261469     -0.76175024550094
  N   0.42282802875399      1.30380705579526      1.73648544390016
  O   1.51154639805145      1.67967925176193      1.30040223130243
  O   -0.23499640346876      1.89365476193624      2.59266100153375
  C   0.50924499410906     -1.07915032623434      1.83144195851041
  N   1.01423705394350     -2.00720790109540      2.34813203917844
