18
Coordinates from ORCA-job run
  C   -0.28217065823479      0.09290497300561     -0.28328194256591
  C   -0.19302800137684      0.13243440142679      1.13956832767669
  Cl  1.80067400084735      0.14510898625889     -0.99440427692641
  F   -2.62424772825290     -0.61839878074461      1.27914183393407
  H   -1.57993058121895     -0.12334555249705      1.27622377798224
  N   -0.71989526807800     -1.13131223649164     -0.89665646087056
  H   -1.65676186928192     -1.26910782035895     -0.51305117099841
  H   -0.14345767440231     -1.88152374667342     -0.53294716462887
  C   -0.86861481362580      1.29181431590328     -0.97424973390276
  H   -0.73460072697171      1.18870780111497     -2.05026920656506
  H   -1.94001504632783      1.30682994699833     -0.74051713836156
  H   -0.41803994992033      2.21123946375460     -0.61104234402967
  N   0.26985932417608      1.40172945029852      1.65496157025765
  H   1.26042209611355      1.47914330928061      1.41638314447781
  H   0.21521149515187      1.34428476016572      2.66514100266842
  N   0.39380579112979     -1.02115291314687      1.80610241429657
  H   1.22825169373467     -1.31710301895263      1.29917833010077
  H   -0.27336208346193     -1.78264333934214      1.82119903745500
