15
Coordinates from ORCA-job run
  C   -0.20741749458524      0.00068046927746     -0.35734944932147
  C   -0.17217453183721      0.00983810046538      1.14297240604715
  Br  1.70215949712187     -0.04172212597606     -1.15216054610793
  H   -2.70354114607560     -0.17142918868922      1.21146768690269
  H   -1.41347027999616     -0.03223382816610      1.34235680555019
  H   0.24149166948495      0.92778368929934      1.56871753145134
  N   -0.90082690443254     -1.14168979659482     -0.89705179762289
  H   -1.82839553709487     -1.08338989514105     -0.44886796959779
  H   -0.46307256557724     -1.98450579959850     -0.53388446606619
  C   -0.85990947344673      1.26581484162463     -0.86432502756449
  H   -0.91845871151938      1.24627406945682     -1.95291306206786
  H   -1.87076111799042      1.28199039644561     -0.43524866344929
  H   -0.31175678670678      2.15191293562017     -0.53848340874320
  C   0.41222691498134     -1.16036068517931      1.73993019292086
  N   0.85116646767401     -2.13520318284437      2.23561976766889
