15
Coordinates from ORCA-job run
  C   -0.17471058612851     -0.00356977640123     -0.36881173834936
  C   -0.16774563780779      0.00519732212402      1.13651070664853
  Cl  1.55907384238710     -0.04039148641200     -1.06606126005653
  H   -2.67804183055638     -0.15972237558956      1.21471120859618
  H   -1.43767297958605     -0.03824251107590      1.32630355070951
  H   0.23749626532409      0.92477925702239      1.56712619956065
  N   -0.86336681163281     -1.15226209011074     -0.91748700281179
  H   -1.78848344910068     -1.11354702821453     -0.47084314105423
  H   -0.41086197145732     -1.98987304382826     -0.56034711021861
  C   -0.83235187356477      1.25844868531560     -0.88318839005094
  H   -0.87515326323100      1.23403589126352     -1.97276366125272
  H   -1.84670746583050      1.28263631925334     -0.46842238726405
  H   -0.28356152928429      2.14376860240179     -0.55537146681642
  C   0.41094806329707     -1.16331531237511      1.73511448084789
  N   0.83083922717183     -2.14636245337334      2.23336001151189
