17
Coordinates from ORCA-job run
  C   -0.07161102246125      0.12268808223635     -0.35462746268098
  C   0.00017544866419      0.08317529207479      1.14971042291582
  F   1.21212679748360      0.01864511359118     -0.94136850322322
  H   -2.43605480166356     -0.15752936492538      1.36254710476969
  H   -1.31623258707176      0.06785806241880      1.38855210534277
  N   -0.63571331006925      1.37131018349018     -0.77234541468751
  H   -1.44199171475886      1.55292193588597     -0.18116573931344
  H   -0.96771023998085      1.24460405235498     -1.72269770827556
  C   0.63981614334822      1.21683497279380      1.74142796485267
  N   1.12986440788588      2.13640353593953      2.29891687400446
  C   0.46506848251102     -1.24408033827350      1.72295110425984
  H   1.34948988189243     -1.64553290435022      1.21288516994222
  H   0.70991246058137     -1.13295040203390      2.78244646566588
  H   -0.34957907585008     -1.97756421750016      1.65526716189482
  N   -0.81004749976947     -0.99456733562454     -0.91961721917569
  H   -1.68404328137429     -1.03272439966058     -0.38892029167634
  H   -0.30106008936731     -1.84927226841732     -0.71895203461548
