14
Coordinates from ORCA-job run
  C   -0.11836083635926      0.01303211434639     -0.38794399302782
  C   -0.09813032983108      0.03751281977596      1.12751536397436
  F   1.18954048950162     -0.08853186311208     -0.89807976597517
  H   -2.56846920536617     -0.01521586295438      1.14407385684846
  H   -1.43825376814230      0.04813424548620      1.29927676698117
  H   0.27440641356939     -0.89871404307758      1.55488047539115
  N   -0.84468013844702     -1.13398488317800     -0.88686784407487
  H   -1.76370250520034     -1.08252697449726     -0.43903133856603
  H   -0.38885983692784     -1.95276204847320     -0.49501596227794
  N   -0.69986812384860      1.20430898550284     -0.95851522237297
  H   -0.24930772284741      1.99986915019610     -0.51520052616873
  H   -1.66945086867835      1.21288782876912     -0.64209812836068
  C   0.52746177792521      1.18280146729045      1.70828826370573
  N   0.97929465465213      2.16268906392544      2.19080805392336
