14
Coordinates from ORCA-job run
  C   -0.21156438651531      0.01764383933061     -0.35118207251100
  C   -0.12472596802930      0.02936548912625      1.14823521479169
  Br  1.70337136498327     -0.10757840210083     -1.18059305548405
  H   -2.61591299279346     -0.02250797316023      1.16434836488915
  H   -1.40937682430296      0.02474021892098      1.33989926450286
  H   0.27952618246151     -0.89621571586216      1.56663908057495
  N   -0.93174391077388     -1.12676213464517     -0.83637447196288
  H   -1.85464956630641     -1.04018643762750     -0.38612225084744
  H   -0.49735113773466     -1.95523828652981     -0.44191709311017
  N   -0.81691947330771      1.19895489206714     -0.89344585110589
  H   -0.35985627064743      2.00904082311436     -0.48625892716792
  H   -1.77558499008503      1.18041375205101     -0.52939111470821
  C   0.47067685313064      1.19321551125809      1.73528676471307
  N   0.90781111992073      2.17594442405725      2.21991614742585
