14
Coordinates from ORCA-job run
  C   -0.18462999213079      0.01582834343867     -0.36227165748478
  C   -0.12044436998009      0.03091733499166      1.14537367407538
  Cl  1.53431893912980     -0.10847504596336     -1.09675176709000
  H   -2.60042721335249     -0.04910376219689      1.19457720654838
  H   -1.42923755640723      0.02790340484055      1.33777425759275
  H   0.27572489459745     -0.89773870221275      1.56533400282734
  N   -0.92090525670560     -1.12767976170530     -0.84833985332312
  H   -1.82664478161192     -1.06172624336860     -0.36758609866479
  H   -0.46421409147785     -1.95768400879603     -0.48313028524975
  N   -0.78913836476852      1.20420449944898     -0.90948802438697
  H   -0.32475966256204      2.00863672079942     -0.49869643445442
  H   -1.74456255445074      1.19672198995696     -0.54425933401365
  C   0.47948775223205      1.19035258309806      1.72963987464327
  N   0.91292225748797      2.17620264766864      2.21376443898035
