17
Coordinates from ORCA-job run
  C   -0.14978320429668      0.10044535771082     -0.31853327333960
  C   -0.00859901971524      0.07882169602831      1.17367039116184
  Cl  1.53099722130941     -0.03295934002858     -1.17810610024095
  H   -2.47499332682608     -0.02308792349876      1.39076291191997
  H   -1.28155639443825      0.10615112574955      1.43468594389693
  N   -0.91067238292347     -1.01599492653773     -0.84342113696745
  H   -1.77426595982389     -1.00482283298527     -0.28706277767068
  H   -0.42537057060495     -1.88402086916109     -0.64308595960558
  N   -0.73092702350693      1.34539275185295     -0.70963665134688
  H   -1.55317728051239      1.46672984633471     -0.11625096728396
  H   -1.04788294362317      1.24183416158072     -1.66817621774076
  C   0.64369723663961      1.23048627238096      1.72637785627150
  N   1.13407070137420      2.15537486220261      2.27117923801297
  C   0.47432680052038     -1.22920428729182      1.77150489978977
  H   1.39900634281665     -1.58936717451171      1.30556796952785
  H   0.65634368994100     -1.10497516660670      2.84192673782742
  H   -0.30372388633021     -1.99341355321896      1.66301713578762
