16
Coordinates from ORCA-job run
  C   -0.06395219699135     -0.11532766185774     -0.29064261402691
  C   -0.00061080255791     -0.09038730831461      1.17632896105524
  F   1.22614139155218     -0.00394013051552     -0.95770391135208
  H   -2.47249328608741      0.27693622100445      1.54169627783727
  H   -1.56295042351657      0.01812753238073      1.48051150539327
  H   0.50973701293872     -0.97772320755977      1.56427447852472
  N   -0.61005139535695     -1.36801722686005     -0.75850791213948
  H   -0.92424829392371     -1.21137225199631     -1.71111709198088
  H   -1.42577131771995     -1.55574295772433     -0.18613098184792
  N   -0.79402885346322      1.01383953925387     -0.88018647223188
  H   -0.24126910833844      1.84774755033811     -0.70940122489946
  H   -1.63999763417249      1.11247168975837     -0.31871694922162
  C   0.48545896402598      1.20849746856773      1.77446685013530
  H   -0.32575389655897      1.95899150896702      1.80832562903635
  H   0.79930802992197      1.05535066826672      2.81386016681135
  H   1.33700181024811      1.67658856629130      1.25083328890672
