13
Coordinates from ORCA-job run
  C   -0.06377363048163     -0.10431787354131     -0.29769899904888
  C   0.01920682274867     -0.02889017049961      1.17030204966508
  F   1.20502052085078     -0.08016615719392     -0.99774912669023
  H   -2.51987678532068     -0.05120947902956      1.40987603845844
  H   -1.56336197907288     -0.03955367454881      1.45277683017647
  H   0.56268879698245     -0.88385410154718      1.58892001221017
  N   -0.68682083173297     -1.34122374334036     -0.70598085903985
  H   -0.97151640162024     -1.21914419218183     -1.67303449084631
  H   -1.52910868835664     -1.43622860920404     -0.14514591034907
  N   -0.76564124874829      1.03592779325930     -0.90842458897677
  H   -0.23887336014532      1.86744274872036     -0.65559770388290
  H   -1.64701603676121      1.09486684222751     -0.39950789815001
  H   0.47113282165797      0.91808061687943      1.49403464647385
