14
Coordinates from ORCA-job run
  C   -0.23449068716773      0.00473616688026     -0.34800431121138
  C   -0.12472749456404     -0.01258330746632      1.15022383783426
  Br  1.67194145461087      0.12138257952191     -1.20228757694471
  H   -2.61387921239819      0.11858976614443      1.21520129089001
  H   -1.40268666534006      0.02175175279650      1.36491759125936
  H   0.30690574975571      0.90392718772691      1.56097423366959
  N   -0.85729617846578     -1.16715710076080     -0.88716869458778
  H   -1.82610444801746     -1.11634748480037     -0.55807438682565
  H   -0.43699081234054     -1.98423196504181     -0.45527811784517
  C   0.45617173686604     -1.18958365058786      1.72577763875638
  N   0.87163586054935     -2.18603856540951      2.20147254590472
  N   -0.95061821983513      1.15847235979016     -0.81827357833638
  H   -1.85290850295549      1.10091169127786     -0.32207444035019
  H   -0.47790258069755      1.98285056992862     -0.46164603221307
