17
Coordinates from ORCA-job run
  C   -0.09454864010938     -0.07752444033740     -0.34721297483376
  C   -0.00169501658286     -0.06486413304931      1.15667258772193
  F   1.18436203608588     -0.00107828229594     -0.94884282725982
  H   -2.42607006596737      0.25246078540214      1.40668624669211
  H   -1.31142914704637     -0.00751792989146      1.41556983955743
  N   -0.70083190626498     -1.30178308922288     -0.77772526594759
  H   -1.05047824999726     -1.14604516387404     -1.71734630155992
  H   -1.49819747637230     -1.47559918778735     -0.17243218777551
  N   -0.80663927631795      1.07010545944490     -0.88410618572288
  H   -0.26726368917712      1.90535574932699     -0.68107137100549
  H   -1.67026195296546      1.12829744487023     -0.33834922414080
  C   0.51929223496707      1.23622703604105      1.74202216701032
  H   -0.26925133371810      1.99932855840986      1.69726352328213
  H   0.77597515521893      1.10067335624194      2.79583569131285
  H   1.40958355911926      1.61326896893028      1.22373213013942
  C   0.60422784342184     -1.22986233071808      1.72277571420190
  N   1.05620592570616     -2.17580280149093      2.26825843832770
