16
Coordinates from ORCA-job run
  C   -0.08097050245504      0.12716592110141     -0.29063303051983
  C   0.00795502159717      0.09142778622928      1.17425535726484
  F   1.18830616819340     -0.05577298613229     -0.98259776400447
  H   -2.48125454338060     -0.10821662466887      1.57011720342332
  H   -1.55753586652350      0.08098148730534      1.50385675913068
  H   0.57225740924254      0.94755166024835      1.55733273304861
  N   -0.56211204117639      1.41146374559397     -0.74356266210243
  H   -1.35564384790701      1.64260092663477     -0.15591664471087
  H   -0.90200161476690      1.27777559660134     -1.69086219665931
  C   0.42807449293544     -1.23574555078972      1.75988035470303
  H   1.24024548668395     -1.75144504971430      1.21849150955524
  H   0.77086296375113     -1.10474144755743      2.79311568819546
  H   -0.42446660402093     -1.93816441303729      1.80804158953156
  N   -0.88565365829937     -0.95490095440850     -0.87127955717771
  H   -1.72727773653799     -1.00502454394070     -0.29710065223018
  H   -0.38069512733590     -1.82075555346536     -0.71177868744793
