17
Coordinates from ORCA-job run
  C   -0.17365105333583     -0.01915673027402     -0.37689878605390
  C   -0.07515211340085     -0.01621098254097      1.13530749932414
  Cl  1.54615004913929      0.03261383476670     -1.13362276680717
  H   -2.52358449762778      0.35201395481924      1.28460083891994
  H   -1.34549591805015      0.05684250186146      1.34949120343690
  N   -0.82234023375213     -1.19369117723001     -0.89764545330606
  H   -1.80183310563404     -1.09673855425185     -0.62871968562520
  H   -0.45595310944683     -2.00562360674481     -0.41034667862161
  N   -0.87660075460962      1.13515133083442     -0.88093757051914
  H   -0.32744231418418      1.95986792928765     -0.66888145192132
  H   -1.72836701940302      1.18404652622457     -0.30494349504797
  C   0.49201487137114      1.23719746434284      1.77486820238170
  H   -0.22425848422728      2.05826851447487      1.65744479074956
  H   0.63077838187630      1.08400023070215      2.84840207193615
  H   1.45366021831272      1.53290621839133      1.34093137045965
  C   0.45352216938113     -1.23212150654509      1.67598474195653
  N   0.83719291359117     -2.25371594811848      2.12844516873780
