14
Coordinates from ORCA-job run
  C   -0.17722445072926     -0.00218365614192     -0.37355618019840
  C   -0.09803900408167     -0.00197255891685      1.13346520630241
  Cl  1.53792883033499      0.00763627019112     -1.12691994190225
  H   -2.57142403935073      0.17398821490415      1.19408477023885
  H   -1.40517870367953      0.08172868559333      1.33662673709721
  H   0.36392407322560      0.90289937252079      1.53816787710229
  N   -0.85917332607525     -1.15866473158124     -0.89746151985992
  H   -1.80225009546743     -1.09744580386030     -0.50451104638983
  H   -0.42775668836331     -1.98461927989250     -0.49352181606421
  N   -0.84789759176299      1.17739920674190     -0.86850234191622
  H   -0.35156481997244      1.98300013414076     -0.50007179679756
  H   -1.75989807735729      1.16037324173250     -0.39667044817603
  C   0.42968566544354     -1.19173827928185      1.72615913418604
  N   0.79704822783578     -2.20052081614991      2.21763136637763
