13

C	-0.366366	-0.268261	-1.44794
C	0.0	0.0	0.0
Br	-0.270008	1.515663	-2.505666
H	1.086954	0.0	0.0
H	-1.410832	-0.519484	-1.625849
H	-0.369183	-0.842369	0.59098
N	0.531679	-1.237181	-1.898457
H	1.492599	-1.007604	-1.61556
H	0.462621	-1.430116	-2.886862
N	-0.661965	1.198293	0.550682
O	0.022835	2.128731	0.961003
O	-1.897067	1.168008	0.579809
H	2.868766	0.0	0.0
