13

C	-0.468752	0.012195	-1.43478
C	0.0	0.0	0.0
Br	-0.109622	-1.771365	-2.185798
H	1.090905	0.0	0.0
H	0.180845	0.670698	-2.018333
H	-0.376511	-0.845323	0.571636
N	-1.889525	0.268566	-1.575225
H	-2.040006	1.197897	-1.193796
H	-2.119079	0.304913	-2.562991
N	-0.379865	1.211157	0.692463
O	-0.430423	1.181485	1.929108
O	-0.496999	2.258895	0.023916
H	2.587936	0.0	0.0
