13

C	-0.500666	0.021747	-1.3938
C	0.0	0.0	0.0
Br	-2.675472	0.446248	-1.293951
H	1.092305	0.0	0.0
H	-0.597421	-0.956862	-1.846019
H	-0.313952	0.869111	0.575977
N	0.13755	0.939893	-2.189755
H	0.375097	1.807974	-1.737754
H	-0.256555	1.064878	-3.106583
N	-0.438693	-1.179588	0.729963
O	-0.591008	-1.065348	1.950728
O	-0.527211	-2.249816	0.117678
H	2.582632	0.0	0.0
