13

C	-0.298384	-0.263745	-1.461943
C	0.0	0.0	0.0
Br	-1.115347	1.727443	-2.219364
H	1.088967	0.0	0.0
H	-1.212689	-0.786811	-1.722308
H	-0.406799	0.916084	0.409326
N	0.813228	-0.655821	-2.100965
H	0.782633	-0.875225	-3.081486
H	1.714622	-0.39601	-1.668248
N	-0.440929	-1.115342	0.842241
O	-0.612261	-0.878154	2.041103
O	-0.537339	-2.237736	0.332015
H	2.731293	0.0	0.0
