13

C	-0.535102	0.060478	-1.414594
C	0.0	0.0	0.0
Br	-0.313479	-1.766145	-2.280482
H	1.086182	0.0	0.0
H	0.160065	0.661275	-2.00199
H	-0.354273	0.904647	0.504137
N	-1.85946	0.551714	-1.512365
H	-2.466871	0.02217	-0.899009
H	-2.202145	0.505131	-2.462782
N	-0.604624	-1.124265	0.756825
O	-1.835297	-1.086149	0.915998
O	0.114148	-2.016837	1.186972
H	2.861963	0.0	0.0
