14

C	-0.552297	-0.011886	-1.434133
C	0.0	0.0	0.0
Br	0.134605	-1.630723	-2.312128
H	1.092781	0.0	0.0
H	-0.327162	-0.917254	0.500128
C	-2.078032	-0.057848	-1.476868
H	-2.429832	-0.934734	-0.928961
H	-2.4819	0.844228	-1.009899
H	-2.432253	-0.116901	-2.507004
C	-0.077118	1.139404	-2.200662
N	0.212051	2.090524	-2.828025
C	-0.520702	1.152368	0.728395
N	-0.988911	2.072203	1.289339
Br	3.460714	0.0	0.0
