14

C	-0.410263	0.069834	-1.473172
C	0.0	0.0	0.0
Br	-2.348467	0.485194	-1.61009
H	1.095834	0.0	0.0
H	-0.314567	0.927625	0.48793
C	0.386999	1.161164	-2.175521
H	0.180129	2.123329	-1.702036
H	0.125431	1.216891	-3.232562
H	1.450451	0.931912	-2.053236
C	-0.232825	-1.216199	-2.143928
N	-0.078746	-2.249155	-2.684673
C	-0.560242	-1.135554	0.714942
N	-1.03146	-2.040776	1.295469
Br	3.462639	0.0	0.0
