14

C	-0.561931	0.003652	-1.429004
C	0.0	0.0	0.0
Br	0.135549	-1.549278	-2.409323
H	1.092727	0.0	0.0
H	-0.316281	0.931424	0.486061
C	-2.087753	-0.054088	-1.465695
H	-2.433307	-0.972182	-0.988809
H	-2.49247	0.80622	-0.923365
H	-2.44797	-0.027154	-2.494945
C	-0.111832	1.205911	-2.12957
N	0.14121	2.205317	-2.694066
C	-0.521446	-1.123351	0.768528
N	-0.981505	-2.011919	1.383387
Br	3.456233	0.0	0.0
