14

C	-0.431444	-0.044435	-1.477146
C	0.0	0.0	0.0
Br	0.066565	1.680376	-2.284549
H	1.093709	0.0	0.0
H	-0.364777	0.906913	0.48684
C	0.301895	-1.16124	-2.211227
H	0.004233	-2.124111	-1.785511
H	1.375532	-1.023389	-2.060361
H	0.061192	-1.149416	-3.274978
C	-1.882368	-0.160058	-1.620406
N	-3.048342	-0.272722	-1.723083
C	-0.496516	-1.176542	0.706149
N	-0.89398	-2.13148	1.26278
Br	3.479255	0.0	0.0
