14

C	-0.431674	-0.038278	-1.477156
C	0.0	0.0	0.0
Br	0.061671	1.691475	-2.276222
H	1.093689	0.0	0.0
H	-0.364149	0.904869	0.491305
C	0.303729	-1.149479	-2.218262
H	0.062346	-1.133867	-3.28193
H	1.377335	-1.009206	-2.068558
H	0.008871	-2.115044	-1.796631
C	-1.881971	-0.157768	-1.621033
N	-3.046941	-0.278987	-1.726668
C	-0.496433	-1.179644	0.701393
N	-0.897893	-2.138767	1.248083
Br	3.477438	0.0	0.0
