17

C	0.0	0.0	0.0
C	-0.575821	-0.229879	-1.409525
Br	1.964588	0.0	0.0
H	-1.667258	-0.298582	-1.228029
C	-0.369458	1.335605	0.474573
N	-0.58713	2.4234	0.863701
C	-0.47139	-1.072768	0.9757
H	-0.07403	-0.87959	1.973592
H	-0.125127	-2.051403	0.635831
H	-1.56538	-1.042644	0.993397
C	-0.109885	-1.509412	-1.938754
N	0.264933	-2.52313	-2.400334
C	-0.309825	0.902163	-2.400111
H	-0.774236	1.81904	-2.033582
H	-0.759726	0.654924	-3.363411
H	0.76087	1.065466	-2.541543
Br	-3.800672	0.0	0.0
