17

C	0.0	0.0	0.0
C	-0.562516	-0.20983	-1.418161
Br	1.964686	0.0	0.0
H	-1.653693	-0.294768	-1.24661
C	-0.372505	1.326983	0.493725
N	-0.592942	2.409478	0.896317
C	-0.472966	-1.09225	0.950795
H	-0.105213	-0.901502	1.960651
H	-1.567641	-1.083869	0.944628
H	-0.097498	-2.059521	0.609806
C	-0.075071	-1.472249	-1.967781
N	0.300182	-2.479606	-2.443157
C	-0.300402	0.945523	-2.384223
H	0.769427	1.130927	-2.502857
H	-0.787997	1.84675	-2.009128
H	-0.72808	0.708183	-3.359929
Br	-3.750778	0.0	0.0
