17

C	-0.27887	0.036881	-1.51109
C	0.0	0.0	0.0
Cl	-2.039304	0.403575	-1.852264
H	1.091475	0.0	0.0
C	0.604215	1.134375	-2.09938
H	0.568141	1.123337	-3.189607
H	0.263414	2.105854	-1.738196
H	1.612799	0.931565	-1.714811
C	0.010686	-1.214519	-2.2131
N	0.231041	-2.140416	-2.902997
N	-0.601174	-1.233086	0.594177
O	-1.551835	-1.11779	1.3673
O	-0.106808	-2.307288	0.25057
N	-0.404695	1.152451	0.723393
H	0.36288	1.806645	0.757435
H	-1.262965	1.578608	0.40372
F	2.577077	0.0	0.0
