17

C	-0.566581	0.004101	-1.434096
C	0.0	0.0	0.0
Cl	-0.04255	-1.430266	-2.38605
H	1.090347	0.0	0.0
C	-2.089304	0.076567	-1.483779
H	-2.430326	0.140059	-2.518542
H	-2.519869	-0.813212	-1.021735
H	-2.418382	0.965177	-0.942446
C	-0.008444	1.181096	-2.107817
N	0.352014	2.11873	-2.716564
N	-0.521381	-1.21789	0.712147
O	0.031455	-2.292547	0.499747
O	-1.49522	-1.082097	1.469723
N	-0.427387	1.211562	0.642661
H	-1.243825	1.052541	1.219357
H	0.343616	1.529129	1.217096
F	2.532355	0.0	0.0
