17

C	-0.519272	0.000953	-1.448957
C	0.0	0.0	0.0
Cl	0.022285	-1.473874	-2.326193
H	1.090397	0.0	0.0
C	-2.034727	0.104714	-1.583206
H	-2.371752	1.011639	-1.078442
H	-2.312773	0.15858	-2.637148
H	-2.510015	-0.764169	-1.128231
C	0.091263	1.154669	-2.117888
N	0.471371	2.085402	-2.725254
N	-0.508235	-1.243365	0.687927
O	0.205066	-2.240487	0.699763
O	-1.631245	-1.189539	1.216768
N	-0.474177	1.186124	0.649739
H	0.235155	1.479792	1.309084
H	-1.35094	1.021698	1.128242
F	2.540144	0.0	0.0
