17

C	-0.388315	-0.090236	-1.492924
C	0.0	0.0	0.0
Cl	0.087154	1.477255	-2.243037
H	1.090431	0.0	0.0
C	0.397171	-1.182405	-2.212885
H	0.312543	-1.054072	-3.293829
H	1.431943	-1.06891	-1.87535
H	0.031332	-2.169801	-1.934298
C	-1.839119	-0.210155	-1.663804
N	-3.003807	-0.341365	-1.760076
N	-0.452388	-1.293833	0.665047
O	0.138455	-2.334008	0.382128
O	-1.385758	-1.235625	1.474091
N	-0.552766	1.132387	0.653029
H	0.095593	1.433704	1.366947
H	-1.445571	0.914859	1.077036
F	2.569612	0.0	0.0
