17

C	-0.584314	-0.174428	-1.410897
C	0.0	0.0	0.0
Cl	0.255124	-1.454577	-2.365755
H	1.109097	0.0	0.0
C	-2.08362	-0.460938	-1.420816
H	-2.598272	0.327436	-0.864642
H	-2.46263	-0.475689	-2.444088
H	-2.271716	-1.430728	-0.959606
C	-0.338423	1.075224	-2.139888
N	-0.206229	2.038114	-2.799938
N	-0.428303	-1.113439	0.889614
O	-0.435415	-2.259568	0.437526
O	-0.707671	-0.844372	2.064653
N	-0.405324	1.277586	0.523635
H	-1.142877	1.173582	1.20876
H	0.400939	1.674194	0.9941
F	2.500064	0.0	0.0
