17

C	-0.278175	0.003335	-1.502111
C	0.0	0.0	0.0
Cl	-2.059756	0.236817	-1.847051
H	1.107643	0.0	0.0
C	0.511271	1.169093	-2.098563
H	0.463499	1.150641	-3.188035
H	0.109082	2.115219	-1.73507
H	1.537944	1.038055	-1.737266
C	0.133489	-1.201936	-2.225263
N	0.490561	-2.04962	-2.957183
N	-0.552016	-1.222403	0.670335
O	-0.890752	-1.148326	1.846896
O	-0.582752	-2.261923	0.007211
N	-0.404777	1.175177	0.684946
H	-1.224435	1.62631	0.303551
H	0.376041	1.80768	0.770709
F	2.549483	0.0	0.0
