17

C	-0.456089	-0.078764	-1.473754
C	0.0	0.0	0.0
Cl	0.442536	-1.316392	-2.43351
H	1.108265	0.0	0.0
C	-1.955346	-0.314628	-1.679092
H	-2.213382	-0.21684	-2.734772
H	-2.532028	0.421706	-1.109859
H	-2.206279	-1.315982	-1.333345
C	-0.106659	1.210246	-2.084908
N	0.092269	2.237888	-2.620726
N	-0.531656	-1.151237	0.78336
O	-0.674577	-2.229891	0.193213
O	-0.7432	-1.007464	1.985158
N	-0.353338	1.23706	0.630102
H	0.46383	1.829861	0.627792
H	-1.142116	1.720298	0.22358
F	2.498562	0.0	0.0
