14

C	-0.482981	0.003496	-1.46073
C	0.0	0.0	0.0
Cl	0.273595	1.335708	-2.329897
H	1.095829	0.0	0.0
N	-0.060952	-1.309162	-2.166886
O	-0.524904	-1.457648	-3.290037
O	0.68816	-2.056044	-1.558443
C	-1.934221	0.089748	-1.574028
N	-3.10519	0.172139	-1.633395
C	-0.534381	-1.149783	0.725712
N	-0.96511	-2.064994	1.32375
C	-0.453285	1.236232	0.638561
N	-0.815183	2.226031	1.157682
Cl	3.103952	0.0	0.0
