14

C	-0.481523	-0.000938	-1.460154
C	0.0	0.0	0.0
Cl	0.275847	1.328648	-2.335308
H	1.09577	0.0	0.0
N	-0.063924	-1.314605	-2.163
O	0.689981	-2.056489	-1.556044
O	-0.534188	-1.469866	-3.282245
C	-1.934633	0.088489	-1.573533
N	-3.10593	0.17973	-1.624809
C	-0.534354	-1.148118	0.728334
N	-0.962551	-2.064218	1.326534
C	-0.452049	1.237627	0.636571
N	-0.812326	2.230727	1.150473
Cl	3.10484	0.0	0.0
