14

C	-0.477706	-0.054491	-1.463644
C	0.0	0.0	0.0
Cl	-2.249444	-0.139709	-1.576867
H	1.096942	0.0	0.0
N	-7.2e-05	1.241014	-2.173345
O	-0.716206	2.221645	-2.060085
O	1.078599	1.160566	-2.736656
C	0.095814	-1.19299	-2.168457
N	0.466603	-2.140471	-2.756082
C	-0.445494	-1.207675	0.68957
N	-0.798961	-2.182997	1.241144
C	-0.493776	1.189571	0.685664
N	-0.8931	2.145735	1.239683
Cl	3.072899	0.0	0.0
