14

C	-0.482884	-0.047663	-1.464171
C	0.0	0.0	0.0
Cl	-2.246518	-0.121362	-1.572596
H	1.096977	0.0	0.0
N	0.00808	1.248987	-2.156807
O	1.079816	1.158788	-2.734032
O	-0.696672	2.238365	-2.024263
C	0.085647	-1.186879	-2.173931
N	0.461705	-2.134412	-2.759864
C	-0.445664	-1.208778	0.687147
N	-0.799302	-2.182282	1.241715
C	-0.493893	1.188341	0.688261
N	-0.892989	2.143179	1.244815
Cl	3.076788	0.0	0.0
