14

C	-0.381069	-0.000295	-1.481585
C	0.0	0.0	0.0
Cl	0.198605	-1.47673	-2.252397
H	1.098587	0.0	0.0
N	-1.921421	0.039793	-1.688858
O	-2.619424	-0.152593	-0.703926
O	-2.297629	0.2426	-2.834244
C	0.148015	1.173903	-2.166553
N	0.553728	2.119574	-2.735794
C	-0.456402	-1.196253	0.699545
N	-0.780279	-2.154244	1.296669
C	-0.474735	1.218742	0.646812
N	-0.828815	2.212622	1.163828
Cl	3.082397	0.0	0.0
