14

C	-0.37696	-0.009677	-1.482472
C	0.0	0.0	0.0
Cl	0.202348	-1.488203	-2.247991
H	1.098444	0.0	0.0
N	-1.915737	0.030007	-1.694106
O	-2.290097	0.221079	-2.842071
O	-2.616758	-0.152999	-0.709292
C	0.153548	1.163035	-2.170152
N	0.539852	2.112567	-2.745453
C	-0.45684	-1.193439	0.70287
N	-0.776475	-2.163314	1.283056
C	-0.474497	1.222314	0.638639
N	-0.835962	2.219861	1.142911
Cl	3.076174	0.0	0.0
