19

C	-0.649953	-0.027818	-1.376345
C	0.0	0.0	0.0
Br	0.175061	1.300793	-2.564654
H	1.098682	0.0	0.0
N	-0.336544	-1.382109	-2.008986
O	0.834415	-1.723167	-2.053453
O	-1.288598	-2.047899	-2.420504
C	-2.146337	0.188413	-1.380619
H	-2.602575	-0.546839	-0.715212
H	-2.564336	0.068352	-2.378803
H	-2.359547	1.195196	-1.022657
N	-0.406182	-1.25585	0.662642
H	-0.981018	-1.068477	1.475206
H	0.45544	-1.686963	0.979191
C	-0.403741	1.226888	0.803639
H	-0.237769	2.15008	0.242298
H	0.246673	1.260994	1.68165
H	-1.450081	1.202293	1.139606
F	2.625554	0.0	0.0
