19

C	-0.292459	-0.010309	-1.495577
C	0.0	0.0	0.0
Br	-2.20416	-0.388701	-1.906009
H	1.102704	0.0	0.0
N	-0.027001	1.375062	-2.07754
O	-0.823975	2.276338	-1.827275
O	1.004709	1.517451	-2.72995
C	0.589072	-1.028451	-2.17809
H	1.60445	-0.827551	-1.815807
H	0.274651	-2.011954	-1.83314
H	0.521052	-0.964245	-3.26488
N	-0.368697	-1.319786	0.521841
H	0.383017	-1.608256	1.134517
H	-1.226624	-1.266521	1.057863
C	-0.569633	1.148035	0.809944
H	-0.278476	0.989266	1.85296
H	-0.171214	2.114522	0.501749
H	-1.664194	1.191291	0.751466
F	2.658539	0.0	0.0
