17
Coordinates from ORCA-job run
  C   -0.32276924946825     -0.64653936538518     -0.47444768371626
  C   0.92793102442054     -0.18615769589213      0.29559120663337
  Cl  -0.16790710845036     -2.37567707367730     -0.85107421968465
  H   1.79180748751565     -0.52262920807863     -0.28545781044100
  N   -0.26779958100374      0.09707993654462     -1.81191648930179
  O   0.76959251439849     -0.01710322529757     -2.45317935358201
  O   -1.24036874347487      0.77621444678923     -2.12253144052355
  C   -1.63576354348093     -0.39200237732478      0.22281186167016
  H   -1.77423208235571      0.67128610828314      0.41645668464443
  H   -2.46156466739928     -0.73682943275911     -0.39742771573527
  H   -1.64648954220189     -0.94090217586756      1.16522738932418
  C   0.95837001804863     -0.85291828267341      1.59662059270838
  N   0.97400212876893     -1.34836431933374      2.66118811771135
  C   0.99884858642978      1.33520685494175      0.47349464142531
  H   1.00766322686344      1.83837547800994     -0.49452246482675
  H   1.92387071818297      1.59162369179848      0.99194533378488
  H   0.16480881320659      1.71033663992222      1.06722134990921
