17
Coordinates from ORCA-job run
  C   -0.40198996514153     -0.11023342740935     -0.59569442357948
  C   0.47907108953404      0.51469205222913      0.50039100104937
  Cl  0.51864140379918     -0.34288623420593     -2.07933704735635
  H   -0.18857379915302      0.70216357767731      1.34759020669369
  N   -1.54119046890130      0.89410223561363     -0.85351781008014
  O   -1.72306820031201      1.33802271463383     -1.97499037024631
  O   -2.20509611378193      1.14498318905826      0.14937915616270
  C   -1.05918876555010     -1.41172134226225     -0.17584397733663
  H   -1.76988623300512     -1.72426217518212     -0.94302785907953
  H   -1.58813079154381     -1.27538153306351      0.76829436503794
  H   -0.30801903586101     -2.19348667875326     -0.07129936312579
  C   0.98686524860059      1.81363077463883      0.05191740827448
  N   1.41955148771204      2.84986462474957     -0.29126890987063
  C   1.62997966261608     -0.38797384064490      0.95059383801193
  H   2.28676286114405     -0.63145121402922      0.11543996198117
  H   1.24724173762173     -1.31026551179459      1.38923672363853
  H   2.21702988222210      0.12920278874455      1.71113709982506
