17
Coordinates from ORCA-job run
  C   -0.36895089399331     -0.52076786202727     -0.48027355356602
  C   0.63960342234343     -0.17062053835248      0.63797955027377
  Cl  0.31500456482577     -1.83132680655555     -1.45166490636759
  H   0.91907572210913     -1.13182676708747      1.08396648074007
  N   -0.50555078086363      0.73284652818424     -1.34989745576551
  O   -1.11726287263158      1.64593730037656     -0.80173001664509
  O   0.02397331720406      0.77184804545861     -2.45023205959310
  C   -1.74153583336894     -0.91847352571838      0.01975560014057
  H   -2.19250766870482     -0.10063181278358      0.57935380578438
  H   -2.38198089662688     -1.17822240647950     -0.82477225548212
  H   -1.64766597254190     -1.79282904335170      0.66623357641935
  C   0.00971620713982      0.62333239357504      1.69507400397225
  N   -0.49738832643557      1.23714124474229      2.55845670184561
  C   1.90083069450310      0.52848287077072      0.11958394655814
  H   2.62946848664288      0.61125669535076      0.92715521916748
  H   2.34568389348043     -0.04023092065250     -0.69715401451987
  H   1.66848693691800      1.53508460455020     -0.23183462296232
