13

C	-0.098273	0.040298	-1.525792
C	0.0	0.0	0.0
Br	-1.936806	0.425624	-2.199634
H	1.09945	0.0	0.0
H	0.073516	-0.97768	-1.893114
N	0.824349	1.034179	-1.97965
H	1.693084	0.861195	-1.444952
H	1.002536	0.921086	-2.969414
C	-0.561427	-1.203972	0.574994
N	-0.99643	-2.197993	1.027071
C	-0.484221	1.205505	0.646583
N	-0.857238	2.170585	1.203506
F	2.534957	0.0	0.0
