13

C	-0.372337	-0.037172	-1.480471
C	0.0	0.0	0.0
Br	0.248351	-1.708584	-2.289642
H	1.095884	0.0	0.0
H	0.243526	0.725035	-1.971802
N	-1.796671	0.060872	-1.702572
H	-1.990046	0.158761	-2.692608
H	-2.144337	0.884405	-1.220796
C	-0.545334	-1.105711	0.764731
N	-0.946289	-2.000964	1.412886
C	-0.443713	1.273033	0.543512
N	-0.813184	2.322747	0.926996
F	2.459157	0.0	0.0
