13

C	-0.176898	-0.017867	-1.55694
C	0.0	0.0	0.0
Br	-0.287554	1.858222	-2.211762
H	1.095764	0.0	0.0
H	-1.134106	-0.4464	-1.860232
N	0.918348	-0.68609	-2.168499
H	0.728256	-1.676336	-2.241821
H	1.754645	-0.516716	-1.588851
C	-0.426474	-1.304263	0.483349
N	-0.7179	-2.395685	0.812328
C	-0.61767	1.067539	0.756468
N	-1.108533	1.910997	1.412781
F	2.54139	0.0	0.0
