13

C	-0.055236	-0.032153	-1.537835
C	0.0	0.0	0.0
Br	-1.888591	0.128681	-2.247283
H	1.09881	0.0	0.0
H	0.284812	-1.023001	-1.842807
N	0.804175	0.959256	-2.130935
H	1.69261	0.826593	-1.625825
H	0.45405	1.881161	-1.890947
C	-0.561559	-1.16758	0.641971
N	-0.985499	-2.140336	1.148819
C	-0.494148	1.245805	0.54836
N	-0.864217	2.277162	0.975167
F	2.514454	0.0	0.0
