15

C	-0.569709	-0.008842	-1.401495
C	0.0	0.0	0.0
Br	0.093212	-1.600442	-2.334981
H	1.095038	0.0	0.0
C	-2.023639	-0.021906	-1.444793
N	-3.198448	-0.094394	-1.443875
N	-0.06348	1.18334	-2.240358
O	-0.806949	1.548827	-3.141462
O	1.051956	1.595319	-1.981664
C	-0.384936	-1.173867	0.746405
N	-0.64502	-2.158356	1.336343
N	-0.393266	1.197223	0.704569
O	-0.875828	2.137979	0.040357
O	-0.084338	1.250589	1.904045
H	2.300724	0.0	0.0
