15

C	-0.509248	0.014638	-1.478447
C	0.0	0.0	0.0
Br	-0.053225	-1.700131	-2.36136
H	1.114812	0.0	0.0
C	-2.055121	0.110416	-1.504366
N	-2.734512	-0.827185	-1.084947
N	0.180538	1.058049	-2.290341
O	1.488896	0.893839	-2.2727
O	-0.321825	1.119052	-3.496815
C	-0.367055	-1.279074	0.796775
N	0.344523	-1.61435	1.73739
N	-0.439874	1.199811	0.747478
O	0.054669	2.292153	0.162243
O	-0.08062	1.116148	2.019974
H	2.487113	0.0	0.0
