15

C	-0.489638	-0.0045	-1.443841
C	0.0	0.0	0.0
Br	-2.41356	0.162575	-1.576721
H	1.094173	0.0	0.0
C	0.141544	0.997942	-2.290383
N	0.659394	1.724038	-3.05807
N	-0.044529	-1.365859	-2.096823
O	1.084611	-1.707875	-1.778249
O	-0.846622	-1.970179	-2.788427
C	-0.499302	-1.153494	0.716204
N	-0.87915	-2.10665	1.292978
N	-0.534797	1.247838	0.652089
O	-0.25539	2.316744	0.054986
O	-0.694257	1.205564	1.901177
H	2.427867	0.0	0.0
