15

C	-0.536428	-0.001164	-1.41287
C	0.0	0.0	0.0
Br	0.20521	-1.557932	-2.351548
H	1.093053	0.0	0.0
C	-1.986011	-0.0602	-1.508353
N	-3.15732	-0.162179	-1.560132
N	-0.039742	1.222398	-2.209235
O	1.015398	1.713451	-1.851463
O	-0.719752	1.531683	-3.178845
C	-0.389347	-1.18559	0.725823
N	-0.659381	-2.173383	1.30607
N	-0.424289	1.183812	0.71601
O	-0.091722	1.245505	1.907676
O	-0.979267	2.097509	0.073654
H	2.311203	0.0	0.0
