16

C	-0.312314	-0.037846	-1.69127
C	0.215352	0.060455	-0.265904
Cl	0.863795	-0.71232	-2.845316
H	1.116379	0.687704	-0.324787
H	-0.608327	0.947929	-2.038552
N	-1.568346	-0.864429	-1.751879
O	-1.472115	-2.084898	-1.659992
O	-2.62459	-0.238089	-1.835882
C	0.633625	-1.245295	0.39791
H	1.378412	-1.80575	-0.175162
H	-0.230686	-1.89318	0.573245
H	1.050592	-0.901169	1.348177
N	-0.737287	0.838153	0.510984
H	-1.436022	0.199156	0.884
H	-0.107187	1.11177	1.325792
F	1.200185	1.070748	2.174884
