16

C	-0.655127	0.002073	-1.539977
C	0.11771	-0.042747	-0.229435
Cl	-2.414281	0.013948	-1.324048
H	1.173563	-0.082983	-0.514411
H	-0.412445	-0.842258	-2.185083
N	-0.220788	1.222136	-2.320743
O	-0.942907	2.202542	-2.404313
O	0.902373	1.110035	-2.808713
C	-0.173267	-1.308003	0.574156
H	-1.212271	-1.32058	0.91836
H	0.509255	-1.212164	1.426994
H	0.023792	-2.227484	0.007226
N	-0.042957	1.190802	0.512406
H	-0.953151	1.16506	0.965791
H	0.680325	1.042265	1.272653
F	1.735867	0.204282	2.115638
