16

C	-0.587198	0.110367	-1.61124
C	0.094783	-0.033783	-0.256954
Cl	-0.336669	-1.283591	-2.690259
H	1.157294	-0.179901	-0.474229
H	-0.219542	1.002225	-2.11068
N	-2.067076	0.33413	-1.455793
O	-2.455472	1.494562	-1.588405
O	-2.776825	-0.622425	-1.15835
C	-0.342682	-1.211895	0.604321
H	0.342409	-1.146607	1.453884
H	-0.248617	-2.178372	0.10003
H	-1.377695	-1.093174	0.939269
N	0.019546	1.250967	0.420934
H	-0.856722	1.284302	0.937264
H	0.792915	1.107898	1.139693
F	1.870935	0.283696	1.908603
