16

C	-0.118992	-0.107499	-1.395226
C	0.072429	-0.210069	0.140839
Cl	0.461495	-1.572879	-2.21959
H	1.087003	-0.613058	0.226816
H	0.511973	0.776522	-1.694001
N	-1.560768	0.110553	-1.697294
O	-1.99022	1.218673	-1.362641
O	-2.260534	-0.783193	-2.171733
C	-0.920328	-1.16252	0.78833
H	-1.934612	-0.753306	0.730534
H	-0.667684	-1.276996	1.844448
H	-0.920988	-2.143268	0.306753
N	0.083692	1.085464	0.78905
H	-0.829593	1.508934	0.6551
H	0.744736	1.633978	0.202565
F	1.61647	1.861988	-1.249637
