16

C	-0.505936	-0.069453	-1.422184
C	0.047418	-0.157187	0.000802
Cl	0.359149	1.080307	-2.436235
H	1.131725	-0.296364	-0.080319
H	-1.561883	0.204417	-1.417262
N	-0.483354	-1.421497	-2.084746
O	-1.577492	-1.960658	-2.268479
O	0.605449	-1.92806	-2.329893
C	-0.612659	-1.331129	0.727384
H	-0.372971	-2.3066	0.291963
H	-0.25628	-1.307829	1.757658
H	-1.70198	-1.213925	0.748431
N	-0.127145	1.08589	0.719218
H	-0.907364	1.615049	0.343041
H	0.814168	1.585431	0.544502
F	2.23189	1.738484	0.137548
