15
Coordinates from ORCA-job run
  C   -1.05106662877405      0.19475457862362      0.20188670626059
  C   0.37464151157735     -0.31585007434471      0.21675781508286
  F   -1.12268860322335      1.54118322351441      0.15361264726217
  H   0.35420851444149     -1.39584427528091      0.36424223218830
  H   -1.57234655148420     -0.15858230923225      1.09675422193930
  N   -1.83282576041621     -0.39347187888528     -0.95481571231402
  O   -1.68254930955265     -1.60308171036957     -1.09636673222952
  O   -2.56501016984645      0.34436239048376     -1.58915969007404
  C   1.20830777888664      0.37589914281757      1.28267442641940
  H   2.20918075424279     -0.05271981900455      1.30112949116173
  H   1.27622204166131      1.44460861774141      1.07727565818427
  H   0.75020917175296      0.23782430661139      2.26417795348919
  N   1.04381958863921     -0.12250333827525     -1.11746067145043
  O   2.14482720104069     -0.64838015464329     -1.23585312178679
  O   0.46507046105447      0.55180130024366     -1.96485522413301
