15
Coordinates from ORCA-job run
  C   -0.92613030747373     -0.48012331917936     -0.43666917478724
  C   0.43979782821474     -0.30961142770732      0.19144970450931
  F   -1.23588471512530     -1.79777722937088     -0.51580584928527
  H   0.47927508220767     -0.90952151662453      1.10199662022620
  H   -1.01707358279315     -0.01314705010725     -1.41530181220647
  N   -1.92013702688106      0.19137409011723      0.47096619413917
  O   -2.21684365208442     -0.40507628731374      1.49935736641629
  O   -2.30203275666353      1.30485934432201      0.12030212089844
  C   0.83039605227645      1.13783254871159      0.42890123366998
  H   0.73486284823382      1.71926403932465     -0.48918081715229
  H   0.19788639622822      1.58393536117477      1.19688828589579
  H   1.86471418831674      1.18254897286830      0.77358954353102
  N   1.43620841815716     -0.92872035267416     -0.74677142442415
  O   2.27313746425653     -1.67672954407135     -0.25304017644671
  O   1.36082376312987     -0.59810762946995     -1.92768181498404
