15
Coordinates from ORCA-job run
  C   -1.03998728334944      0.03482420231817      0.09884880486881
  C   0.45716060203463     -0.20057351405722      0.17657076761480
  F   -1.30480429253838      1.32108557832479     -0.22397613420873
  H   0.63221992149618     -1.27807718332156      0.16887457858899
  H   -1.52041494208756     -0.21165590299241      1.04822079129977
  N   -1.69733384771870     -0.88079338927155     -0.91405208636115
  O   -1.53999586156527     -2.07206343439654     -0.67461657606665
  O   -2.33710078829020     -0.37776567349908     -1.82103538596569
  C   1.07096615222168      0.47639638974405      1.38261147554196
  H   0.86501373850786      1.54619839781428      1.37397148639658
  H   0.65616383551106      0.03629335591487      2.29233219513917
  H   2.15064501968041      0.33590705069033      1.39215989269271
  N   1.06071241527227      0.30668565844853     -1.11257251781364
  O   1.90981215182482      1.18813191287412     -1.05213898692651
  O   0.63894317900064     -0.22459344859073     -2.13619830480040
