15
Coordinates from ORCA-job run
  C   -0.97721534543832     -0.68690392459061      0.22184935552572
  C   0.51456202557625     -0.40114618935202      0.33050381077438
  F   -1.51115052891488     -0.72870057324192      1.46534810248179
  H   0.90182430604864     -1.13296219594404      1.04516020791502
  H   -1.19155233981889     -1.61071191312841     -0.31364854365305
  N   -1.63151823012106      0.42881068283841     -0.55313848843559
  O   -1.26866925453567      0.48942923156289     -1.72410032646066
  O   -2.40810086056110      1.17213168789185      0.02645349521614
  C   0.82775424444964      1.01404294710472      0.75713833952832
  H   0.55066951291981      1.72922006054317     -0.01674286969909
  H   1.89326688294658      1.12514251485750      0.95318978637851
  H   0.27556340078283      1.24071156146183      1.67137509622915
  N   1.17546546863398     -0.77520455174732     -0.97436010525593
  O   0.97485556994110     -1.92350991827983     -1.35939815604749
  O   1.87624514809112      0.06165058002380     -1.52962970449722
