15
Coordinates from ORCA-job run
  C   -0.98993678725589     -0.67221514583863      0.21213676143229
  C   0.50575616690062     -0.41190115331263      0.33075286574909
  F   -1.53144212568553     -0.71308194416210      1.45237826588850
  H   0.87688013221221     -1.15430569073489      1.04304150575048
  H   -1.21666620923774     -1.58890107155417     -0.33043790278864
  N   -1.62120406056348      0.45928365666609     -0.55911801934083
  O   -2.38952741510813      1.21099451304000      0.02062581046089
  O   -1.24994126901619      0.52197578530955     -1.72732237284699
  C   0.83973257912661      0.99537476961671      0.76775539342999
  H   0.28605198674630      1.22559386574148      1.68020574466637
  H   1.90576838340121      1.08784520760317      0.97050456904319
  H   0.57889244625111      1.71960153144316     -0.00335554523613
  N   1.16782405691704     -0.78902417669267     -0.97261182168186
  O   1.88613931114261      0.03904080613302     -1.51851477247674
  O   0.94967280416920     -1.93128095325808     -1.36604048204952
