15

C	0.0	0.0	0.0
C	-0.506588	0.125369	-1.429123
F	1.397168	0.0	0.0
H	-1.603692	0.119133	-1.344759
H	-0.32074	-0.968329	0.394399
C	-0.482218	1.121572	0.885056
H	-1.572852	1.095712	0.920233
H	-0.146308	2.077807	0.484388
H	-0.078311	0.984746	1.89154
C	-0.083606	-1.049348	-2.220336
N	0.273539	-1.939745	-2.899014
N	-0.063137	1.381529	-2.028441
H	0.92588	1.319819	-2.239204
H	-0.563618	1.536861	-2.89412
Cl	-3.73603	0.0	0.0
