15

C	0.0	0.0	0.0
C	-0.367023	0.081098	-1.504766
F	1.392124	0.0	0.0
H	0.021692	-0.839552	-1.958025
H	-0.337137	-0.964255	0.392499
C	-0.543498	1.135077	0.82612
H	-0.165348	1.063815	1.848653
H	-0.235321	2.096586	0.40725
H	-1.634895	1.070821	0.849368
C	0.403528	1.189572	-2.100976
N	0.985752	2.096543	-2.566042
N	-1.753591	0.232985	-1.887735
H	-2.360026	-0.429993	-1.408528
H	-2.108975	1.128991	-1.575236
Cl	-4.290622	0.0	0.0
