15

C	0.0	0.0	0.0
C	-0.514302	0.062061	-1.437725
F	1.396757	0.0	0.0
H	-1.597848	-0.109302	-1.362165
H	-0.319045	-0.953256	0.432112
C	-0.477161	1.147125	0.856134
H	-0.098711	2.095035	0.466363
H	-0.100728	1.022047	1.873817
H	-1.569001	1.1491	0.866818
C	0.086121	-1.0343	-2.215096
N	0.566946	-1.90538	-2.837758
N	-0.289544	1.32166	-2.142269
H	0.626948	1.683138	-1.902872
H	-0.988759	1.984728	-1.831697
Cl	-3.685084	0.0	0.0
