16

C	-0.58104	0.017852	-1.399138
C	0.0	0.0	0.0
Cl	0.151476	-1.178865	-2.483616
H	1.094189	0.0	0.0
H	-1.65641	-0.154835	-1.379839
N	-0.441736	1.366384	-2.058602
O	-1.358475	1.691924	-2.812409
O	0.560985	2.026261	-1.821404
C	-0.47638	-1.256477	0.713709
H	-1.567206	-1.24805	0.827307
H	-0.177831	-2.156803	0.1764
H	-0.016893	-1.299111	1.704214
N	-0.55452	1.191751	0.665575
H	-0.685958	0.980602	1.646253
H	0.151634	1.916782	0.619805
Cl	3.504101	0.0	0.0
