16

C	-0.408508	-0.009594	-1.462799
C	0.0	0.0	0.0
Cl	0.21312	1.3882	-2.34702
H	1.102056	0.0	0.0
H	-0.035886	-0.905928	-1.953438
N	-1.911515	-0.06762	-1.600186
O	-2.55962	0.968043	-1.652923
O	-2.38008	-1.208553	-1.589923
C	-0.463375	-1.260201	0.716586
H	-0.161333	-2.157955	0.174446
H	-1.546976	-1.26914	0.851872
H	0.018614	-1.292553	1.697007
N	-0.571681	1.172869	0.668753
H	-0.254927	1.137761	1.632454
H	-0.137601	2.001999	0.274446
Cl	3.442874	0.0	0.0
