16

C	-0.411461	0.003521	-1.463057
C	0.0	0.0	0.0
Cl	0.284027	1.360111	-2.353001
H	1.102131	0.0	0.0
H	-0.093925	-0.915125	-1.952321
N	-1.917881	0.030814	-1.592651
O	-2.502753	1.098814	-1.702267
O	-2.45389	-1.077392	-1.522978
C	-0.470117	-1.256093	0.716691
H	-0.158472	-2.155531	0.181975
H	-1.554985	-1.267055	0.839276
H	0.000777	-1.284054	1.703186
N	-0.562642	1.179276	0.668259
H	-0.116441	2.002849	0.275712
H	-0.248935	1.139458	1.632615
Cl	3.447875	0.0	0.0
