16

C	-0.346149	-0.201811	-1.48158
C	0.0	0.0	0.0
Cl	0.056217	1.196535	-2.480445
H	1.09474	0.0	0.0
H	0.174446	-1.066258	-1.886588
N	-1.810153	-0.50659	-1.630653
O	-2.106324	-1.677779	-1.865469
O	-2.614529	0.399688	-1.421145
C	-0.503162	-1.190218	0.80501
H	-1.594741	-1.177955	0.899765
H	-0.07302	-1.116896	1.803402
H	-0.199173	-2.142044	0.362086
N	-0.455834	1.245075	0.589175
H	0.204807	1.97598	0.360919
H	-1.364452	1.507502	0.227337
Cl	3.400568	0.0	0.0
