16

C	-0.355508	-0.016228	-1.494802
C	0.0	0.0	0.0
Cl	-0.015716	1.514357	-2.306673
H	1.096212	0.0	0.0
H	0.186308	-0.802802	-2.015226
N	-1.810871	-0.343311	-1.673932
O	-2.074411	-1.472579	-2.086186
O	-2.641456	0.489617	-1.312522
C	-0.483951	-1.292751	0.643986
H	-0.046267	-1.347085	1.640524
H	-1.575068	-1.312041	0.74483
H	-0.16808	-2.17154	0.075845
N	-0.470035	1.144543	0.753281
H	-1.425292	1.374907	0.49875
H	0.122676	1.943971	0.552479
Cl	3.407215	0.0	0.0
