16

C	-0.589998	0.031369	-1.394235
C	0.0	0.0	0.0
Cl	0.143888	-1.14624	-2.497152
H	1.0937	0.0	0.0
H	-1.664044	-0.150908	-1.368028
N	-0.467492	1.387784	-2.042667
O	0.520227	2.065683	-1.789146
O	-1.381093	1.700182	-2.805748
C	-0.467998	-1.267906	0.699663
H	-1.557923	-1.266034	0.818643
H	-0.165316	-2.159492	0.149725
H	-0.002917	-1.320616	1.68735
N	-0.562877	1.175937	0.687452
H	0.108015	1.930451	0.585485
H	-0.614281	0.969568	1.678392
Cl	3.489715	0.0	0.0
