16

C	-0.433012	0.047879	-1.45373
C	0.0	0.0	0.0
Cl	-2.210661	0.061131	-1.64656
H	1.098149	0.0	0.0
H	-0.05371	0.955977	-1.910799
N	0.097553	-1.07864	-2.298159
O	-0.209412	-2.226177	-1.992228
O	0.794068	-0.752652	-3.25627
C	-0.492617	-1.191298	0.806788
H	-0.129529	-2.135157	0.402982
H	-1.586431	-1.223768	0.844899
H	-0.10762	-1.084432	1.823863
N	-0.402451	1.296579	0.557944
H	-1.280033	1.202699	1.058429
H	0.313408	1.588663	1.212949
Cl	3.37839	0.0	0.0
