16

C	-0.377515	0.03975	-1.479473
C	0.0	0.0	0.0
Cl	-2.148852	0.112718	-1.753684
H	1.098225	0.0	0.0
H	0.052223	0.920114	-1.950985
N	0.148248	-1.116965	-2.289208
O	-0.272012	-2.241153	-2.034536
O	0.966682	-0.832873	-3.159514
C	-0.538743	-1.18646	0.775976
H	-1.633036	-1.19531	0.784983
H	-0.183799	-2.132616	0.371029
H	-0.183372	-1.082949	1.80151
N	-0.390036	1.248543	0.652324
H	-1.317773	1.542551	0.370568
H	0.277125	1.972627	0.415498
Cl	3.385905	0.0	0.0
