16

C	-0.597621	0.017846	-1.390918
C	0.0	0.0	0.0
Cl	0.124546	-1.175754	-2.48676
H	1.097993	0.0	0.0
H	-1.672558	-0.158134	-1.355766
N	-0.472598	1.367439	-2.052614
O	0.53987	2.024827	-1.842981
O	-1.409126	1.694791	-2.780109
C	-0.470854	-1.25429	0.721293
H	-1.55998	-1.24249	0.846871
H	-0.000388	-1.295327	1.707209
H	-0.177679	-2.156634	0.183556
N	-0.5538	1.190312	0.672615
H	0.12418	1.937255	0.562588
H	-0.604944	0.996691	1.666476
Cl	3.486316	0.0	0.0
