16

C	-0.531914	-0.005078	-1.439803
C	0.0	0.0	0.0
Cl	0.231783	-1.218727	-2.466945
H	1.093505	0.0	0.0
H	-1.609626	-0.174596	-1.460022
N	-0.372984	1.359384	-2.059904
O	-1.38098	2.071482	-2.008219
O	0.716765	1.692939	-2.498161
C	-0.496013	-1.252314	0.709663
H	-0.182421	-2.161711	0.19464
H	-1.589986	-1.245972	0.794252
H	-0.072402	-1.256927	1.713866
N	-0.426112	1.183746	0.736809
H	0.209748	1.947989	0.547082
H	-1.36562	1.471585	0.489616
Cl	3.44764	0.0	0.0
