17

C	0.0	0.0	0.0
C	-0.357934	0.158424	-1.517238
Br	1.930614	0.0	0.0
H	0.592952	0.311249	-2.037159
H	-0.284582	-0.951824	0.424603
N	-0.454334	1.023128	0.955762
O	-0.448215	2.208411	0.583999
O	-0.505659	0.675748	2.147125
C	-1.221357	1.338189	-1.968323
H	-0.700827	2.283524	-1.813254
H	-1.413439	1.215679	-3.04229
H	-2.166196	1.360076	-1.425602
C	-0.887251	-1.179461	-2.037557
H	-1.851072	-1.398802	-1.576461
H	-0.997701	-1.137527	-3.127437
H	-0.184933	-1.988454	-1.805719
H	-2.093804	0.0	0.0
