17

C	0.0	0.0	0.0
C	-0.313102	-0.016404	-1.531759
Br	1.933853	0.0	0.0
H	0.537238	0.491698	-1.998472
H	-0.278774	-0.884749	0.553837
N	-0.495158	1.156828	0.748051
O	-0.46128	2.257663	0.156176
O	-0.545988	1.049379	1.988301
C	-1.550774	0.678568	-2.110981
H	-2.433463	0.041455	-2.076149
H	-1.763648	1.605131	-1.583762
H	-1.327274	0.915304	-3.165705
C	-0.294164	-1.475609	-1.980957
H	0.635391	-1.976459	-1.701461
H	-0.405868	-1.541153	-3.06854
H	-1.136419	-1.998657	-1.516103
H	-2.003915	0.0	0.0
