17

C	0.0	0.0	0.0
C	-0.629734	0.100778	-1.366979
Br	1.925736	0.0	0.0
H	-1.708659	0.206963	-1.073461
H	-0.331731	-0.903473	0.507199
N	-0.388628	1.103566	0.962564
O	-0.512309	2.242965	0.529889
O	-0.483812	0.77432	2.140197
C	-0.485763	-1.247263	-2.064283
H	-1.024774	-1.222654	-3.01578
H	0.560783	-1.499777	-2.272335
H	-0.933123	-2.03983	-1.457261
C	-0.165272	1.239654	-2.260911
H	0.899746	1.159724	-2.508
H	-0.729386	1.196689	-3.198044
H	-0.34562	2.209033	-1.800834
H	-3.13684	0.0	0.0
