15
Coordinates from ORCA-job run
  C   -0.75178951512612      0.12688636125584     -0.14360794597348
  C   0.60958858360402      0.14895071461845     -0.02221507965223
  N   -1.55188513842117      1.13111624958145     -0.77783440230729
  O   -0.98032508137744      2.17197807921352     -1.13330636825222
  O   -2.74210966194971      0.89285186915324     -0.95835272914485
  N   -1.51558533016284     -0.98038474191679      0.40854380397395
  O   -2.33082751415774     -0.71037336509969      1.28876363637471
  O   -1.27383956333333     -2.10786306361025     -0.02722149791614
  N   1.39328207243726      1.12398035398893     -0.51922643098547
  H   0.95367347737995      1.96351042960934     -0.86460484601394
  H   2.35772935530755      1.15553900048795     -0.23981492604236
  C   1.32044259278423     -1.00637318588189      0.62674643835323
  H   2.31522161804904     -0.69914813219034      0.95406956782804
  H   0.77654775404223     -1.38333120658720      1.49194994347002
  H   1.41987635092407     -1.82633936262255     -0.08588916371196
