15
Coordinates from ORCA-job run
  C   -0.74315428389207     -0.12113889747201     -0.19071998802730
  C   0.61787178561262     -0.02895753252753     -0.10220648705516
  N   -1.47376249867599     -0.70524445687299     -1.27503830244800
  O   -0.82819927956652     -1.03938543329365     -2.27903986256092
  O   -2.68232633797342     -0.86712600799188     -1.13726890375239
  N   -1.58034587687287      0.40916536855593      0.87326090147293
  O   -2.35395946864102      1.31674877875580      0.57293194341081
  O   -1.43643526083659     -0.07092557034980      1.99944917463110
  N   1.46632253791649     -0.50848125759819     -1.03006227844832
  H   2.43734528766462     -0.25767341277506     -0.97247074467864
  H   1.09037824114579     -0.82215108491175     -1.91172677185586
  C   1.24874650310502      0.56462959058589      1.12704616857156
  H   0.68834529251580      1.42099373640671      1.49962455251972
  H   1.28195357476118     -0.18195052374995      1.92187737622960
  H   2.26621978373696      0.89149670323848      0.90534322199087
