15
Coordinates from ORCA-job run
  C   -0.74011324670103     -0.05816932658373     -0.23066478829998
  C   0.62017207702672     -0.03085153500469     -0.08858440007608
  N   -1.45064661228025     -0.58757897753726     -1.35400351898995
  O   -0.78442176846946     -0.89519173716008     -2.35362351111694
  O   -2.66509141387600     -0.73458844630825     -1.25317918443027
  N   -1.59633365394213      0.44998236674629      0.82913096107140
  O   -1.49987515648572     -0.07711327302709      1.93930972025972
  O   -2.34093324838994      1.38538278413500      0.54125238814842
  N   1.48279526251655     -0.41182715012137     -1.04545508195596
  H   1.12596567392563     -0.81200959343051     -1.89939692308954
  H   2.46106624166138     -0.48308140512087     -0.82995435773418
  C   1.23077881129149      0.46956419154764      1.19183785478429
  H   2.27216256770414      0.74943981620471      1.02547358465664
  H   1.18328852796587     -0.30730954092983      1.95628890488566
  H   0.70218593805276      1.34135182659003      1.57556835188677
