15
Coordinates from ORCA-job run
  C   -0.90352707999152     -0.10955264178143     -0.30749383592490
  C   0.49704158641876      0.33104758935625     -0.04133265141684
  N   -1.57490912894528     -1.32572576280483     -0.58917127726709
  O   -2.80125833330733     -1.29145906341769     -0.67901036635874
  O   -0.84640952347991     -2.31067116543995     -0.71917555234737
  N   -1.42887863086971      1.02665807664811      0.15771630041941
  O   -0.13884717078893      1.63901611803176      0.40543111731437
  O   -2.47296322047050      1.55823804267051      0.40538675531524
  N   1.32419463204117      0.42623421013488     -1.16911116134410
  H   2.22237203197075      0.83951693525317     -0.95594780679669
  H   0.87959547169876      0.91538594854659     -1.93449769289822
  C   1.18248425742584     -0.30869679005937      1.14047718351461
  H   0.51574540574493     -0.31785535258406      2.00265199700146
  H   2.08037250749036      0.25738965631381      1.40195108810292
  H   1.46298719506260     -1.33052580086776      0.88212590268597
