15
Coordinates from ORCA-job run
  C   -0.73053202286340     -0.00120956045594     -0.23490647275425
  C   0.62507953274496     -0.06385303108822     -0.10988780903035
  N   -1.54174159771647      0.55513291568237      0.84103459236936
  O   -1.98682661315867     -0.24119477767236      1.66749616610633
  O   -1.71520196267400      1.77409899905433      0.84382778038551
  N   -1.50434906161700     -0.48361779372323     -1.33074053158373
  O   -0.89445120759350     -1.00122875212944     -2.27707656718444
  O   -2.72468103953351     -0.35039398700429     -1.26929339623011
  N   1.45362584466680     -0.54369426424761     -1.05747551392204
  H   1.05137204638112     -1.01085133535422     -1.85562951007786
  H   2.41230963460102     -0.72299393344818     -0.81605529745936
  C   1.26522081177802      0.43040107343964      1.15724113379824
  H   1.24106252113914     -0.35614481609758      1.91601122642265
  H   0.74489609356617      1.30198746714133      1.55129601775203
  H   2.30321702027931      0.71156179590338      0.97315818140801
