15
Coordinates from ORCA-job run
  C   -0.75310769780415      0.16281543513892     -0.09705986441027
  C   0.60883711574018      0.15194952566375      0.02014663209604
  N   -1.52991656517098     -1.00221274770930      0.29641723211125
  O   -1.29850712181818     -2.06238532547023     -0.28815779628826
  O   -2.34710504908355     -0.84474438739990      1.20171737578286
  N   -1.53805667161352      1.23854304716028     -0.62052825324646
  O   -2.72599717987388      1.02972117467400     -0.84799249049530
  O   -0.95610025994789      2.31083618165242     -0.84148896965539
  N   1.39566331074728      1.21146028740936     -0.24019587982452
  H   2.38957731553373      1.07590086263830     -0.29736374023168
  H   0.98165991007513      2.03287190557754     -0.65383568762915
  C   1.30943151856227     -1.08867430181112      0.50197681898864
  H   0.76107447424497     -1.57356317802496      1.30876779036270
  H   1.39854645549972     -1.80795125497564     -0.31368317202813
  H   2.30400044490885     -0.83556722452340      0.87228000446769
