15
Coordinates from ORCA-job run
  C   -0.73260906584096      0.01881692365834     -0.25620325794815
  C   0.61287150534571     -0.12233651723069     -0.05845551047219
  N   -1.56879106142802      0.57915294799227      0.79356127823493
  O   -2.16425214709810      1.62305821327276      0.53313995929235
  O   -1.60000885143875     -0.01752118742844      1.87167596753364
  N   -1.44454746138113     -0.33078513148607     -1.44851902093032
  O   -2.67096103931146     -0.30369364115676     -1.41902757404256
  O   -0.77124524109012     -0.67037699072670     -2.43239101433138
  N   1.45559673792796     -0.64490872862666     -0.96816498737796
  H   1.11410864426501     -0.80432617274411     -1.90369951532638
  H   2.44464688609609     -0.55980719770286     -0.81449067139220
  C   1.21571682479962      0.24248633576067      1.26994207139375
  H   0.77341015659056      1.14882716272305      1.68150218502762
  H   2.28984048730916      0.40355317221780      1.16327004937899
  H   1.04722362525442     -0.56313918852261      1.98586004095985
