15
Coordinates from ORCA-job run
  C   -0.72374841256709      0.09150028949057     -0.26917198486656
  C   0.60995265249349     -0.13011150580006     -0.06440803163814
  N   -1.54061779264816      0.66444467223556      0.78876749551709
  O   -1.60017739290710      0.05047839684158      1.85595870567978
  O   -2.09470801202089      1.73473987577980      0.54464846321527
  N   -1.44838305649119     -0.22555459893650     -1.46191085725372
  O   -0.78780703742522     -0.57532357765031     -2.45113791082959
  O   -2.67377109566310     -0.16520391079231     -1.42722602491553
  N   1.45469426202949     -0.57132072753126     -1.01399446032555
  H   1.07531852370639     -0.86959586107402     -1.89963582261083
  H   2.37150145875969     -0.87840413480507     -0.74054727128327
  C   1.22254747051495      0.16376237294571      1.27767198531358
  H   0.83087328112638      1.08623835075476      1.70488802321927
  H   0.99826211473029     -0.64314995851983      1.97679902825445
  H   2.30406303636206      0.26850031706139      1.17929866252375
