15
Coordinates from ORCA-job run
  C   -0.75909476561852      0.15434229704232     -0.06034032685482
  C   0.60809424107190      0.13592600718647     -0.06735262716927
  N   -1.50148633231500     -0.99551954751990      0.43069990117246
  O   -1.31007233790667     -1.33612243781006      1.59977501099218
  O   -2.24870329325763     -1.55797261354305     -0.36776080256419
  N   -1.58324069886871      1.23400807328116     -0.51332898414069
  O   -2.78765431524145      1.17770978260597     -0.28543547771616
  O   -1.01817222366623      2.17825656429357     -1.08423423534952
  N   1.37105246637803      1.16031566461012     -0.48936525700737
  H   2.35750422356849      1.01352326105117     -0.60888440311529
  H   0.92624400061073      1.93252951108043     -0.96138718114961
  C   1.34438389167871     -1.05001533292559      0.49184481802830
  H   0.85432060537398     -1.98936514523236      0.23974005516942
  H   1.38549926236473     -0.97945310461783      1.57976284604614
  H   2.36232527582763     -1.07816297950243      0.09926666365843
