15
Coordinates from ORCA-job run
  C   -0.73791998302368     -0.08702267624827     -0.22390718509504
  C   0.62108951690129     -0.04123133866892     -0.08261224124534
  N   -1.59813545541615      0.39920885165802      0.84340481186489
  O   -1.51231321068502     -0.16018692385687      1.93840504678724
  O   -2.33036563236388      1.35101532602102      0.57841339656371
  N   -1.44512301731674     -0.57534098350721     -1.36874940548122
  O   -2.66275933151910     -0.70363070737862     -1.28531135541306
  O   -0.77345878286113     -0.86873315044758     -2.36858195910833
  N   1.48867540614065     -0.48652116729212     -1.01006266675572
  H   2.46309246944825     -0.26604977355356     -0.90494430326021
  H   1.13424056964567     -0.72975298958050     -1.92248451130457
  C   1.22204061646166      0.45228692222954      1.20429725311278
  H   0.67734605956388      1.30589449260625      1.60573624736411
  H   1.19451415031621     -0.34104603331182      1.95262476568956
  H   2.25907662470809      0.75211015133066      1.04377210628119
