15
Coordinates from ORCA-job run
  C   -0.90508062679559     -0.11372815555571     -0.30965592589524
  C   0.46713662309706      0.46893712061699     -0.10098554778593
  N   -1.48902687890062      0.98322687862452      0.17015705714664
  O   -2.55789158521688      1.43000955659273      0.47841980786659
  O   -0.22146778286165      1.65697529833820      0.38424634262189
  N   -1.46285981652140     -1.39580240674706     -0.50342414563797
  O   -0.64109039620510     -2.30345490161506     -0.66301924849091
  O   -2.67780301817650     -1.52870233045113     -0.35637879950578
  N   1.33853200368235      0.69096924368178     -1.18779070729493
  H   2.06546600413779     -0.01052275492847     -1.22237885773860
  H   0.85815055577157      0.71353954634185     -2.07681079878311
  C   1.17389848621779     -0.05521260326566      1.12537010646181
  H   2.03415561683664      0.58223080040723      1.34209442456985
  H   0.49262345710423     -0.04555571871198      1.97502535010330
  H   1.52625735783030     -1.07290957332822      0.94413094236239
