15
Coordinates from ORCA-job run
  C   -0.73400767778124      0.15241234899050     -0.20019135621070
  C   0.60657554325696      0.14788369474137      0.06799383852931
  N   -1.53971770656637     -1.02204522796656      0.09289951427513
  O   -1.24542663949314     -2.06965181255589     -0.48606573857687
  O   -2.44505628999321     -0.88525787819720      0.91398818179195
  N   -1.47173812842355      1.24293649147556     -0.76238478243939
  O   -0.87416388337215      2.31997629257633     -0.90181514952752
  O   -2.63265580804281      1.03987654960452     -1.10464655091362
  N   1.42801624559372      1.18218306681647     -0.18772600620269
  H   2.36170744274152      1.16236761959783      0.18208131443607
  H   1.02325247647015      2.06518241127701     -0.45885527760975
  C   1.25478507242833     -1.09560941261268      0.61101015298087
  H   1.43729341184832     -1.80226443228451     -0.19985085817399
  H   2.20550109808294     -0.84695434103799      1.08567116058316
  H   0.62463484325054     -1.59203537042475      1.34789155705804
