15
Coordinates from ORCA-job run
  C   -0.71200671935944      0.07267319338875     -0.30402681177694
  C   0.60348078107108     -0.14243735797224     -0.00914039226126
  N   -1.38174407317668     -0.35341442822652     -1.49755139531373
  O   -2.53023318269960      0.03961174124247     -1.68157096129429
  O   -0.74798645374298     -1.07176934017732     -2.28295317483469
  N   -1.59399439936322      0.76161578551564      0.62838271034692
  O   -1.39346404236298      1.96107263222899      0.82554115043555
  O   -2.47470285232671      0.08233174529932      1.15348624170518
  N   1.46611478817548     -0.77698306918824     -0.82816894936312
  H   2.36847057175978     -1.03418864143885     -0.46803452404989
  H   1.10193913812521     -1.26154333905779     -1.63343253861802
  C   1.19705207779461      0.34403875264255      1.28280699931365
  H   2.11741806997094      0.89318858497628      1.07098142463667
  H   1.44664739748408     -0.51570965170237      1.91097025480522
  H   0.53300889865043      1.00251339246934      1.83370996626873
