15
Coordinates from ORCA-job run
  C   -0.74793543950472      0.16074635138350     -0.11458954662681
  C   0.61327403597259      0.10513673198652     -0.03868668338294
  N   -1.51181423099496      1.21157276450896     -0.71575824834885
  O   -0.89076960046087      2.09543092407141     -1.32231461068341
  O   -2.73134327185390      1.18554464644708     -0.57273027262088
  N   -1.58072227549878     -0.89364777076183      0.45019936975322
  O   -2.15716112013461     -1.62420253213167     -0.35417444465370
  O   -1.64557793461412     -0.97681151877035      1.67724740874916
  N   1.43904468762432      0.98851005803006     -0.63559577444019
  H   2.40947303084682      0.98841833528375     -0.37451569644336
  H   1.04203984138637      1.81580695997490     -1.05308658698210
  C   1.29652179969618     -1.04932228797844      0.63860515326843
  H   2.11129102465163     -0.67567927577952      1.26399779349586
  H   1.72480045447876     -1.70897165208918     -0.12023959414307
  H   0.62587899840528     -1.62153173417519      1.27264173305865
