15
Coordinates from ORCA-job run
  C   -0.74888632065230      0.10219098951005     -0.18229663641096
  C   0.58787979501353      0.19938793531780      0.08964655815721
  N   -1.46988568676282     -1.12409300483772      0.12010438056437
  O   -2.40473931511266     -1.03690829710848      0.91421668480387
  O   -1.08054623434058     -2.16026438077060     -0.42223642387571
  N   -1.55050794958804      1.11605371029384     -0.79661150636222
  O   -2.68081718548433      0.81396152408679     -1.16761308331908
  O   -1.03598759777716      2.23446880281052     -0.94429492680616
  N   1.31126967163096      1.32001301283914     -0.08141357728858
  H   0.88200364906935      2.11288143046682     -0.53322465097479
  H   2.31239177866028      1.26888993350941     -0.01502985419172
  C   1.32786017935594     -0.98446985159801      0.64963653263043
  H   2.25105624766932     -0.65468713209970      1.12854242339296
  H   1.56524108034312     -1.68869006509355     -0.14918344957004
  H   0.73366788797539     -1.51773460732631      1.39075752925043
