15
Coordinates from ORCA-job run
  C   -0.74296762100689      0.22961037475370      0.00119221612098
  C   0.60447609489658      0.05756878773572     -0.15624862189987
  N   -1.52354092337238     -0.76267060387687      0.72482910110737
  O   -2.40121395724777     -1.35034243756186      0.09548584668823
  O   -1.23398201297891     -0.95591267196188      1.90723537388892
  N   -1.51005754035365      1.32772792041720     -0.49855753110183
  O   -0.92582854792369      2.14066928141766     -1.23045124990325
  O   -2.67940646966656      1.42847129096018     -0.13957614953377
  N   1.40428265270514      0.92742868589778     -0.79761083732114
  H   2.35318067985431      0.66342300595630     -0.99420050324335
  H   0.98509101144168      1.68918310090198     -1.30832100961532
  C   1.28515277178851     -1.12532632520064      0.47522734101581
  H   2.24133459917598     -1.31619303529828     -0.01515946322195
  H   1.46303968366481     -0.92841658685785      1.53338240647651
  H   0.67843957902281     -2.02722078728316      0.40377308054267
