15
Coordinates from ORCA-job run
  C   -0.74272130281032     -0.14369106084891     -0.17012948032739
  C   0.61658053398972     -0.00877950428679     -0.11952118878824
  N   -1.56745233126634      0.35390291568686      0.91940352601759
  O   -2.38130980427803      1.23346082932533      0.64309418933242
  O   -1.37578121286723     -0.12315960117279      2.03953862860829
  N   -1.48378235455861     -0.75316548426185     -1.23307398678827
  O   -0.85788888374578     -1.06305565991350     -2.25705266098028
  O   -2.68103139229982     -0.95889434920152     -1.05878230852948
  N   1.45245120150634     -0.45789363612052     -1.07410862784776
  H   2.41408554620951     -0.16857966543881     -1.04724574430858
  H   1.05835322488391     -0.77648655298448     -1.94617611879478
  C   1.26199390719154      0.60340516520161      1.09271519653571
  H   1.32866761276257     -0.13853599165936      1.88966664341799
  H   0.69008740442140      1.44843541973461      1.47389002288257
  H   2.26674785086113      0.95203717594011      0.84778190957020
