15
Coordinates from ORCA-job run
  C   -0.74190208072552      0.16237200228842     -0.15869785400831
  C   0.61350069803283      0.13228799012460      0.01758703022126
  N   -1.55611068842719     -0.97075188632529      0.25168345371637
  O   -2.40436146569880     -0.76206901412715      1.11713940207862
  O   -1.32145352201685     -2.05831136819573     -0.27885927728725
  N   -1.48778814708846      1.24343437213666     -0.72934586293620
  O   -2.67394892446076      1.05742621091745     -0.98267100584191
  O   -0.87518643160870      2.29592166178387     -0.96065141886470
  N   1.44149711330139      1.12718649310255     -0.35157899596437
  H   1.03791847290181      2.00756203426046     -0.63332920857693
  H   2.39429183537080      1.10312689751015     -0.03418263108389
  C   1.26719810253568     -1.09851791448511      0.58213280983583
  H   0.67718853350442     -1.53996574705231      1.38428091685950
  H   1.37743172050557     -1.85046063154209     -0.20046190074966
  H   2.25372478387379     -0.85124110039649      0.97795454260164
