15
Coordinates from ORCA-job run
  C   -0.74597907524951     -0.02379155714579     -0.22051960934135
  C   0.61576371034049     -0.06271638885020     -0.09647481432436
  N   -1.49682666573423     -0.53730816706914     -1.32476266284031
  O   -0.86005624729217     -0.89713846886357     -2.32626566552005
  O   -2.71578239664480     -0.62092634776925     -1.20695122476436
  N   -1.56100470207124      0.54394304155282      0.84158381547981
  O   -1.47309789890009      0.03220029283505      1.95969072657361
  O   -2.26281958934209      1.51007052301439      0.54776979692872
  N   1.44508961311454     -0.50235418182465     -1.05785305707442
  H   1.05640005094197     -0.90471370257518     -1.89676724719225
  H   2.42020045589658     -0.62429596996139     -0.85045172354409
  C   1.26978179121278      0.42999422968274      1.16534166553763
  H   2.31896353954959      0.66220289177213      0.97615087816781
  H   1.20286393546378     -0.33329216304224      1.94202712346542
  H   0.78650347871442      1.32912596824427      1.54548199844819
