15
Coordinates from ORCA-job run
  C   -0.74062447577814      0.10344503137845     -0.20797837092010
  C   0.59780502403201      0.18166081467721      0.05869454418142
  N   -1.53394053335548      1.12703378085536     -0.81876612218640
  O   -2.68363134264355      0.84900934380813     -1.14566301903732
  O   -0.99507756302543      2.22755203810260     -1.00562670910940
  N   -1.48434035024027     -1.09580803827828      0.14279580242150
  O   -2.39671945203216     -0.96754903977665      0.95733762551741
  O   -1.13113794512045     -2.15410087409119     -0.38143566904602
  N   1.36530636439665      1.24314407723603     -0.25018980753270
  H   0.91279710463000      2.09094633424704     -0.55629767754243
  H   2.29483822961745      1.29280275009583      0.12751756886014
  C   1.31034847664303     -0.99848437821168      0.65923620313600
  H   1.53635947885130     -1.72844416238878     -0.11942008288558
  H   2.24364190828503     -0.67630987203523      1.12430745630350
  H   0.70537507574000     -1.49689780561886      1.41548825784000
