18

C	0.0	0.0	0.0
C	-0.353281	-0.089177	-1.499469
Br	2.035463	0.0	0.0
H	0.106807	0.753385	-2.017705
C	-0.452865	1.339635	0.548442
H	-0.029552	2.162569	-0.028691
H	-1.545676	1.36228	0.509134
H	-0.127224	1.446493	1.586183
N	-0.561378	-1.041645	0.725382
H	-0.321805	-1.96581	0.401658
H	-0.529827	-0.932656	1.726583
N	-1.728481	-0.211844	-1.767793
H	-2.332811	-0.453019	-0.979928
H	-2.124947	0.581239	-2.243399
N	0.356828	-1.289747	-2.150556
O	0.247766	-2.391379	-1.615019
O	0.919605	-1.084725	-3.222285
Cl	-4.356004	0.0	0.0
