18

C	0.0	0.0	0.0
C	-0.46876	-0.019876	-1.470103
Br	2.00518	0.0	0.0
H	-1.555741	0.121564	-1.402357
C	-0.411588	1.248726	0.760587
H	0.063615	2.144624	0.368593
H	-0.122512	1.111154	1.80402
H	-1.497794	1.348404	0.692547
N	-0.488217	-1.154377	0.682667
H	-0.441216	-1.941378	0.043913
H	-1.480492	-0.972078	0.851031
N	-0.151207	-1.25086	-2.110946
H	0.818631	-1.248922	-2.400918
H	-0.739517	-1.383545	-2.922373
N	0.052975	1.181978	-2.254789
O	-0.424858	2.282039	-1.987449
O	0.913435	0.981961	-3.113875
Cl	-3.650402	0.0	0.0
