18

C	0.0	0.0	0.0
C	-0.247138	0.19483	-1.532842
Br	2.067726	0.0	0.0
H	0.254867	1.110404	-1.845703
C	-0.477398	1.222725	0.746441
H	-0.16754	1.153641	1.789867
H	-0.071743	2.138878	0.313666
H	-1.571764	1.236628	0.696042
N	-0.502381	-1.170365	0.6046
H	-1.470395	-1.030012	0.886943
H	-0.425195	-1.970812	-0.008099
N	-1.599215	0.190049	-1.975812
H	-2.193962	-0.434875	-1.434288
H	-2.019321	1.101253	-1.860987
N	0.444922	-0.883516	-2.345709
O	0.178538	-2.053847	-2.073807
O	1.168108	-0.525426	-3.269684
Cl	-3.991431	0.0	0.0
