17

C	-0.485049	0.036169	-1.439603
C	0.0	0.0	0.0
F	-0.223043	-1.24161	-1.995797
H	1.10096	0.0	0.0
H	-0.332671	0.923279	0.489494
C	-1.984156	0.235897	-1.550502
H	-2.25931	1.237365	-1.208114
H	-2.493597	-0.500295	-0.928072
H	-2.302514	0.120394	-2.590284
C	0.321078	1.032993	-2.245791
H	1.384437	0.804146	-2.147353
H	0.027763	0.991445	-3.298878
H	0.15321	2.047603	-1.873619
N	-0.591725	-1.144972	0.710168
H	-0.200665	-1.146388	1.646351
H	-0.215795	-1.973182	0.260432
Cl	3.646447	0.0	0.0
