17

C	-0.49534	0.029589	-1.439275
C	0.0	0.0	0.0
F	-0.220547	-1.243464	-1.989775
H	1.093729	0.0	0.0
H	-0.346292	-0.937277	0.457272
C	-1.999436	0.209421	-1.523429
H	-2.50068	-0.586796	-0.964332
H	-2.325476	0.154658	-2.565527
H	-2.287213	1.175698	-1.106044
C	0.266904	1.051257	-2.253155
H	1.333843	0.825217	-2.199238
H	-0.063907	1.034358	-3.295982
H	0.102974	2.045534	-1.834109
N	-0.451619	1.20323	0.717342
H	-1.249039	0.985093	1.304022
H	0.300359	1.510652	1.324455
Cl	3.628921	0.0	0.0
