16

C	-0.469555	0.037977	-1.462536
C	0.0	0.0	0.0
Cl	0.233193	-1.305409	-2.413984
H	1.091273	0.0	0.0
C	-1.93455	0.026073	-1.592598
N	-3.101894	0.1084	-1.702032
C	-0.00111	1.293591	-2.065517
N	0.288638	2.324346	-2.551662
N	-0.467999	-1.249315	0.674471
O	-1.278858	-1.976231	0.094973
O	-0.019761	-1.447343	1.798119
C	-0.498742	1.187771	0.807469
H	-0.093991	1.099974	1.815478
H	-0.116253	2.11274	0.374829
H	-1.591739	1.225602	0.851943
Cl	3.210905	0.0	0.0
