16

C	-0.487871	-0.023637	-1.461332
C	0.0	0.0	0.0
Cl	0.145894	1.45	-2.276667
H	1.092119	0.0	0.0
C	0.013233	-1.174261	-2.218293
N	0.397081	-2.089241	-2.847143
C	-1.952033	0.027471	-1.546994
N	-3.120676	0.131983	-1.609774
N	-0.449913	-1.255204	0.681257
O	-1.092336	-2.081303	0.027602
O	-0.14714	-1.375862	1.862582
C	-0.509878	1.182464	0.803126
H	-1.602847	1.197658	0.860722
H	-0.094537	1.105708	1.806724
H	-0.151967	2.110844	0.361123
Cl	3.19651	0.0	0.0
