16

C	-0.45517	-0.01558	-1.463888
C	0.0	0.0	0.0
Cl	-2.26157	0.005604	-1.603368
H	1.092607	0.0	0.0
C	0.020209	1.213578	-2.11111
N	0.304263	2.227259	-2.633001
C	0.041952	-1.153997	-2.245512
N	0.39354	-2.018126	-2.959153
N	-0.430024	-1.24846	0.699155
O	-0.802534	-2.206394	0.021797
O	-0.346298	-1.245428	1.924051
C	-0.46195	1.218935	0.774669
H	0.012924	1.196489	1.753166
H	-0.128127	2.122291	0.262615
H	-1.546337	1.244897	0.897125
Cl	3.161389	0.0	0.0
