16

C	-0.49098	-0.163043	-1.45241
C	0.0	0.0	0.0
Cl	0.035771	1.28455	-2.385493
H	1.110139	0.0	0.0
C	0.067369	-1.33026	-2.143129
N	0.468211	-2.227035	-2.787413
C	-1.957079	-0.21165	-1.512448
N	-3.131892	-0.200538	-1.535612
N	-0.425865	-1.205352	0.781256
O	-0.922991	-2.154799	0.169185
O	-0.234563	-1.176399	1.991613
C	-0.51728	1.242156	0.697387
H	-1.610884	1.269166	0.730742
H	-0.126049	1.24204	1.713149
H	-0.142959	2.131219	0.193198
Cl	3.189532	0.0	0.0
