16

C	-0.46948	0.035836	-1.463526
C	0.0	0.0	0.0
Cl	0.264204	-1.28295	-2.425354
H	1.091321	0.0	0.0
C	-1.932838	-0.011412	-1.594842
N	-3.102906	0.05489	-1.682965
C	-0.025397	1.302404	-2.059711
N	0.235126	2.341229	-2.541893
N	-0.462831	-1.251945	0.673774
O	-1.213587	-2.019394	0.065903
O	-0.067255	-1.413443	1.82444
C	-0.50287	1.186521	0.806617
H	-0.105557	1.096421	1.816632
H	-0.118443	2.112443	0.377781
H	-1.596011	1.223878	0.844754
Cl	3.206715	0.0	0.0
