16

C	-0.470949	-0.156246	-1.460852
C	0.0	0.0	0.0
Cl	0.391088	1.071875	-2.448077
H	1.105531	0.0	0.0
C	-0.134097	-1.484021	-1.979398
N	0.083022	-2.557865	-2.40194
C	-1.908742	0.071232	-1.648072
N	-3.047826	0.291445	-1.835906
N	-0.488827	-1.200923	0.753824
O	0.320389	-1.855097	1.398457
O	-1.702227	-1.429151	0.685854
C	-0.537466	1.243048	0.677151
H	-1.629308	1.248839	0.707411
H	-0.17393	2.127735	0.153525
H	-0.141919	1.276614	1.693704
Cl	3.277556	0.0	0.0
