16

C	-0.456983	0.057288	-1.462548
C	0.0	0.0	0.0
Cl	-2.263941	-0.05013	-1.588265
H	1.093141	0.0	0.0
C	-0.082251	1.359677	-2.025516
N	0.178499	2.403181	-2.498034
C	0.116293	-0.978756	-2.328153
N	0.554941	-1.733809	-3.114359
N	-0.409518	-1.300685	0.613303
O	-0.469635	-1.342841	1.839094
O	-0.614261	-2.256297	-0.133316
C	-0.480759	1.164161	0.841247
H	-0.138791	2.098534	0.394905
H	-0.028653	1.081479	1.827161
H	-1.567766	1.179441	0.943736
Cl	3.157963	0.0	0.0
