13

C	0.0	0.0	0.0
C	-0.457828	-0.017687	-1.433693
Br	2.023726	0.0	0.0
H	-1.545104	-0.138271	-1.437993
H	-0.193258	0.940547	-1.882555
H	0.012762	-0.828462	-1.98272
N	-0.530603	1.041598	0.746852
H	-1.54603	1.044799	0.57546
H	-0.365942	0.886671	1.73341
N	-0.251709	-1.400656	0.658046
O	-0.259542	-2.385886	-0.067231
O	-0.384398	-1.404936	1.876698
Br	-3.755248	0.0	0.0
