13

C	0.0	0.0	0.0
C	-0.495067	0.141351	-1.425025
Br	1.939328	0.0	0.0
H	-0.194405	1.122445	-1.801757
H	-1.58846	0.081393	-1.395164
H	-0.084324	-0.634327	-2.069066
N	-0.494641	0.932082	0.951056
H	-1.507448	0.781134	1.01816
H	-0.345239	1.864198	0.580571
N	-0.377261	-1.411665	0.494903
O	-0.928964	-1.500808	1.580528
O	-0.090052	-2.343384	-0.25072
Br	-3.857005	0.0	0.0
