15

C	-0.368434	0.18518	-1.474523
C	0.0	0.0	0.0
Br	-0.281243	-1.60572	-2.457042
H	1.097029	0.0	0.0
H	-1.418556	0.443978	-1.61948
N	0.485378	1.16047	-2.017136
H	0.349389	1.298953	-3.008291
H	1.462107	0.949517	-1.812567
C	-0.515356	-1.21619	0.606058
N	-0.946234	-2.157449	1.16176
C	-0.456288	1.223348	0.807657
H	-0.022286	2.119676	0.367018
H	-0.103535	1.132644	1.836578
H	-1.547086	1.311078	0.815661
Br	3.492236	0.0	0.0
