15

C	-0.257568	-0.026969	-1.498903
C	0.0	0.0	0.0
Br	-2.195022	-0.135084	-1.933077
H	1.100187	0.0	0.0
H	0.018425	0.952492	-1.906515
N	0.419127	-1.148687	-2.077573
H	1.373501	-1.159654	-1.713235
H	0.456318	-1.05742	-3.085578
C	-0.480333	-1.210939	0.656848
N	-0.866844	-2.1505	1.246311
C	-0.504459	1.255566	0.699146
H	-0.174448	1.254285	1.739372
H	-1.594875	1.319782	0.670073
H	-0.078326	2.137332	0.213344
Br	3.459514	0.0	0.0
