15

C	-0.468208	-0.04244	-1.459601
C	0.0	0.0	0.0
Br	0.006518	1.612202	-2.395156
H	1.095139	0.0	0.0
H	0.123351	-0.800294	-1.984185
N	-1.905671	-0.204238	-1.559621
H	-2.162704	-1.067997	-1.091244
H	-2.170181	-0.283829	-2.534673
C	-0.444052	-1.259814	0.601906
N	-0.862667	-2.267266	1.04037
C	-0.524652	1.186349	0.808188
H	-0.059152	2.101487	0.443455
H	-1.609435	1.272555	0.723407
H	-0.247614	1.062769	1.856664
Br	3.504272	0.0	0.0
