15

C	-0.38363	0.113506	-1.477044
C	0.0	0.0	0.0
Br	-0.164017	-1.700457	-2.394007
H	1.097157	0.0	0.0
H	-1.449102	0.287838	-1.619479
N	0.386753	1.13391	-2.064362
H	1.376167	0.987324	-1.882704
H	0.219694	1.211632	-3.055377
C	-0.541426	-1.185783	0.647543
N	-1.026981	-2.077329	1.238428
C	-0.457361	1.254004	0.759248
H	-0.006508	2.133175	0.301851
H	-0.128177	1.191406	1.798255
H	-1.547553	1.353439	0.741393
Br	3.484876	0.0	0.0
