15

C	-0.561845	0.005384	-1.42124
C	0.0	0.0	0.0
Br	0.189095	-1.467985	-2.457953
H	1.094873	0.0	0.0
H	-1.636597	-0.224621	-1.383243
N	-0.25115	1.252989	-2.097329
H	-0.913139	1.959707	-1.794335
H	-0.352823	1.13558	-3.097895
C	-0.490979	-1.182174	0.707582
N	-0.928135	-2.091801	1.30917
C	-0.437731	1.263368	0.754346
H	0.042398	2.128886	0.297108
H	-1.526929	1.388811	0.75272
H	-0.097552	1.203355	1.788993
Br	3.551535	0.0	0.0
