15

C	-0.563781	0.000983	-1.420329
C	0.0	0.0	0.0
Br	0.195007	-1.469094	-2.456108
H	1.094819	0.0	0.0
H	-1.637297	-0.233773	-1.382417
N	-0.256203	1.247359	-2.098315
H	-0.37435	1.130367	-3.097488
H	-0.909883	1.957374	-1.784061
C	-0.493156	-1.18185	0.707547
N	-0.957135	-2.102938	1.270457
C	-0.43599	1.265208	0.752509
H	0.041366	2.130611	0.291554
H	-0.089766	1.208371	1.784829
H	-1.525081	1.389708	0.756046
Br	3.542001	0.0	0.0
