15

C	-0.497371	-0.020657	-1.445126
C	0.0	0.0	0.0
Br	0.283846	1.563301	-2.427404
H	1.094165	0.0	0.0
H	-0.047858	-0.861904	-1.972483
N	-1.912365	-0.076997	-1.543292
H	-2.205692	-0.161441	-2.50774
H	-2.334997	0.755747	-1.152436
C	-0.442114	-1.251318	0.622569
N	-0.809275	-2.242193	1.135898
C	-0.482675	1.191246	0.829608
H	-0.014766	1.144984	1.814164
H	-0.170306	2.121208	0.353586
H	-1.568162	1.190196	0.967103
Br	3.512603	0.0	0.0
