14

C	0.0	0.0	0.0
C	-0.200835	-0.340276	-1.485465
Br	1.944615	0.0	0.0
H	0.115709	-1.369804	-1.63665
H	0.407524	0.348296	-2.069455
C	-0.506056	1.285483	0.417173
N	-0.608009	2.420748	0.732471
N	-0.395911	-1.080476	0.951501
O	-0.49114	-0.760879	2.135622
O	-0.378028	-2.235029	0.520024
N	-1.567543	-0.223098	-2.07989
O	-1.914046	0.900671	-2.439687
O	-2.183424	-1.262663	-2.308569
H	-1.86554	0.0	0.0
