14

C	0.0	0.0	0.0
C	-0.375423	-0.025502	-1.501129
Br	1.935256	0.0	0.0
H	0.479082	-0.385479	-2.082513
H	-1.241579	-0.643108	-1.683776
C	-0.503099	1.091026	0.808508
N	-0.594734	2.024926	1.527769
N	-0.4422	-1.306486	0.600795
O	-0.483934	-1.375412	1.830132
O	-0.432448	-2.278655	-0.167832
N	-0.683403	1.323515	-2.046564
O	-1.543909	1.374804	-2.926551
O	-0.012194	2.275494	-1.655538
H	-2.02548	0.0	0.0
