14

C	0.0	0.0	0.0
C	-0.339411	-0.030939	-1.518637
Br	1.936795	0.0	0.0
H	0.440526	-0.574055	-2.04886
H	-1.318851	-0.464075	-1.674017
C	-0.474001	1.162156	0.725316
N	-0.565857	2.180686	1.315743
N	-0.543349	-1.244785	0.612544
O	-0.565867	-1.293752	1.85131
O	-0.531681	-2.242771	-0.137069
N	-0.37569	1.348346	-2.084265
O	0.694022	1.860497	-2.413428
O	-1.478619	1.884103	-2.19664
H	-2.00391	0.0	0.0
