15

C	0.0	0.0	0.0
C	-0.36399	-0.287206	-1.48249
Cl	1.826987	0.0	0.0
H	0.384959	0.224297	-2.085809
H	-0.194422	-1.363609	-1.593005
N	-0.281983	1.501402	0.318604
O	-0.560977	1.77305	1.480968
O	-0.166692	2.307467	-0.597099
N	-0.587631	-0.858595	0.922069
H	-0.486455	-0.496311	1.863268
H	-1.587135	-0.916978	0.711768
N	-1.657619	0.065055	-1.985682
H	-2.436506	-0.324254	-1.460973
H	-1.782085	1.068034	-1.961871
Br	-4.267545	0.0	0.0
