15

C	0.0	0.0	0.0
C	-0.555191	0.170694	-1.425351
Cl	1.76606	0.0	0.0
H	0.153548	0.735267	-2.030784
H	-1.482676	0.73781	-1.326374
N	-0.349813	1.282808	0.776941
O	-0.216196	2.328855	0.146749
O	-0.677171	1.187717	1.949025
N	-0.482393	-1.110664	0.737432
H	-1.482625	-0.949045	0.891032
H	-0.405281	-1.901289	0.102663
N	-0.797042	-1.156351	-1.99094
H	-1.777982	-1.362993	-1.822487
H	-0.655088	-1.128037	-2.990469
Br	-3.730317	0.0	0.0
