14
Coordinates from ORCA-job run
  C   -0.55690411440178      0.80694221728217     -0.15967621729555
  C   0.25207737787718     -0.49145871548898     -0.12197551089038
  Cl  -0.39733283276813      1.69044050012023      1.38332530188336
  H   0.07962429782890     -0.98019096482452     -1.09113987889526
  H   -0.09800906120828      1.46422097907051     -0.91041293318310
  N   -1.95173023737129      0.51144613720261     -0.36970683987724
  H   -2.07448299479395      0.05537914173252     -1.26698396606814
  H   -2.49971280413049      1.36301507487319     -0.36371567479010
  C   -0.25998978977278     -1.39356079781603      0.91142272677505
  N   -0.63650074401240     -2.15773472507318      1.71845976008413
  C   1.75550838925538     -0.25982043464285      0.04012624617968
  H   1.97596334588548      0.17808395740625      1.01322218957235
  H   2.29439765859407     -1.20452662068240     -0.04497908793439
  H   2.11709150901810      0.41576425084049     -0.73896611556042
