14
Coordinates from ORCA-job run
  C   -0.64779418545103      0.62541789408578     -0.64174772985991
  C   0.41916386442874     -0.46787081702609     -0.46550926403491
  Cl  0.12747384673272      2.11152407651696     -1.26758900717194
  H   0.89647771712265     -0.61565863798580     -1.44007936269385
  H   -1.33276050330835      0.31755611398727     -1.44137512542953
  N   -1.27730625205640      0.92539478014770      0.61991694615298
  H   -1.95324819977468      1.67043409264881      0.50293600612217
  H   -1.76869901669038      0.10193494841927      0.95379651700686
  C   -0.28233891843607     -1.70789169765249     -0.11880571454696
  N   -0.87959603153399     -2.67193571471077      0.18688617677361
  C   1.47836488095574     -0.13495553078053      0.58729989268879
  H   1.01215694223319      0.03047826590437      1.55684166599919
  H   2.19469002837633     -0.95429354222962      0.66689166748743
  H   2.01341582740153      0.76986576867515      0.30053733150608
