14
Coordinates from ORCA-job run
  C   -0.52914136295088      0.80376842202865     -0.28550015901556
  C   0.31632379375184     -0.47078188802005     -0.21212668345662
  Cl  -0.46039734293476      1.65887515851801      1.33684579858112
  H   0.27750329399965     -0.88704479923538     -1.22569088582559
  H   -0.04882783086433      1.50078567930337     -0.97380077326175
  N   -1.84049627857818      0.51727054653800     -0.73413706397413
  H   -2.37686275024951      1.36266500621244     -0.87795140375710
  H   -2.33617217294188     -0.07639705060634     -0.07905525500570
  C   -0.32841074492185     -1.44120392799736      0.67540599068690
  N   -0.86065552398702     -2.21119058233186      1.38409241136442
  C   1.77419012788832     -0.23344372228484      0.18153969625531
  H   2.34551045092894     -1.15685147725306      0.07414758830141
  H   1.85291555504930      0.10890908565306      1.21223016838796
  H   2.21452078581036      0.52263954947536     -0.47299942928069
