14
Coordinates from ORCA-job run
  C   -0.93038203497075      0.33064911335525     -0.26253500600120
  C   0.43261459400119     -0.36313507356314     -0.36355041083692
  Cl  -1.68952192861844      0.32466408076938     -1.92925902323389
  H   1.03002239092731      0.18420598296194     -1.10335099329272
  H   -1.60739312885215     -0.26686166218852      0.34963592546552
  N   -0.79704725621372      1.62675694288015      0.29829392476085
  H   -1.70171853954348      2.04701163429863      0.46692338388318
  H   -0.27003111280518      2.23592910186723     -0.31668822225703
  C   0.26664856996207     -1.73049320362463     -0.86071039314386
  N   0.11441675877845     -2.83571677995960     -1.22541730525401
  C   1.15735524220699     -0.38222403239825      0.98672399825504
  H   1.34024924698350      0.63440996600890      1.32900469040833
  H   2.10673716612078     -0.91271611513457      0.89590741066694
  H   0.54905003202343     -0.89347995527278      1.73602202057976
