14
Coordinates from ORCA-job run
  C   -0.74870646385009      0.45363797445388     -0.68583104814944
  C   0.42680509737641     -0.50149984422593     -0.43853560529455
  Cl  -0.06325388864003      1.94874718712557     -1.51988140863548
  H   0.98273878097985     -0.58837606370119     -1.37726835365503
  H   -1.41732028421570      0.02600351546852     -1.43251873022706
  N   -1.47110470761352      0.72430972477997      0.49596204288866
  H   -2.33974840307993      1.20467084290546      0.30503074638815
  H   -0.93327403741580      1.26678438083818      1.15871648296875
  C   -0.11706200415783     -1.82575404916890     -0.12272587122519
  N   -0.53987607046644     -2.89194974964971      0.12711169042468
  C   1.37433918528006     -0.03476505682784      0.66867345367381
  H   0.87499431076148     -0.04932920530758      1.63869398192099
  H   2.23388667756541     -0.70369622141318      0.72865274817088
  H   1.73658180747613      0.97221656472276      0.45691987075084
