14
Coordinates from ORCA-job run
  C   -0.55358618497820      0.84400593840086     -0.33480636354176
  C   0.25474867656923     -0.45011602630983     -0.10322880202368
  Cl  -0.23589462525321      1.98142995152468      1.00904790299716
  H   0.04967377917783     -1.07595303124501     -0.98232718807227
  H   -0.16450095788333      1.31989570594884     -1.23883150612073
  N   -1.97209729126967      0.68521795270542     -0.47649223518143
  H   -2.36633306791675      0.20138565052988      0.32220293927048
  H   -2.19047379896460      0.17496843968661     -1.32357322811230
  C   -0.27875482057076     -1.16363916021646      1.05817204460489
  N   -0.72712907948972     -1.72533513114266      1.98662225766979
  C   1.76504120415467     -0.23760917319988      0.00597862552381
  H   2.11824808410269      0.34492988512336     -0.84862604325634
  H   2.01717365502136      0.29888961931944      0.91950855663370
  H   2.28488442730045     -1.19707062112526      0.00835303960870
