14
Coordinates from ORCA-job run
  C   -0.89523576851679      0.39675810277141     -0.54147319925277
  C   0.44970131206841     -0.33682985864569     -0.35487555100032
  Cl  -1.20730994675684      0.52102754516126     -2.30400619878680
  H   1.20757155248959      0.22391613768266     -0.91535679593104
  H   -1.69866200237706     -0.21913428887016     -0.12999930281351
  N   -0.97791283098446      1.70065702256168      0.04275853244668
  H   -1.10114202055128      1.65312687524213      1.04453397559421
  H   -0.17608966690375      2.27371635590112     -0.18796718934541
  C   0.38190417613881     -1.68442879907282     -0.92258990664494
  N   0.32155125547408     -2.78544933712753     -1.32602489520069
  C   0.84724356292987     -0.41854495600652      1.12213295585927
  H   1.76906246803349     -0.99030426525087      1.23746119790831
  H   0.06690427803077     -0.91554170390457      1.70422164320783
  H   1.01241363092515      0.57903116955789      1.53018473395919
