14
Coordinates from ORCA-job run
  C   -0.94553285637581      0.32509154110792     -0.22635588321994
  C   0.41843304165861     -0.35646618264861     -0.38049716490043
  Cl  -1.76914830369825      0.30972616065825     -1.86254515627729
  H   0.98395060897734      0.20278269498079     -1.13627748865157
  H   -1.59289590562554     -0.27776864466487      0.41213718909804
  N   -0.80173079510847      1.62284097009084      0.32750367735013
  H   -1.70235448536332      2.03652188115774      0.53068655104963
  H   -0.30323607779968      2.23538508537722     -0.30748873819352
  C   0.25095056402254     -1.72225231319149     -0.88142295615887
  N   0.14332419801030     -2.83746531947021     -1.23136000041376
  C   1.19021607787027     -0.37815957686662      0.94339305659893
  H   0.61282935880960     -0.89969204891565      1.71006304564717
  H   2.14026238187215     -0.89979135645245      0.81575065210658
  H   1.37593219275025      0.63824710883715      1.28541321596490
