14
Coordinates from ORCA-job run
  C   -0.53944146192898      0.79302048122889     -0.29661149870198
  C   0.32462523079786     -0.46775347410518     -0.20590456547173
  Cl  -0.49262873947967      1.66521205859712      1.31738439338612
  H   0.29827526023572     -0.89469052830688     -1.21547790312995
  H   -0.06572794718403      1.49028299092336     -0.98925566276978
  N   -1.84379883825008      0.48249246809691     -0.74964350880319
  H   -2.39194419144302      1.31830938684179     -0.90453917480115
  H   -2.33423035485575     -0.11251536022638     -0.09171711977278
  C   -0.31083339323910     -1.43961050441007      0.68679678574369
  N   -0.83547833940783     -2.21124736025787      1.39936816846436
  C   1.77631673763579     -0.20482704162008      0.19418539705741
  H   2.20894614891691      0.55276116075798     -0.46368034110618
  H   1.84360460181775      0.14675870228757      1.22255739480612
  H   2.36231528638443     -1.12019297980718      0.09753763509905
