14
Coordinates from ORCA-job run
  C   -0.94822327651284      0.39269037638657     -0.43926183073750
  C   0.40340798717582     -0.35189551328958     -0.39705587332354
  Cl  -1.46535849583256      0.48530783071438     -2.15412074387010
  H   1.09295018586141      0.18214486440826     -1.06204568313734
  H   -1.70173187576016     -0.20663211247860      0.07751781587519
  N   -0.95246820032943      1.70937125125938      0.12189670726014
  H   -0.94079872290149      1.68327513033475      1.13212337208193
  H   -0.18714399886157      2.27349613063839     -0.22514813696593
  C   0.24958265929838     -1.71283687386100     -0.91366046187991
  N   0.09875624540533     -2.81453095641697     -1.29057884029075
  C   0.97821333753557     -0.39890413634127      1.02194909754733
  H   1.90187398993191     -0.97903583716828      1.03971982871509
  H   1.20215613227943      0.60713447174142      1.37812391852101
  H   0.27078403271018     -0.86958462592745      1.70954083020439
