14
Coordinates from ORCA-job run
  C   -0.71025971617337      0.60102727447685     -0.72808684721194
  C   0.39889815248033     -0.45088922143572     -0.47594347216889
  Cl  0.06997832622745      2.05782759703128     -1.42520937091547
  H   0.92233686462074     -0.61695810938296     -1.42386467283953
  H   -1.37361362423499      0.21852634439699     -1.50621448401772
  N   -1.51406112372808      0.98121737199788      0.39283960989273
  H   -0.95590801577743      1.29847311240218      1.17371356029522
  H   -2.11589734057837      0.21977090475792      0.68019183579100
  C   -0.27489847920405     -1.69840922936682     -0.10576300530645
  N   -0.85869682923179     -2.66607646683155      0.21438433433971
  C   1.41099773266440     -0.05496773557381      0.60038486800853
  H   1.89527626039409      0.88534743688322      0.33703653660755
  H   0.92913297367169      0.05044718407831      1.57394329029679
  H   2.17771481886936     -0.82533646343380      0.69358781722848
