14
Coordinates from ORCA-job run
  C   -0.64984030303817      0.61088229743661     -0.65790668063298
  C   0.41450694106739     -0.48012323131596     -0.45441551744684
  Cl  0.12825175612632      2.07803740419351     -1.32367069679522
  H   0.88842298424947     -0.65599889257498     -1.42602733763792
  H   -1.33651884206677      0.28420256260612     -1.44825237281415
  N   -1.27686647649463      0.94572632568836      0.59599668519724
  H   -1.76454916317360      0.13111831079694      0.95561456955281
  H   -1.95550147504686      1.68490039807599      0.45919107455795
  C   -0.28674584730827     -1.70948287426495     -0.07070221716254
  N   -0.85961133852681     -2.67477212711409      0.27529332361275
  C   1.47772112336799     -0.12108655384747      0.58580757393999
  H   2.18511549033622     -0.94472935887832      0.69492200311433
  H   2.02226427761825      0.76714307831986      0.26637247379837
  H   1.01335087288947      0.08418266087837      1.54877711871621
