16

C	0.0	0.0	0.0
C	-0.542232	-0.096702	-1.440769
Cl	1.793047	0.0	0.0
H	-1.651459	-0.085549	-1.200509
C	-0.371199	1.324693	0.546093
N	-0.559596	2.389977	1.003756
N	-0.51795	-1.009242	0.874368
H	-1.552286	-0.844016	0.804384
H	-0.319423	-1.915171	0.455417
C	-0.194881	-1.389052	-2.006034
N	0.063535	-2.433857	-2.481501
C	-0.17213	1.053155	-2.36957
H	-0.649829	0.912113	-3.342409
H	-0.538221	1.991054	-1.945953
H	0.907836	1.125727	-2.516441
H	-2.894457	0.0	0.0
