16

C	0.0	0.0	0.0
C	-0.3199	-0.027344	-1.538374
Cl	1.791781	0.0	0.0
H	0.301409	0.769968	-1.97046
C	-0.491205	1.271697	0.573295
N	-0.549109	2.328575	1.092535
N	-0.396988	-1.207611	0.672478
H	-0.063177	-1.154656	1.635958
H	-1.428282	-1.09904	0.669627
C	-1.707889	0.281592	-1.957665
N	-2.493407	0.54482	-2.808107
C	0.065657	-1.359339	-2.191111
H	1.122807	-1.583915	-2.046162
H	-0.141958	-1.292619	-3.262396
H	-0.526688	-2.166355	-1.761521
H	-2.453981	0.0	0.0
