16

C	0.0	0.0	0.0
C	-0.417008	0.033421	-1.493077
Cl	1.848106	0.0	0.0
H	0.392888	0.549211	-2.021729
C	-0.303797	1.303445	0.640526
N	-0.409806	2.324453	1.216818
N	-0.517126	-1.13016	0.682176
H	-1.562641	-0.926457	0.5473
H	-0.312532	-1.025272	1.67381
C	-1.620378	0.844095	-1.781083
N	-2.259038	1.607561	-2.420996
C	-0.57051	-1.371932	-2.067862
H	-1.460101	-1.839977	-1.646387
H	-0.6787	-1.302858	-3.153885
H	0.302083	-1.982233	-1.826521
H	-2.651792	0.0	0.0
