16

C	0.0	0.0	0.0
C	-0.5155	0.368672	-1.393449
Br	1.969092	0.0	0.0
H	-1.616272	0.358182	-1.322445
H	-0.197122	1.381	-1.659806
C	-0.474296	1.048754	0.992797
H	-1.569475	1.048718	0.979599
H	-0.101715	2.040944	0.726085
H	-0.125859	0.804024	1.998278
C	-0.469072	-1.389701	0.397663
H	-0.115425	-2.14206	-0.309916
H	-1.564496	-1.379994	0.406108
H	-0.100461	-1.644454	1.393763
C	-0.088615	-0.550663	-2.443117
N	0.261688	-1.289381	-3.285662
Br	-3.963762	0.0	0.0
