16

C	0.0	0.0	0.0
C	-0.515181	-0.370721	-1.392989
Br	1.969093	0.0	0.0
H	-0.195562	-1.382615	-1.659794
H	-1.615602	-0.361563	-1.320439
C	-0.468578	1.389849	0.396044
H	-0.103161	1.643057	1.393758
H	-0.112133	2.14372	-0.308774
H	-1.563799	1.380128	0.401218
C	-0.473649	-1.047136	0.994567
H	-1.568921	-1.043522	0.983648
H	-0.104716	-2.040435	0.725908
H	-0.121685	-0.804819	1.999724
C	-0.088886	0.548495	-2.443778
N	0.262437	1.284448	-3.288426
Br	-3.961674	0.0	0.0
