16

C	0.0	0.0	0.0
C	-0.513461	-0.261098	-1.418486
Br	1.969069	0.0	0.0
H	-0.196589	-1.251768	-1.759585
H	-1.614532	-0.252957	-1.348739
C	-0.468089	1.356374	0.501831
H	-1.563931	1.34829	0.50606
H	-0.101699	1.532559	1.516072
H	-0.11052	2.161141	-0.144274
C	-0.473709	-1.121544	0.910825
H	-0.120926	-0.957112	1.931546
H	-1.569298	-1.117983	0.901274
H	-0.103843	-2.090995	0.565761
C	-0.080281	0.731118	-2.39774
N	0.267197	1.520429	-3.194569
Br	-3.955055	0.0	0.0
