16

C	0.0	0.0	0.0
C	-0.511253	0.251207	-1.423494
Br	1.96907	0.0	0.0
H	-0.20727	1.244673	-1.763736
H	-1.61023	0.226656	-1.356219
C	-0.471545	1.123423	0.908114
H	-1.566059	1.141585	0.882049
H	-0.141299	0.942473	1.933099
H	-0.076149	2.088147	0.581421
C	-0.464833	-1.355117	0.506805
H	-0.128762	-2.158305	-0.152019
H	-0.074757	-1.541672	1.509331
H	-1.558871	-1.341012	0.536783
C	-0.062298	-0.746755	-2.390768
N	0.28356	-1.553635	-3.171574
Br	-3.965215	0.0	0.0
