16

C	0.0	0.0	0.0
C	-0.307425	0.011287	-1.523005
Br	1.969105	0.0	0.0
H	0.244469	0.845291	-1.977719
H	-1.364151	0.15852	-1.729059
C	-0.286272	1.33855	0.711907
H	0.193922	2.146749	0.148045
H	-1.331738	1.583911	0.84598
H	0.191355	1.307486	1.696672
C	-0.287608	-1.303062	0.774161
H	0.157082	-1.204476	1.77033
H	-1.332027	-1.560532	0.892628
H	0.219103	-2.134913	0.274952
C	0.068621	-1.228959	-2.200552
N	0.245636	-2.239153	-2.774666
Br	-3.006561	0.0	0.0
