16

C	0.0	0.0	0.0
C	-0.340796	0.000297	-1.559543
Br	1.969106	0.0	0.0
H	-1.451293	-0.112944	-1.681626
H	0.033231	-0.89614	-2.01123
C	-0.362223	1.325873	0.792666
H	-0.061478	1.224784	1.818461
H	-1.447401	1.475187	0.85093
H	-0.017692	2.192334	0.264214
C	-0.35506	-1.3663	0.728446
H	-0.024036	-1.331107	1.748396
H	-1.437773	-1.508992	0.805496
H	-0.028068	-2.20237	0.139078
C	-0.033099	1.216762	-2.213879
N	0.160406	2.233003	-2.77052
Br	-2.205762	0.0	0.0
