15

C	-0.615625	-0.015458	-1.393515
C	0.0	0.0	0.0
Br	0.119782	-1.469408	-2.468071
H	1.093194	0.0	0.0
C	-2.066017	-0.155337	-1.36478
N	-3.227464	-0.31578	-1.263001
N	-0.273309	1.316024	-2.075516
O	-1.215496	2.063978	-2.314914
O	0.905852	1.52439	-2.294783
C	-0.439022	-1.173658	0.740105
N	-0.77503	-2.098116	1.386924
N	-0.314841	1.267522	0.635139
H	-1.070945	1.199869	1.303372
H	0.538433	1.574195	1.100435
H	2.538134	0.0	0.0
