15

C	-0.449113	0.008333	-1.442391
C	0.0	0.0	0.0
Br	0.232138	1.581295	-2.361822
H	1.095967	0.0	0.0
C	-0.003458	-1.180312	-2.160044
N	0.354506	-2.142167	-2.734252
N	-1.991607	0.062901	-1.611173
O	-2.650311	0.296424	-0.605585
O	-2.433118	-0.129185	-2.736806
C	-0.452	-1.226146	0.642244
N	-0.812002	-2.196761	1.203441
N	-0.326407	1.219687	0.704519
H	0.484593	1.453625	1.2718
H	-1.149966	1.121179	1.280158
H	2.535447	0.0	0.0
