15

C	-0.488893	0.084629	-1.416954
C	0.0	0.0	0.0
Br	-2.480522	0.046642	-1.599993
H	1.094573	0.0	0.0
C	-0.046294	1.314725	-2.055259
N	0.276696	2.304989	-2.599651
N	0.068551	-1.111082	-2.192579
O	-0.440129	-2.200953	-1.968843
O	1.037554	-0.882117	-2.907211
C	-0.462183	-1.187861	0.694752
N	-0.814084	-2.098284	1.352938
N	-0.284828	1.242087	0.695441
H	0.566835	1.499699	1.191617
H	-1.054534	1.147898	1.345032
H	2.47657	0.0	0.0
