15

C	-0.589109	0.000112	-1.405837
C	0.0	0.0	0.0
Br	0.12912	-1.471828	-2.465586
H	1.093227	0.0	0.0
C	-2.042627	-0.092712	-1.410381
N	-3.212156	-0.202549	-1.337365
N	-0.189343	1.318885	-2.08754
O	-1.105432	2.061664	-2.422797
O	1.00372	1.518066	-2.219524
C	-0.457532	-1.175962	0.723519
N	-0.825401	-2.102488	1.350088
N	-0.327552	1.265655	0.633587
H	0.521823	1.583886	1.097779
H	-1.080532	1.18893	1.303322
H	2.544641	0.0	0.0
