15

C	-0.607486	-0.011087	-1.397449
C	0.0	0.0	0.0
Br	0.120823	-1.472916	-2.468276
H	1.093222	0.0	0.0
C	-2.058536	-0.128727	-1.380547
N	-3.225137	-0.256249	-1.293843
N	-0.239388	1.310781	-2.087086
O	0.94934	1.546288	-2.19969
O	-1.17287	2.016575	-2.454148
C	-0.447055	-1.172497	0.735759
N	-0.807154	-2.098021	1.368079
N	-0.32666	1.267862	0.627902
H	-1.062206	1.189368	1.319523
H	0.5301	1.598441	1.071774
H	2.542887	0.0	0.0
