15

C	-0.601235	0.011274	-1.400678
C	0.0	0.0	0.0
Br	0.112262	-1.450377	-2.484249
H	1.093153	0.0	0.0
C	-2.054819	-0.084733	-1.392308
N	-3.22608	-0.185846	-1.327768
N	-0.208094	1.335802	-2.072246
O	-1.125959	2.059364	-2.449255
O	0.98664	1.552776	-2.164536
C	-0.454008	-1.177573	0.721338
N	-0.820827	-2.111145	1.337762
N	-0.321606	1.264294	0.640571
H	0.536969	1.58383	1.086327
H	-1.060346	1.185775	1.32582
H	2.543245	0.0	0.0
