15

C	-0.614436	-0.00964	-1.393197
C	0.0	0.0	0.0
Br	0.123201	-1.45395	-2.480046
H	1.093163	0.0	0.0
C	-2.063893	-0.144231	-1.369887
N	-3.229382	-0.281439	-1.281947
N	-0.267226	1.322647	-2.073804
O	-1.208207	2.004799	-2.461486
O	0.915887	1.586831	-2.161509
C	-0.441718	-1.176323	0.733053
N	-0.797003	-2.10951	1.356806
N	-0.328847	1.265053	0.636254
H	-1.053877	1.177858	1.331932
H	0.529015	1.596959	1.070504
H	2.541358	0.0	0.0
