14
Coordinates from ORCA-job run
  C   -0.16924627865995      0.57239437340857     -0.25160331298720
  C   0.99107058337895     -0.32236499668106      0.17769793358236
  F   -0.19305697239485      0.56078182787253     -1.65110612216850
  H   1.04421685157048     -0.31409399554623      1.26979072419291
  H   1.91592105466619      0.13049051228755     -0.20645919083329
  C   0.10286849292821      1.95843389240255      0.17229077932570
  N   0.32797396400969      3.04853303912735      0.54498111577983
  C   -1.52124362213157      0.10873325642706      0.24787623313150
  H   -2.30416191216429      0.73943692056270     -0.17527819123700
  H   -1.66704668997835     -0.92590801163369     -0.05723706414525
  H   -1.56424537168830      0.17192095715758      1.33704049839787
  N   0.74595291191648     -1.68070225904594     -0.28354165735822
  H   0.89679116335257     -1.72782454525706     -1.28288179529655
  H   1.39420582519474     -2.31883097108191      0.15843004961583
