14
Coordinates from ORCA-job run
  C   -0.20485512757504      0.56950018699223     -0.23175998181803
  C   1.00968589597846     -0.30067078121857      0.08313253107501
  F   -0.35837681334027      0.56224155295040     -1.62309586735342
  H   1.88453864803522      0.17410867887391     -0.38308062160492
  H   1.16396347190336     -0.29431919607973      1.16564740279192
  C   0.07673294460575      1.95963578465220      0.17203539220412
  N   0.31372610520813      3.05224193080920      0.52951110385357
  C   -1.49395518682487      0.07411394237918      0.38846653530976
  H   -1.64641706484727     -0.96138059715134      0.08921651636343
  H   -1.43519660086142      0.12844253263586      1.47741496167420
  H   -2.32646515779640      0.69066137041121      0.04676755098886
  N   0.75250586743400     -1.66279523426977     -0.35999698605285
  H   0.80923764353132     -1.70353564796293     -1.36953314480985
  H   1.45387537454903     -2.28724452302184      0.01527460737820
