14
Coordinates from ORCA-job run
  C   -0.33435575861078      0.47898194729919     -0.47629336631240
  C   0.68352086301388     -0.65787748360118     -0.56047980617759
  F   -0.71704111016921      0.78490926585845     -1.78138611075450
  H   0.15195641738548     -1.53051644272393     -0.94963954482611
  H   1.43997916927690     -0.36852716769311     -1.30253046752038
  C   0.32955742595215      1.67118391862100      0.08623442290338
  N   0.89283742875474      2.58827051824582      0.55530089774031
  C   -1.56732645781264      0.11962113193639      0.32345487351313
  H   -2.06204061992111     -0.72539883147178     -0.16045576050152
  H   -2.25753123954832      0.96374530759065      0.35368807651214
  H   -1.27947279207122     -0.16249371002858      1.33522004595411
  N   1.19848222534490     -0.95438643393732      0.76839928739391
  H   1.94555506825182     -0.31402268146420      1.00727328294343
  H   1.57587938015341     -1.89148933863140      0.80021416913210
