14
Coordinates from ORCA-job run
  C   -0.25554682870991      0.44149101225109     -0.14794792055700
  C   0.55509895633647     -0.83384036140818      0.02112742501153
  F   0.07859278301491      0.97189518273559     -1.40012629162321
  H   0.32186629292390     -1.26355350971175      0.99926345478997
  H   0.20203258128313     -1.53517329933289     -0.75063817114562
  C   0.12937828795844      1.43483245198027      0.87057887824811
  N   0.36172635640268      2.22231253882506      1.70882556330647
  C   -1.75316426402124      0.20755220110627     -0.12769338820481
  H   -2.06930796628535     -0.17614355249850      0.84401915907326
  H   -2.27566102629806      1.14429317637026     -0.32451671649992
  H   -2.01609786310440     -0.51322614175865     -0.90417314536973
  N   1.97151413268263     -0.51913456997068     -0.03708814409520
  H   2.52540041107972     -1.32204832711363      0.22898011889943
  H   2.22416814673707     -0.26025680147424     -0.98161082183329
