14
Coordinates from ORCA-job run
  C   -0.27376580282544      0.41698960985044     -0.18361844367762
  C   0.55305033920239     -0.83095973316514      0.08353750835228
  F   -0.11376004755681      0.72722886036688     -1.53990534078752
  H   0.45491159721934     -1.08929371228970      1.14158719065243
  H   0.09834949284339     -1.64122744729118     -0.50707828535848
  C   0.24632216415431      1.55541679341701      0.59457833331495
  N   0.59066051057775      2.46474822754449      1.25138293547378
  C   -1.75446846275646      0.22263258610974      0.07645522494192
  H   -1.93521071427702      0.01308406086292      1.13227698125192
  H   -2.29979219973534      1.12477904273521     -0.20276348299022
  H   -2.12006538575810     -0.61127080700307     -0.52562796550870
  N   1.94799980934469     -0.56167634661100     -0.21526450616865
  H   2.53472478958376     -1.31824687445738      0.10930460502980
  H   2.07204390998354     -0.47120426006922     -1.21486475452588
