12

C	0.0	0.0	0.0
C	-0.510672	0.124743	-1.448593
Cl	1.773174	0.0	0.0
H	-1.624135	0.141131	-1.324901
H	-0.376517	-0.932127	0.420643
C	-0.429661	1.133478	0.821199
N	-0.597937	2.057813	1.526289
C	-0.110904	-1.040455	-2.234371
N	0.199499	-1.975433	-2.874012
C	-0.0302	1.349028	-2.084368
N	0.361717	2.327363	-2.603036
Cl	-3.236007	0.0	0.0
