12

C	0.0	0.0	0.0
C	-0.553279	0.148845	-1.427282
Cl	1.773266	0.0	0.0
H	-1.667078	0.142943	-1.25692
H	-0.365661	-0.942651	0.408229
C	-0.428984	1.109585	0.854962
N	-0.600202	2.019707	1.577492
C	-0.174712	-0.994026	-2.2525
N	0.109984	-1.921525	-2.914892
C	-0.134934	1.399679	-2.051577
N	0.190101	2.407318	-2.560252
Cl	-3.284011	0.0	0.0
