12

C	0.0	0.0	0.0
C	-0.518059	0.150901	-1.441955
Cl	1.773222	0.0	0.0
H	-1.632085	0.144796	-1.309381
H	-0.376288	-0.939799	0.403698
C	-0.427781	1.118255	0.84369
N	-0.57402	2.040217	1.55638
C	-0.101814	-0.983588	-2.263061
N	0.218878	-1.892747	-2.933902
C	-0.069618	1.400797	-2.04943
N	0.289871	2.401101	-2.549437
Cl	-3.235796	0.0	0.0
