12

C	0.0	0.0	0.0
C	-0.445917	0.325201	-1.470417
Cl	1.77677	0.0	0.0
H	0.479536	0.482688	-2.039541
H	-0.362692	-0.981275	0.293646
C	-0.415205	1.005436	0.976162
N	-0.504558	1.842299	1.796709
C	-1.193176	1.573975	-1.6388
N	-1.559092	2.654821	-1.920707
C	-1.086614	-0.828194	-2.106154
N	-1.381257	-1.778819	-2.729627
Cl	-2.949734	0.0	0.0
