12

C	0.0	0.0	0.0
C	-0.453774	0.193711	-1.487842
Cl	1.776666	0.0	0.0
H	0.46947	0.28551	-2.076921
H	-0.35618	-0.954287	0.378505
C	-0.416169	1.087231	0.884325
N	-0.510525	1.990842	1.630422
C	-1.189811	1.430403	-1.762745
N	-1.5484	2.484409	-2.140268
C	-1.114998	-1.003118	-2.012715
N	-1.430745	-1.994034	-2.558889
Cl	-2.974423	0.0	0.0
