12

C	0.0	0.0	0.0
C	-0.445383	-0.418277	-1.444771
Cl	1.776496	0.0	0.0
H	0.479341	-0.540848	-2.023823
H	-0.369462	-0.711051	0.732779
C	-0.40432	1.358179	0.366699
N	-0.491349	2.486052	0.6834
C	-1.209655	0.588039	-2.185023
N	-1.593618	1.38781	-2.9554
C	-1.071659	-1.742257	-1.453925
N	-1.372911	-2.874273	-1.538004
Cl	-2.952655	0.0	0.0
