12

C	0.0	0.0	0.0
C	-0.444363	0.332437	-1.469607
Cl	1.776441	0.0	0.0
H	0.481781	0.493167	-2.036915
H	-0.362763	-0.982354	0.290184
C	-0.415121	1.004332	0.978139
N	-0.502527	1.84111	1.799031
C	-1.192876	1.581308	-1.632579
N	-1.568962	2.6593	-1.911115
C	-1.084535	-0.815611	-2.115863
N	-1.379957	-1.758396	-2.7513
Cl	-2.945565	0.0	0.0
