15
Coordinates from ORCA-job run
  C   0.76319652250240     -0.10908950864581      0.01149369119838
  C   -0.56527513987832      0.01666252046194      0.01049619806219
  N   1.47219435689032     -1.38782640617132      0.10085818626204
  O   2.35043093736002     -1.42825661047032      0.95579989011542
  O   1.13504122698207     -2.27391818928507     -0.67438454617168
  N   1.68556425633174      1.01922587892670     -0.11731453707987
  O   2.61640374112203      0.84086864305292     -0.89723711088862
  O   1.45341240721937      2.02484811873222      0.54551100271352
  N   -1.35307619487966     -1.22885349076132      0.12947156984152
  O   -2.19836012276160     -1.40608097405350     -0.74104348345588
  O   -1.12281951335841     -1.94600339647154      1.09798520300826
  C   -1.39181485571731      1.24675323089047     -0.09216445116315
  H   -1.96247262543377      1.37455081550814      0.83245018982535
  H   -0.78385293026914      2.13338967668319     -0.24917166369974
  H   -2.09957206610973      1.12272969160331     -0.91375013856772
