15
Coordinates from ORCA-job run
  C   0.76749365071871      0.04301404336914     -0.04717625690802
  C   -0.55626932486918     -0.04088312449081      0.09967794515479
  N   1.71550557538339      0.19234352580288      1.05990629965666
  O   2.64567307637538     -0.60666964319855      1.04835633615296
  O   1.49988243020721      1.08521413540747      1.86974760147647
  N   1.44229698728396      0.03680224918373     -1.34537021314951
  O   1.07104479080792     -0.78301181753110     -2.17866175697975
  O   2.32827517406544      0.87687125153256     -1.47206512627826
  N   -1.07538147871932     -0.00025411373464      1.48386145701563
  O   -1.94103493626628      0.84080355198937      1.70057478091281
  O   -0.62858582323730     -0.82663919585315      2.27299515638339
  C   -1.60976253697099     -0.17372611186743     -0.93904330927694
  H   -2.35081386581211      0.61262199679927     -0.78540592273072
  H   -2.10889036992841     -1.14043443117355     -0.82369370516057
  H   -1.20043334903844     -0.11405231623519     -1.94370328626894
