15
Coordinates from ORCA-job run
  C   0.76959463555935      0.01112809646836     -0.02537018923322
  C   -0.56014360846887     -0.01972418847091      0.08319280339421
  N   1.69128046360448      0.07329979739742      1.11209224084349
  O   2.58375980883592     -0.76750009962114      1.09426390067769
  O   1.49374440623107      0.94435395857840      1.94988824455223
  N   1.48021946959558      0.02968620593021     -1.30406751495866
  O   2.40655052197604      0.83238907468738     -1.37002044497359
  O   1.09645185051088     -0.73604811671340     -2.18211903156170
  N   -1.11527705238529     -0.01459742910835      1.45376814422846
  O   -1.95404306110076      0.85001794585085      1.68322846467077
  O   -0.72250698522757     -0.88984101302058      2.21888975621983
  C   -1.58849012745782     -0.06412269809676     -0.98783483452847
  H   -1.14882564846578      0.02367223983792     -1.97747426938090
  H   -2.12773404832911     -1.01431908245199     -0.92999829938666
  H   -2.30258062487812      0.74360530873260     -0.81843897056348
