15
Coordinates from ORCA-job run
  C   0.74866036558622     -0.04936922986429      0.17814057876913
  C   -0.55585637079999     -0.02260486648013     -0.10130241856069
  N   1.46924975228737     -1.23479342787784      0.65022282848163
  O   2.16567351160949     -1.04997589033824      1.64246128187503
  O   1.31655997904726     -2.27411186041559      0.02076564672752
  N   1.63827201639398      1.09924598484778      0.00815092203806
  O   2.71072747478653      0.84757754583992     -0.53354128773071
  O   1.24474978498240      2.19094376136726      0.40547195767242
  N   -1.30738472491030     -1.27843941889587      0.10766076549768
  O   -1.94306901324466     -1.68261276432444     -0.85982913364892
  O   -1.26232033841084     -1.77599862493811      1.22826955962114
  C   -1.38723301849900      1.10379495980646     -0.59787505451730
  H   -2.13193008105147      1.36285370286610      0.16050836354321
  H   -1.91492190846783      0.77760565995491     -1.49592353930072
  H   -0.79017742930915      1.98588446845207     -0.81218047046749
