15
Coordinates from ORCA-job run
  C   0.76297328056049     -0.10640080532027      0.01153317275475
  C   -0.56605601995746      0.01282166781189     -0.00514203450927
  N   1.47839703718373     -1.34733297444315      0.31974591631804
  O   1.16228198096455     -1.93968312204625      1.34393073194461
  O   2.33937941626517     -1.65857122962458     -0.49604312110512
  N   1.68084942072618      1.00520048125475     -0.23734243410960
  O   1.42898561665833      1.75486479653982     -1.17491323893350
  O   2.62781446411017      1.07876768120166      0.54023507011144
  N   -1.34681545935011     -1.20855830519165      0.28733289263892
  O   -2.18045850781515     -1.10405559203394      1.18046510992979
  O   -1.12251322093462     -2.19458050115534     -0.40765659096629
  C   -1.39775845569311      1.21151630105731     -0.28461457208178
  H   -0.79433894188292      2.10778180671451     -0.39905675776556
  H   -2.11111355238111      1.33773038783756      0.53159410205489
  H   -1.96062705845416      1.05149940739767     -1.20906824628132
