15
Coordinates from ORCA-job run
  C   0.75603672929314     -0.11277858294618      0.08580822969637
  C   -0.56586928363662      0.02186505257257     -0.04023622181757
  N   1.70512554885798      0.98559909173389     -0.09467029792371
  O   2.70271807834756      0.70617636356741     -0.75303160622615
  O   1.42783327820715      2.06836709301091      0.41069531372604
  N   1.43501669512757     -1.37746504059055      0.37960240038948
  O   1.16628331101577     -2.33869166458970     -0.32990788226370
  O   2.22172254766383     -1.32978351899787      1.31894011853687
  N   -1.37868400483474     -1.19733236661832      0.15835613054308
  O   -2.16754567807917     -1.46263001797354     -0.74229191465298
  O   -1.22182433267952     -1.80838718886758      1.21091130544239
  C   -1.35924451604039      1.23909412030775     -0.34974916294503
  H   -1.95925856789506      1.51006711621075      0.52412715811004
  H   -0.72547036957345      2.08330616178834     -0.60711244370714
  H   -2.03783943577405      1.01159338139213     -1.17344112690800
