15
Coordinates from ORCA-job run
  C   0.76569946793908      0.05698312855764      0.06521104607743
  C   -0.56529824950182     -0.02258453155578      0.01490835244016
  N   1.63055478078100     -0.04407165951215     -1.11052205255519
  O   2.61036722413988     -0.77018864893711     -0.97043246710720
  O   1.30840872497886      0.58344800787838     -2.11390887148248
  N   1.53912119582729      0.21401741058614      1.29983537913396
  O   1.29143114381571     -0.55405352388033      2.22097388027534
  O   2.37215212790118      1.11345546451582      1.27211986844521
  N   -1.28746528155244      0.07583160623997      1.30158625224259
  O   -2.05940440483372     -0.84447364340159      1.54741514535345
  O   -1.08331030468241      1.07685136870095      1.98093024458464
  C   -1.45195238061754     -0.19404422322343     -1.16458621728851
  H   -0.88583812504177     -0.33648946147249     -2.08092406599988
  H   -2.07774900541975      0.69636537930849     -1.27594756792274
  H   -2.10571691373357     -1.05004667380451     -0.98765892619677
