15
Coordinates from ORCA-job run
  C   0.76063135023099     -0.12250014612751     -0.00727998424865
  C   -0.56549416234680      0.02519487528866      0.01411364729087
  N   1.69033101231744      0.94106817487526     -0.38784575564675
  O   2.66775104300248      1.06128483724667      0.34487142083493
  O   1.41819707455370      1.60970719375011     -1.37949807367050
  N   1.46278484913813     -1.34777110489226      0.38307288332217
  O   2.28387820743258     -1.75023984630873     -0.43391629937366
  O   1.17617359485445     -1.83968876830588      1.46734741074573
  N   -1.35843246402013     -1.14709983298633      0.44255322250847
  O   -2.15671483115681     -0.94411299390346      1.35095644593425
  O   -1.17931333208000     -2.19627340254864     -0.16796626488754
  C   -1.38361825539997      1.21384083176966     -0.33865964129292
  H   -0.76693724819586      2.07930234906137     -0.56481829280080
  H   -1.99413766162261      0.98273833319754     -1.21662808326166
  H   -2.05409917670756      1.43454949988357      0.49369736454606
