15
Coordinates from ORCA-job run
  C   0.76589705474367      0.03752690525549      0.06668697777696
  C   -0.56695891455232     -0.00070308782853      0.01183321771929
  N   1.63380539284033     -0.22735719177497     -1.08092107211519
  O   2.59188193071849     -0.95838649471897     -0.84747739427804
  O   1.33522487510655      0.28656837590766     -2.15381632284120
  N   1.53705702086495      0.30760202711437      1.28287735102653
  O   1.26970474105620     -0.35400215321881      2.27802269301414
  O   2.39016207024794      1.18056900441766      1.16452499605972
  N   -1.29211151007288      0.27428628016184      1.27068136610855
  O   -2.11684984088182     -0.57009866906606      1.60327457755632
  O   -1.03687216204040      1.32886518388768      1.84378503793985
  C   -1.45004982236122     -0.28021815524233     -1.14951527105384
  H   -0.88321213704640     -0.56580158677641     -2.03136331745030
  H   -2.03060291487669      0.61664274683541     -1.38516658421080
  H   -2.14607578374638     -1.07449318495401     -0.87442625525201
