15
Coordinates from ORCA-job run
  C   0.75688185969826     -0.13971286580553      0.01748944733703
  C   -0.56554897130003      0.03852230224861     -0.00609525806785
  N   1.72425179249693      0.90505866755306     -0.31803674488962
  O   2.68269097457018      0.98791537734130      0.44442882662713
  O   1.49921879418114      1.59574566027110     -1.30639211126848
  N   1.41706763507315     -1.38384595725183      0.42138430697408
  O   1.09303582614660     -1.86843173042756      1.49840307238194
  O   2.24621985313513     -1.80628288399088     -0.37703305047402
  N   -1.39885843165587     -1.12049120339938      0.38069162088822
  O   -2.23628716826062     -0.90539892031757      1.25039817712964
  O   -1.20832612274812     -2.17254286642184     -0.22156869692035
  C   -1.34385981649190      1.24894934925743     -0.37467654776479
  H   -1.92255848461852      1.04317037793389     -1.28006903576315
  H   -0.70082821825676      2.10424255115310     -0.56281320192617
  H   -2.04309952196955      1.47210214185611      0.43288919573640
