15
Coordinates from ORCA-job run
  C   0.75632200135614     -0.11738129009545      0.08567480033936
  C   -0.56259567614902      0.02139427857311     -0.06316448293766
  N   1.70785612630096      0.98790210772731     -0.02943941489360
  O   1.55955315354700      1.77462054468162     -0.95874608583504
  O   2.57393370366632      1.01863382865747      0.83984231902893
  N   1.42193847122720     -1.37849935286534      0.42241589422507
  O   2.35564704265860     -1.67777129559151     -0.31395155621166
  O   0.99873912497181     -1.99706685556276      1.39096741818559
  N   -1.38165384482127     -1.19832501886858      0.10529296310391
  O   -2.30302593696381     -1.11169963686033      0.90977830875960
  O   -1.09567398629707     -2.16446957746169     -0.59500299461080
  C   -1.34873192468583      1.24035362409960     -0.38351644052709
  H   -0.72682881992295      2.13097597662540     -0.40600859945377
  H   -2.13876716718274      1.35017247089356      0.36134771897675
  H   -1.81771226770534      1.11916019604758     -1.36448984814959
