15
Coordinates from ORCA-job run
  C   0.76114692467022     -0.04385254449946      0.10669824756253
  C   -0.56634818947897      0.02067518850401     -0.01323936149307
  N   1.67866512350124     -0.07497127374480     -1.03234448795676
  O   2.65521766037702      0.66176256023506     -0.93052685188217
  O   1.39884988572487     -0.81262151649714     -1.97150584587436
  N   1.47750271568524     -0.05114813122760      1.38488522378689
  O   1.20058691715481      0.82842290359723      2.19064160714791
  O   2.29982961898502     -0.95275504950592      1.50566119980943
  N   -1.34622115278018      0.06466491829965      1.24240926504079
  O   -2.14753563084814      0.98794054137040      1.33747004142813
  O   -1.15412705759459     -0.83799202945134      2.05113991370862
  C   -1.39656252596045      0.05149873396206     -1.24470353507246
  H   -2.00125058022040     -0.85898692586450     -1.29364988378957
  H   -2.07220528419626      0.90666740755482     -1.18869403278254
  H   -0.78854842501945      0.11069521726753     -2.14324149963338
