15
Coordinates from ORCA-job run
  C   0.75843533535234     -0.10298440397902      0.08601204540998
  C   -0.56564950742377      0.02653890967077     -0.01978780046739
  N   1.71542228591300      0.85123524901939     -0.47427444672986
  O   2.66843782012266      0.34572456781225     -1.05994733672335
  O   1.48528041509886      2.04653222474989     -0.32333051690237
  N   1.43021823179165     -1.23136081924051      0.73595953992202
  O   2.26890548418710     -0.91485529543786      1.57265781023374
  O   1.10424802449940     -2.35844172962548      0.38519414657055
  N   -1.38815804051761     -1.04081371821819      0.58938677623566
  O   -2.22472143343940     -1.55187601859887     -0.14735769520082
  O   -1.19308482160285     -1.28885252583573      1.77520750714133
  C   -1.35430105039078      1.10622210439451     -0.66704833147136
  H   -2.05808580358806      0.65157721206521     -1.36630589744470
  H   -1.92817037817630      1.64017873521486      0.09620440080802
  H   -0.71877656182625      1.82017550800877     -1.18357020138144
