15
Coordinates from ORCA-job run
  C   0.76107528816890     -0.09556662622558      0.07119220798789
  C   -0.56571000083834      0.01085514217903     -0.02437563150232
  N   1.68563584711442      1.00565442858952     -0.19873435484025
  O   2.66198427887296      0.70723950829272     -0.88016196165952
  O   1.41052193381841      2.10837047915772      0.26266969029267
  N   1.46931598444428     -1.33132384186017      0.41543430027342
  O   2.29304547454610     -1.21575835384454      1.31637038992714
  O   1.18436432295506     -2.33891389645194     -0.21961784996651
  N   -1.35328758195055     -1.20694275100086      0.26496803232924
  O   -2.15415236632867     -1.53898128727407     -0.60223138229746
  O   -1.16763569111016     -1.74788778176512      1.35053521896021
  C   -1.38929687326050      1.19515629496535     -0.37932409123982
  H   -2.06666929598906      0.91796953486038     -1.18885663536393
  H   -1.99224340904433      1.48648763216384      0.48587198998576
  H   -0.77694791139850      2.04264151821370     -0.67473992288652
