15
Coordinates from ORCA-job run
  C   0.76859863583461      0.02449511439208     -0.02767113413699
  C   -0.56076439804048     -0.00434283797641      0.08589682900558
  N   1.69596740911807      0.05710584445046      1.10630925127378
  O   2.54820632979086      0.93665777257196      1.04644846315364
  O   1.54181298928186     -0.78355797078650      1.98336261969072
  N   1.47449498475553     -0.01085953361947     -1.30838479835284
  O   1.04975316454776      0.69859543718018     -2.21445944931271
  O   2.43897978380968     -0.76908117400754     -1.34751634670068
  N   -1.11112385827558      0.02092042729513      1.45803133926055
  O   -0.76211280757082      0.94781001163951      2.18250179530564
  O   -1.90203629460272     -0.87574306469597      1.72983902461892
  C   -1.59149549910741     -0.05597212904523     -0.98249974918420
  H   -1.15089562563779     -0.18361279980224     -1.96743182917986
  H   -2.16364750090975      0.87657579324399     -0.97684730125780
  H   -2.27573731299381     -0.87799089083997     -0.76557871418374
