15
Coordinates from ORCA-job run
  C   0.75491687389902      0.06909120388028      0.07558229275404
  C   -0.57850118741088      0.01248554436690      0.02410084836313
  N   1.61790141747809     -0.03106003747980     -1.10358159196702
  O   2.58591924409376     -0.77380050559320     -0.97005915333394
  O   1.30788800382425      0.61040801237714     -2.10080985998839
  N   1.54010465498253      0.17487505353238      1.30803738224164
  O   1.31798788931893     -0.64330098880912      2.19132136943256
  O   2.36207433315237      1.08504659263920      1.31166505915386
  N   -1.29417491881446      0.05412661044548      1.31338473170247
  O   -1.03511574704981      0.97622928244707      2.07986670687981
  O   -2.11846351454687     -0.83970047394903      1.47677534079164
  C   -1.44711978166876     -0.13838115796646     -1.17876260166825
  H   -2.46013242049480      0.18745467665604     -0.94461934521673
  H   -1.05661802707871      0.44540843333097     -2.00917763994109
  H   -1.49566681968466     -1.18988224587786     -1.47372353920374
