15
Coordinates from ORCA-job run
  C   0.75917541088542     -0.11391050549887      0.06435979021819
  C   -0.56546313725254      0.02338780179288     -0.02192810051955
  N   1.44401369707079     -1.38073869729528      0.33545578170065
  O   2.27026717947477     -1.33260285213156      1.24026067992417
  O   1.13988535027887     -2.34450858508062     -0.35610257772036
  N   1.70501644224834      0.98282808716799     -0.14427075819577
  O   2.67351369009045      0.70394606251088     -0.84506920037069
  O   1.45389279664948      2.06240819561306      0.38075952341554
  N   -1.37623329667384     -1.19328000328998      0.19747411388491
  O   -2.18465477629885     -1.45815180056938     -0.68578446896320
  O   -1.19976974597777     -1.80070105089187      1.24893235145154
  C   -1.36648722844999      1.24166142389176     -0.30647381410436
  H   -2.04112929012690      1.02846099581001     -1.13748528183609
  H   -1.97299883999923      1.48609911068616      0.57065031553651
  H   -0.73802825191901      2.09610181728482     -0.54177835442150
