13
Coordinates from ORCA-job run
  C   -0.58499988821598      0.02192349203923      0.05641821704396
  C   0.84435076182648     -0.33491850123996     -0.29171615974642
  F   -0.71181204449833      0.27420200294121      1.38385907245426
  H   1.19690318951540     -1.12621707522503      0.36791415830128
  H   0.93117435441431     -0.66614360201572     -1.32690201154432
  N   -1.46500810237995     -1.22424315396086     -0.19163068056367
  O   -0.90311291955320     -2.30898557798037     -0.09531270104481
  O   -2.65492059491485     -1.01638785359569     -0.37818564458216
  C   -1.13181738526988      1.11488981837356     -0.74635822293759
  N   -1.55839430958652      1.96113518443223     -1.44039467018188
  N   1.77566621167269      0.82701472218281     -0.11738016700697
  O   2.94323471266700      0.59047446085563     -0.39857127899076
  O   1.31873601432283      1.88725608319298      0.29726008879908
