13
Coordinates from ORCA-job run
  C   -0.73132361814375      0.17267521706800      0.07628659588624
  C   0.71878839768164      0.41969206765559      0.43404636794591
  F   -1.47415107074236      0.49300416432421      1.17740482566468
  H   1.00094018675920     -0.22739816327788      1.26426070718263
  H   0.86130026899317      1.46580142768796      0.70425980091309
  N   -0.99206422283764     -1.31981364598423     -0.15909510124793
  O   -1.81491553351315     -1.61206676450621     -1.01303595211935
  O   -0.39895328832961     -2.07170280529344      0.60185265545138
  C   -1.19340709416464      0.94449706965595     -1.07547893804949
  N   -1.54463499667155      1.64774524707987     -1.94839884158641
  N   1.62934576377711      0.11186752974275     -0.70555296909780
  O   1.16225523409515     -0.55090558842573     -1.63004009219988
  O   2.77581997309644      0.52560424427318     -0.60550905874305
