13
Coordinates from ORCA-job run
  C   -0.71313899043472      0.21423501954774      0.08831971502986
  C   0.74409732184265      0.22749053700999      0.49841563658516
  F   -1.44687220307992      0.45618387855381      1.21556812442841
  H   1.00003579925775      1.19729481291182      0.92476855363172
  H   0.92134987237551     -0.56364880805226      1.22659094625312
  N   -1.14196026823603     -1.18341640070743     -0.37225065146531
  O   -0.66253849356894     -2.10662784302614      0.27126210357024
  O   -1.97177754350034     -1.24274094670065     -1.26654155007528
  C   -1.04443232543641      1.19921855316625     -0.93919306768291
  N   -1.29533384269479      2.06025782740004     -1.69789322335250
  N   1.64696981204843     -0.01688829649184     -0.66209891468593
  O   1.13327925451911     -0.47101819840004     -1.68295300835540
  O   2.83132160690770      0.23065986478870     -0.48399466388119
