13
Coordinates from ORCA-job run
  C   -0.58555820362946      0.12956835619499      0.03869941795358
  C   0.81980775320490     -0.35588183751434     -0.25966060958075
  F   -0.63805014349564      0.69646581688164      1.25844334781359
  H   1.12592999344271     -1.07771983735585      0.49833519099126
  H   0.87802750759116     -0.80318620652946     -1.25196026274085
  N   -1.45087738763202     -1.15301474731856      0.07425850071577
  O   -1.94867849976480     -1.45416051889928      1.14402226446383
  O   -1.51509060566520     -1.74663983380184     -0.99330814712589
  C   -1.17569001472542      1.00164203938917     -0.97612825894924
  N   -1.69305353139427      1.66680255307765     -1.79463718831272
  N   1.81243147118971      0.76413624171749     -0.20836410445210
  O   1.40129120069206      1.90021441669594     -0.41719683821292
  O   2.96951046018629      0.42877355746248      0.00949668743645
