16

C	-0.286251	-0.137874	-1.50083
C	0.0	0.0	0.0
F	-1.622399	-0.489783	-1.726713
H	1.092239	0.0	0.0
C	-0.094052	1.196577	-2.105
N	0.052181	2.235799	-2.631019
C	0.64785	-1.118589	-2.18988
H	1.647391	-0.929375	-1.786136
H	0.344797	-2.134043	-1.947987
H	0.613481	-0.966321	-3.270688
N	-0.443463	-1.198513	0.758904
O	-0.140631	-2.299156	0.303608
O	-1.038105	-1.024523	1.822702
C	-0.587008	1.189392	0.581134
N	-1.022575	2.179408	1.042284
F	2.483529	0.0	0.0
