16

C	-0.398044	0.025105	-1.481714
C	0.0	0.0	0.0
F	-0.076352	1.309316	-1.923211
H	1.094162	0.0	0.0
C	0.412547	-0.90911	-2.286377
N	0.954293	-1.599895	-3.064669
C	-1.876212	-0.18147	-1.758194
H	-2.069587	-0.024271	-2.821269
H	-2.178673	-1.190603	-1.484103
H	-2.444774	0.550497	-1.180872
N	-0.396299	-1.249421	0.663479
O	-0.53873	-1.238869	1.884725
O	-0.483747	-2.25918	-0.043092
C	-0.54571	1.138013	0.701281
N	-0.988746	2.089019	1.23272
F	2.41953	0.0	0.0
