16

C	-0.38641	-0.050684	-1.484799
C	0.0	0.0	0.0
F	-0.074834	1.21626	-1.982358
H	1.091814	0.0	0.0
C	0.445274	-1.01076	-2.236146
N	1.018279	-1.738417	-2.957503
C	-1.85991	-0.286471	-1.765585
H	-2.154729	-1.286126	-1.451766
H	-2.043682	-0.176848	-2.836287
H	-2.442887	0.463022	-1.225764
N	-0.393381	-1.218327	0.721512
O	-0.540901	-1.148922	1.940847
O	-0.472099	-2.260903	0.064106
C	-0.554181	1.168985	0.640604
N	-0.998453	2.143238	1.127217
F	2.419859	0.0	0.0
