16

C	-0.284966	-0.085816	-1.498386
C	0.0	0.0	0.0
F	0.28639	-1.24505	-1.998382
H	1.109052	0.0	0.0
C	-1.723921	-0.12777	-1.827209
N	-2.861036	-0.102027	-2.121645
C	0.423068	1.080967	-2.169706
H	0.394748	0.93604	-3.250765
H	1.450738	1.049482	-1.798018
H	-0.044166	2.033485	-1.917393
N	-0.517837	-1.138287	0.792143
O	-0.393762	-1.053519	2.012012
O	-0.996149	-2.10237	0.194122
C	-0.49285	1.235596	0.566457
N	-0.885423	2.259745	0.990496
F	2.468163	0.0	0.0
