13

C	0.0	0.0	0.0
C	-0.555251	-0.050467	-1.403657
Cl	1.845565	0.0	0.0
H	-1.650909	-0.132431	-1.286947
H	-0.25567	0.980843	0.399395
H	-0.282055	0.831222	-1.977942
N	-0.515192	-0.994782	0.83458
H	-0.367723	-1.927846	0.48699
H	-0.260247	-0.887468	1.802254
N	-0.074292	-1.210403	-2.197711
O	0.20014	-1.010288	-3.379655
O	-0.007724	-2.308492	-1.644906
Cl	-3.770304	0.0	0.0
