13

C	0.0	0.0	0.0
C	-0.444276	0.039254	-1.46093
Cl	1.850214	0.0	0.0
H	-1.537633	-0.048527	-1.450571
H	-0.292338	0.95717	0.432271
H	-0.118857	0.951656	-1.955827
N	-0.483989	-1.048808	0.831001
H	-1.483811	-0.861833	0.944496
H	-0.395933	-1.926368	0.331982
N	0.101954	-1.074755	-2.275196
O	-0.034179	-2.221617	-1.847774
O	0.645294	-0.7907	-3.34275
Cl	-3.509351	0.0	0.0
