13

C	0.0	0.0	0.0
C	-0.503232	0.253915	-1.403125
Cl	1.782673	0.0	0.0
H	-1.599654	0.293189	-1.359348
H	-0.281577	0.842695	0.63518
H	-0.156518	-0.51543	-2.088814
N	-0.503128	-1.283957	0.417319
H	-0.260555	-1.422383	1.392263
H	-1.524884	-1.200358	0.374891
N	-0.039728	1.556199	-1.943403
O	0.252932	1.600104	-3.138362
O	-0.014656	2.519454	-1.180995
Cl	-3.561105	0.0	0.0
