15
Coordinates from ORCA-job run
  C   -0.66070328692603     -0.64059140098334     -0.56041635299446
  C   0.70622509694157      0.06739363811292     -0.59391502500907
  Cl  -0.38642754387606     -2.40355669299147     -0.37039898515370
  H   1.30745082859783     -0.42190922093105     -1.36824142954384
  H   -1.12608786890400     -0.52866056760477     -1.54204228649304
  C   -1.59641094234419     -0.14173557544204      0.52275413342151
  H   -1.20153378752085     -0.35724629168670      1.51615127247772
  H   -2.56672746002259     -0.63166525405593      0.43216949487521
  H   -1.74350877336721      0.93706815393787      0.42199804807194
  C   1.47326282463573      0.03086108714969      0.73057258924302
  H   1.58577623238969     -0.99899402765727      1.07066694539223
  H   2.46710945966414      0.46052356533081      0.59522265919615
  H   0.95977895814942      0.60679440550703      1.50110682245279
  C   0.48964560569060      1.45394298735401     -1.01802304037083
  N   0.29115065689197      2.56677519396025     -1.33660484556564
