15
Coordinates from ORCA-job run
  C   -0.59969092240022     -0.66371833148325      0.08040034822475
  C   0.56547595459712      0.27514682763808     -0.25657391024475
  Cl  -0.64582478221139     -0.98810954461958      1.84097878088393
  H   0.53554628156213      0.40438886716219     -1.34684840138276
  H   -0.38926681720171     -1.62710554041387     -0.39223140439299
  C   -1.94407259396371     -0.12907014531591     -0.37388854643436
  H   -2.18057451519148      0.80502721819528      0.13862778479298
  H   -1.92624873362617      0.05461379735534     -1.45222477799075
  H   -2.73370803294795     -0.84999923393125     -0.15858544205950
  C   1.93877983535478     -0.28035356386398      0.12748945729741
  H   2.72879652613743      0.38144060638123     -0.23132141954643
  H   2.02990549443931     -0.37655015289960      1.20888724826478
  H   2.07894159196831     -1.26510991782125     -0.32497910540719
  C   0.35186766759473      1.59870437825689      0.33459600784941
  N   0.18907304588883      2.66169473535967      0.80567338014547
