15
Coordinates from ORCA-job run
  C   -0.86697345010134     -0.11013859787561     -0.46309156742724
  C   0.66479380114037     -0.01610353171712     -0.46828389547345
  Cl  -1.38956857263913     -0.96427332102548     -1.95009856969541
  H   1.05805243850230     -1.03298876592210     -0.58391638265049
  H   -1.28619206175787      0.89677011633120     -0.53649824989310
  C   -1.41900518440660     -0.83220156927870      0.75173494584384
  H   -2.49711067819799     -0.96182816711039      0.65147066593758
  H   -1.23091429468250     -0.25847989693602      1.66130572600614
  H   -0.96373764436423     -1.82055092065635      0.85188664857449
  C   1.22119843674887      0.60837304512637      0.81762630659410
  H   1.04397799833716     -0.04302586957293      1.67345413153500
  H   0.75639486124183      1.57871886415655      1.00833417092601
  H   2.29731992250558      0.76197347722605      0.72472402086255
  C   1.11739741911361      0.76474327726697     -1.62357009849439
  N   1.49436700855994      1.42901185998754     -2.51507785264564
