15
Coordinates from ORCA-job run
  C   -0.65692650847477     -0.63029408529339     -0.57773028424947
  C   0.70738133220258      0.08328581946667     -0.58865305224136
  Cl  -0.37788134638957     -2.39587082068036     -0.42518726668378
  H   1.31273909201561     -0.38492669271062     -1.37286362716731
  H   -1.11714831267030     -0.49841108013836     -1.55933468584322
  C   -1.60053158322186     -0.15814924705256      0.51047555011253
  H   -1.20889813549672     -0.38982890430374      1.50143108967379
  H   -2.56740091913944     -0.65210941569250      0.40622073191201
  H   -1.75399377208853      0.92136473157621      0.42951687514159
  C   1.47051928003803      0.01698449262751      0.73687253366848
  H   0.95122042510998      0.56922062408676      1.52083517141040
  H   1.58875062021536     -1.02078458467297      1.04992857007149
  H   2.46183576526179      0.45666228521892      0.61569593134835
  C   0.48917830910201      1.47935470095919     -0.97990324138650
  N   0.30315575353583      2.60250217660925     -1.26830429576700
