17

C	-0.443791	-0.098287	-1.472791
C	0.0	0.0	0.0
F	-0.324334	1.157581	-2.060125
H	1.093421	0.0	0.0
C	0.454738	-1.067379	-2.215663
H	1.493803	-0.758545	-2.074232
H	0.190948	-1.064751	-3.275579
H	0.333005	-2.077223	-1.817228
C	-1.860136	-0.505432	-1.590029
N	-2.965329	-0.889268	-1.698974
N	-0.434834	-1.062431	0.84312
H	0.278691	-1.769035	0.935286
H	-1.34384	-1.441282	0.621816
N	-0.549116	1.294285	0.533971
O	-1.770087	1.313086	0.706161
O	0.218623	2.223175	0.748452
Br	3.499159	0.0	0.0
