17

C	-0.463958	0.015816	-1.463535
C	0.0	0.0	0.0
F	-1.864555	-0.080456	-1.490833
H	1.090442	0.0	0.0
C	-0.044683	1.241432	-2.244056
H	1.034383	1.376482	-2.149685
H	-0.32175	1.120279	-3.292498
H	-0.550115	2.118909	-1.83989
C	0.039448	-1.21565	-2.101977
N	0.381777	-2.201461	-2.641452
N	-0.470895	-1.105586	0.763384
H	-1.370862	-1.446022	0.456338
H	0.226177	-1.837308	0.770109
N	-0.499902	1.282765	0.615852
O	0.219256	2.274416	0.515169
O	-1.61722	1.261206	1.128926
Br	3.427246	0.0	0.0
