17

C	-0.579774	0.036649	-1.428039
C	0.0	0.0	0.0
F	-0.086712	-1.086156	-2.074135
H	1.093118	0.0	0.0
C	-2.096503	-0.061639	-1.429598
H	-2.376828	-0.965264	-0.886745
H	-2.550204	0.81354	-0.958715
H	-2.451076	-0.133311	-2.45872
C	-0.16047	1.205849	-2.222878
N	0.057099	2.09625	-2.95709
N	-0.453511	-1.169947	0.684087
H	-1.206509	-0.935121	1.318227
H	0.323236	-1.542032	1.216119
N	-0.437965	1.27594	0.694839
O	0.032122	2.327434	0.275299
O	-1.255628	1.187556	1.615473
Br	3.410055	0.0	0.0
