17

C	-0.499957	0.164721	-1.438229
C	0.0	0.0	0.0
F	-1.878227	0.454074	-1.389712
H	1.091274	0.0	0.0
C	0.206555	1.232784	-2.248014
H	1.285432	1.077883	-2.173862
H	-0.033322	2.21299	-1.846146
H	-0.116117	1.171504	-3.289192
C	-0.378451	-1.136324	-2.12209
N	-0.318975	-2.115255	-2.766732
N	-0.498208	-1.186781	0.593692
H	-1.455031	-1.06505	0.899506
H	0.078996	-1.44	1.384522
N	-0.422666	1.257271	0.767477
O	-1.261439	1.124738	1.658905
O	0.099226	2.320794	0.450839
Br	3.423925	0.0	0.0
