17

C	-0.49756	0.073534	-1.444697
C	0.0	0.0	0.0
F	-1.900488	0.165465	-1.417017
H	1.091274	0.0	0.0
C	0.058597	1.209726	-2.277872
H	-0.240581	1.070373	-3.318466
H	1.147397	1.212776	-2.195131
H	-0.326197	2.159226	-1.912621
C	-0.173311	-1.212263	-2.089849
N	0.041936	-2.18058	-2.716494
N	-0.490648	-1.163963	0.645157
H	0.114158	-1.407728	1.417564
H	-1.435796	-1.025783	0.977163
N	-0.428122	1.287753	0.70786
O	-1.300716	1.203735	1.572783
O	0.122658	2.33058	0.36686
Br	3.412858	0.0	0.0
