15
Coordinates from ORCA-job run
  C   -0.78638420165014     -0.48739929264017     -0.04179698806957
  C   0.72994514136083     -0.27269383606194      0.11557348722625
  F   -0.87503811552130     -1.53851813681217     -0.97383700358394
  H   1.20007838564912     -1.12575864518123      0.60045190654439
  N   -1.45198563955449      0.68647291623111     -0.40625613670618
  H   -1.11455289572827      1.05691287977607     -1.28492847801254
  H   -2.45740348305656      0.58419453729250     -0.39688893528721
  C   -1.34669359894716     -1.00977404826986      1.21720189894075
  N   -1.82360007964402     -1.45878187896305      2.19159585380954
  N   0.98975327785094      0.94257995280087      0.96285650854800
  O   1.35406133572960      1.96488319504539      0.40061631854482
  O   0.78052519539279      0.77245867476144      2.15663863001328
  N   1.41921794227583     -0.08841335365920     -1.19976206023966
  O   0.82305010740574      0.50935550352616     -2.08897744073988
  O   2.56002662843709     -0.53551846784593     -1.25248756098804
