15
Coordinates from ORCA-job run
  C   -0.81887674823032     -0.45542579491338     -0.19079707088279
  C   0.68814067691625     -0.41940864814368      0.11564979925780
  F   -1.02845337282288     -1.58444511482597     -0.95163640192063
  H   1.03695109807299     -1.40735617220172      0.41156109921065
  N   -1.21777515541320      0.66496926441597     -0.96330822037502
  H   -1.01754850911728      1.53089172996597     -0.47816539173383
  H   -2.20513358317577      0.60946169700446     -1.18230436510213
  C   -1.55228669027424     -0.67278529467607      1.08357663045923
  N   -2.15801146473440     -0.82622041951304      2.07898234066045
  N   1.04848887645214      0.54449595153157      1.19669629364023
  O   0.32017802461837      1.52139282013902      1.35411579578524
  O   2.07682262734567      0.28452012849201      1.81115871015382
  N   1.44050583234268     -0.01917164581789     -1.12719218851330
  O   1.62229676189261     -0.92556860050169     -1.92652628099157
  O   1.76370162612739      1.15565009904443     -1.23081074964815
