15
Coordinates from ORCA-job run
  C   -0.82788954562677     -0.43037913108358     -0.20956441616450
  C   0.67567141338213     -0.43821071957531      0.11509523982257
  F   -1.05563151946409     -1.53767599421564     -0.99708242238515
  H   0.99628442915546     -1.43994209172171      0.39629708277704
  N   -1.18995239188047      0.71528838404588     -0.96257479800240
  H   -2.17522584754665      0.68723513639853     -1.19604838910914
  H   -0.97668854258478      1.56560402843056     -0.45562074781330
  C   -1.58066009434888     -0.65718392351873      1.05169834921347
  N   -2.19933984099077     -0.81763310723854      2.03803880613357
  N   1.04678442391419      0.49603421983626      1.21824170110344
  O   0.34001608608446      1.48675056977582      1.38719535478752
  O   2.06218528257461      0.20034757743484      1.83808685093943
  N   1.45360854542395     -0.03428962502937     -1.11094240939640
  O   1.62426639848166     -0.93058951419572     -1.92414841973961
  O   1.80757120342595      1.13364419065671     -1.18867178216653
