15
Coordinates from ORCA-job run
  C   -0.82930640425880     -0.28164832565634     -0.24869567941757
  C   0.58139394231917      0.27582468895232     -0.46801638015812
  F   -1.07787229692648     -1.05044453694472     -1.36603920526701
  H   0.57851965677003      0.87415385644608     -1.37792320735134
  N   -1.76564017479839      0.80132192464029     -0.26492385480688
  H   -2.69648438430950      0.42280411776847     -0.40461440549223
  H   -1.74058821060769      1.29956639730381      0.61669980217078
  C   -0.92971901794207     -1.17854702604275      0.92407325657619
  N   -1.11798823050056     -1.87239123585420      1.85364871338136
  N   1.56915361903327     -0.83669704501246     -0.63929342174093
  O   1.92792499345042     -1.07079289386201     -1.78660701806268
  O   1.90357214091880     -1.41732196205805      0.38845548440213
  N   1.07346615173227      1.13180581078491      0.65683644275502
  O   2.20165118319330      1.58114747660124      0.50866858755446
  O   0.32091703192622      1.32021875293339      1.60873088545682
