15

C	0.0	0.0	0.0
C	-0.217444	-0.045054	-1.557192
Cl	1.805827	0.0	0.0
H	0.156261	0.927999	-1.904074
H	0.482612	-0.789129	-1.947399
N	-0.631997	1.047255	0.718403
H	-0.518319	1.904251	0.182544
H	-1.660607	0.783309	0.649095
C	-0.367171	-1.302986	0.585746
N	-0.541623	-2.38065	1.019207
C	-1.582292	-0.325342	-2.166768
H	-1.45452	-0.320303	-3.259064
H	-1.964172	-1.297281	-1.85612
H	-2.341195	0.385072	-1.853574
H	-3.130594	0.0	0.0
