15

C	0.0	0.0	0.0
C	-0.302328	0.010868	-1.512119
Cl	1.856447	0.0	0.0
H	0.358197	-0.709818	-1.9987
H	-1.339296	-0.302114	-1.614606
N	-0.341541	1.267949	0.639369
H	0.420805	1.917132	0.465813
H	-0.426721	1.101906	1.637466
C	-0.650975	-1.071247	0.767442
N	-0.628122	-1.930392	1.5919
C	-0.13498	1.388125	-2.136874
H	-0.862859	2.080189	-1.709699
H	-0.301777	1.331816	-3.216013
H	0.871395	1.790628	-1.9848
H	-2.331097	0.0	0.0
