15

C	0.0	0.0	0.0
C	-0.23516	-0.048184	-1.543998
Cl	1.795355	0.0	0.0
H	0.233144	0.878939	-1.891926
H	0.392006	-0.867315	-1.908603
N	-0.617572	1.139721	0.583809
H	-0.465713	1.118204	1.590046
H	-1.65082	0.919214	0.435989
C	-0.353814	-1.292919	0.635123
N	-0.534605	-2.318391	1.181897
C	-1.608402	-0.184769	-2.184492
H	-2.275322	0.630041	-1.922939
H	-1.44001	-0.209713	-3.272134
H	-2.123652	-1.089307	-1.870656
H	-3.077089	0.0	0.0
