15

C	0.0	0.0	0.0
C	-0.483794	-0.053011	-1.445978
Cl	1.797311	0.0	0.0
H	-0.131653	0.872031	-1.913533
H	-1.580562	-0.010266	-1.34366
N	-0.566735	1.15352	0.621873
H	-1.602431	0.973838	0.504992
H	-0.372183	1.123697	1.619904
C	-0.32469	-1.272469	0.697546
N	-0.498895	-2.286713	1.266622
C	-0.064884	-1.285777	-2.231501
H	1.020963	-1.389764	-2.302499
H	-0.466465	-1.226085	-3.247347
H	-0.469182	-2.190937	-1.770728
H	-3.020761	0.0	0.0
