15

C	0.0	0.0	0.0
C	-0.2323	-0.107665	-1.543322
Cl	1.795515	0.0	0.0
H	0.226854	0.810059	-1.925041
H	0.402601	-0.935108	-1.876461
N	-0.627468	1.15387	0.538451
H	-0.487316	1.166755	1.546559
H	-1.661706	0.917795	0.389744
C	-0.346721	-1.273439	0.676819
N	-0.514635	-2.281097	1.259527
C	-1.603491	-0.284446	-2.179312
H	-1.432158	-0.369382	-3.263086
H	-2.115424	-1.172387	-1.816614
H	-2.272624	0.542397	-1.963944
H	-3.055504	0.0	0.0
