15

C	0.0	0.0	0.0
C	-0.456906	-0.032016	-1.465738
Cl	1.802175	0.0	0.0
H	0.044064	-0.860331	-1.977109
H	-1.536011	-0.232891	-1.380747
N	-0.563833	1.037981	0.805304
H	-0.400542	1.922854	0.333608
H	-1.596792	0.828422	0.718634
C	-0.342977	-1.301883	0.617332
N	-0.494853	-2.358685	1.106468
C	-0.239572	1.2794	-2.205817
H	-0.904722	2.054179	-1.816884
H	-0.484906	1.149847	-3.264004
H	0.794535	1.630896	-2.140554
H	-3.001294	0.0	0.0
