15

C	0.0	0.0	0.0
C	-0.215042	0.033932	-1.557744
Cl	1.805855	0.0	0.0
H	0.186425	1.011153	-1.857155
H	0.466183	-0.710104	-1.980559
N	-0.630764	1.010718	0.76909
H	-1.661007	0.749333	0.683966
H	-0.517399	1.89434	0.277485
C	-0.367909	-1.329893	0.522485
N	-0.53601	-2.426925	0.908044
C	-1.584	-0.17514	-2.185621
H	-1.444617	-0.145923	-3.276601
H	-2.315188	0.559355	-1.865088
H	-2.011547	-1.136564	-1.904311
H	-3.111479	0.0	0.0
