15
Coordinates from ORCA-job run
  C   1.14215074186092     -0.36185428182421      0.36252711140170
  C   -0.17493274949897     -0.12360188211862     -0.38642337142511
  Cl  1.86456270245325     -1.95116439494569     -0.04673712649349
  H   0.04324415004921     -0.22131941950992     -1.45619814314443
  H   0.95273670959834     -0.38333282907195      1.44004736682328
  C   2.12825488636656      0.67920610905955      0.08169349459567
  N   2.89684786677102      1.53533803718491     -0.15361824414602
  C   -0.67992536480496      1.29102483203390     -0.10278631244985
  H   -0.84898387017318      1.43637125022684      0.96896477093760
  H   0.01857630321831      2.05594943981683     -0.44640730720280
  H   -1.63253945472667      1.45148160677192     -0.61256626579877
  C   -1.22083438250987     -1.16068003666364      0.01154880974668
  H   -2.14976026482340     -0.97950631128382     -0.53367323390218
  H   -0.89550792354215     -2.17799148692987     -0.20665053432708
  H   -1.44288935023841     -1.09092063274623      1.08127898538480
