15
Coordinates from ORCA-job run
  C   1.20531160026707     -0.54754631955279     -0.04038127754636
  C   -0.25976686841932     -0.32512454528581     -0.43363346907585
  Cl  2.30476131747060     -0.36577527779830     -1.44346540247042
  H   -0.44857494543374     -1.00993740829767     -1.26874714803809
  H   1.34119719555271     -1.57433660557217      0.30853359080338
  C   1.62103031788259      0.36075660323897      1.02611134894331
  N   1.90766763979909      1.09279304796145      1.89863127994642
  C   -0.52524669239313      1.10479208544738     -0.88901874996519
  H   -0.35187670820465      1.81062755093606     -0.07191667936569
  H   -1.56626512084528      1.20590948760501     -1.20455443355085
  H   0.11016720167450      1.38782379462334     -1.72947343312915
  C   -1.15751978016205     -0.71316840519835      0.74029948302755
  H   -2.20729158125735     -0.63623095534590      0.44816377591680
  H   -0.99856120968662     -0.04849123378943      1.59385429575916
  H   -0.97603236624444     -1.74109181897180      1.06659681874500
