17

C	-0.373042	-0.040597	-1.490943
C	0.0	0.0	0.0
Br	-0.159532	-1.899473	-2.146908
H	1.094765	0.0	0.0
N	-1.760146	0.322319	-1.686531
H	-1.922004	0.483971	-2.676233
H	-1.863561	1.214222	-1.206194
C	0.654067	0.805987	-2.23687
H	0.54783	0.69289	-3.319671
H	1.654246	0.529414	-1.886343
H	0.474359	1.851248	-1.965322
C	-0.58232	-1.067127	0.796598
N	-1.06326	-1.854341	1.52639
N	-0.380678	1.330855	0.524891
H	0.441526	1.690436	0.998354
H	-1.128822	1.250817	1.203986
F	2.615642	0.0	0.0
