17

C	-0.082873	0.024007	-1.529702
C	0.0	0.0	0.0
Br	-1.983922	0.253193	-2.125827
H	1.097892	0.0	0.0
N	0.686356	1.140712	-2.029927
H	1.615536	0.965757	-1.617178
H	0.335875	1.959549	-1.537125
C	0.47301	-1.262163	-2.101532
H	-0.120188	-2.129522	-1.807292
H	1.484086	-1.345262	-1.686938
H	0.512336	-1.191014	-3.189904
C	-0.559524	-1.195454	0.614091
N	-1.006063	-2.147117	1.144076
N	-0.455397	1.24832	0.594161
H	0.11103	1.439296	1.410929
H	-1.427479	1.18927	0.872415
F	2.622578	0.0	0.0
