17

C	-0.389169	0.07924	-1.485172
C	0.0	0.0	0.0
Br	-0.202014	-1.722793	-2.289486
H	1.097647	0.0	0.0
N	-1.775269	0.470573	-1.627812
H	-1.860854	1.3191	-1.072919
H	-1.95489	0.708091	-2.598297
C	0.635431	0.974481	-2.176421
H	0.463185	1.997521	-1.824727
H	0.520723	0.94485	-3.26383
H	1.637202	0.666672	-1.859919
C	-0.586747	-1.117075	0.719877
N	-1.056221	-1.963215	1.389799
N	-0.364543	1.293792	0.628124
H	0.487194	1.637209	1.058961
H	-1.057094	1.161086	1.355069
F	2.613261	0.0	0.0
