17

C	-0.205209	0.057203	-1.538077
C	0.0	0.0	0.0
Br	0.178801	1.94405	-2.068006
H	1.098169	0.0	0.0
N	0.798964	-0.756356	-2.175283
H	1.667913	-0.619583	-1.632556
H	0.517653	-1.728934	-2.086647
C	-1.607088	-0.249629	-2.015866
H	-2.3164	0.407921	-1.51091
H	-1.853825	-1.288217	-1.769463
H	-1.681691	-0.111903	-3.095829
C	-0.453526	-1.306565	0.451266
N	-0.834805	-2.35861	0.817001
N	-0.643911	1.074759	0.763975
H	0.09102	1.732816	0.999747
H	-1.000196	0.702638	1.636065
F	2.625976	0.0	0.0
