17

C	-0.212279	-0.011816	-1.539055
C	0.0	0.0	0.0
Br	0.18102	1.840701	-2.160659
H	1.097442	0.0	0.0
N	0.781423	-0.864288	-2.143301
H	1.653671	-0.706488	-1.613709
H	0.495953	-1.829047	-2.000603
C	-1.619469	-0.333297	-1.992915
H	-1.698747	-0.254868	-3.078591
H	-2.321577	0.359155	-1.524318
H	-1.87523	-1.354185	-1.687941
C	-0.440654	-1.290228	0.51118
N	-0.817281	-2.326778	0.923646
N	-0.621221	1.10952	0.722694
H	0.131223	1.682817	1.085399
H	-1.161673	0.768218	1.507706
F	2.618553	0.0	0.0
