17

C	-0.10923	-0.078173	-1.537466
C	0.0	0.0	0.0
Br	-0.115901	2.21054	-2.228648
H	1.102984	0.0	0.0
N	1.025564	-0.62538	-1.982834
H	1.123434	-0.774662	-2.975462
H	1.889204	-0.431314	-1.387332
C	-1.414451	-0.455495	-2.18063
H	-1.607784	-1.511782	-1.96095
H	-2.215141	0.150316	-1.759689
H	-1.386678	-0.306101	-3.261214
C	-0.467535	-1.290938	0.509148
N	-0.849625	-2.314709	0.942766
N	-0.738628	1.070991	0.660938
H	-0.41699	1.937086	0.241621
H	-0.429934	1.077719	1.629125
F	2.69676	0.0	0.0
