17

C	-0.187945	-0.038159	-1.541944
C	0.0	0.0	0.0
Br	0.102707	1.849704	-2.182362
H	1.102813	0.0	0.0
N	0.864728	-0.823047	-2.124856
H	1.716693	-0.650934	-1.562099
H	0.612647	-1.80494	-2.053024
C	-1.56568	-0.437109	-2.024934
H	-1.763101	-1.473442	-1.730969
H	-1.626837	-0.356034	-3.111325
H	-2.31631	0.204931	-1.561818
C	-0.448511	-1.290013	0.510818
N	-0.800667	-2.332995	0.927521
N	-0.706441	1.080677	0.701464
H	-0.615883	0.897952	1.695968
H	-0.166291	1.921425	0.524042
F	2.646898	0.0	0.0
