17

C	-0.100882	-0.002273	-1.542005
C	0.0	0.0	0.0
Br	-0.120463	2.310769	-2.11716
H	1.095267	0.0	0.0
N	1.039946	-0.525769	-2.004733
H	1.899432	-0.357036	-1.392648
H	1.141949	-0.629613	-3.002555
C	-1.396379	-0.36176	-2.213939
H	-2.207587	0.221464	-1.783967
H	-1.354777	-0.169264	-3.286668
H	-1.584326	-1.427904	-2.039762
C	-0.469574	-1.312274	0.447092
N	-0.827712	-2.364803	0.831265
N	-0.730529	1.042628	0.715367
H	-0.417491	0.994345	1.679497
H	-0.395592	1.925005	0.344979
F	2.7002	0.0	0.0
