17

C	-0.150875	-0.214797	-1.52126
C	0.0	0.0	0.0
Br	-0.14029	1.911167	-2.395199
H	1.097358	0.0	0.0
N	0.965439	-0.861734	-1.920665
H	1.832962	-0.597919	-1.383477
H	1.048764	-1.087701	-2.89925
C	-1.475996	-0.682573	-2.066969
H	-1.509776	-0.605923	-3.155237
H	-2.279233	-0.081761	-1.644633
H	-1.613168	-1.727554	-1.771763
C	-0.447763	-1.24427	0.630025
N	-0.794552	-2.238744	1.153551
N	-0.740031	1.118645	0.581962
H	-0.357149	1.960368	0.163607
H	-0.495612	1.140208	1.567773
F	2.67873	0.0	0.0
