17

C	-0.055978	-0.144068	-1.525874
C	0.0	0.0	0.0
Br	-1.943623	0.033189	-2.179818
H	1.103714	0.0	0.0
N	0.7337	0.902239	-2.132886
H	1.655353	0.756803	-1.692855
H	0.392812	1.772877	-1.73112
C	0.494313	-1.491565	-1.944182
H	1.497529	-1.538385	-1.507243
H	-0.112621	-2.315034	-1.56796
H	0.552982	-1.539763	-3.032432
C	-0.577427	-1.121003	0.727961
N	-1.069242	-1.993346	1.348378
N	-0.465403	1.304553	0.444814
H	0.049023	1.564815	1.277212
H	-1.453747	1.283006	0.657297
F	2.628341	0.0	0.0
