17

C	-0.269529	-0.171853	-1.470527
C	0.0	0.0	0.0
Br	-2.456774	-0.62703	-1.671677
H	1.102118	0.0	0.0
N	-0.022217	0.995007	-2.142044
H	-0.345971	1.79931	-1.618816
H	-0.273397	0.987781	-3.117691
C	0.416365	-1.383302	-2.040706
H	0.031331	-2.299823	-1.594953
H	0.299405	-1.436749	-3.125422
H	1.468074	-1.244401	-1.760359
C	-0.430528	-1.139623	0.79793
N	-0.74164	-2.020344	1.513223
N	-0.476346	1.28621	0.490899
H	0.179191	1.616864	1.187935
H	-1.395202	1.196674	0.908775
F	2.558923	0.0	0.0
