17

C	-0.406505	0.020109	-1.481146
C	0.0	0.0	0.0
Br	-0.200973	-1.806248	-2.221211
H	1.106729	0.0	0.0
N	-1.797592	0.388358	-1.622161
H	-1.892309	1.244052	-1.079355
H	-1.98994	0.603957	-2.595631
C	0.600002	0.90198	-2.213899
H	0.47389	0.832257	-3.297876
H	0.41996	1.93597	-1.898153
H	1.608491	0.616861	-1.898952
C	-0.583255	-1.082718	0.770381
N	-1.052109	-1.897439	1.477679
N	-0.355916	1.322954	0.580378
H	-0.984022	1.20845	1.36805
H	0.518198	1.698544	0.935553
F	2.609324	0.0	0.0
