17

C	-0.28473	-0.011339	-1.473927
C	0.0	0.0	0.0
Br	-2.518083	-0.351543	-1.676071
H	1.096923	0.0	0.0
N	-0.002352	1.202776	-2.031917
H	-0.273718	1.965751	-1.424036
H	-0.261768	1.30541	-3.000289
C	0.322273	-1.192019	-2.180139
H	1.387298	-1.136689	-1.920328
H	-0.102048	-2.12758	-1.817632
H	0.177707	-1.130305	-3.261117
C	-0.44307	-1.210119	0.678661
N	-0.774371	-2.152637	1.299908
N	-0.452462	1.236167	0.624044
H	0.200014	1.471332	1.362339
H	-1.382185	1.127056	1.014233
F	2.546609	0.0	0.0
