18
Coordinates from ORCA-job run
  C   0.77209313105574      0.29729629589804      0.38082854361313
  C   -0.52176947242193      0.04456053853298     -0.40698242099094
  F   0.47805235589513      0.23439813718125      1.74631801409395
  H   -0.26725088755824      0.19281568275377     -1.46450879344666
  C   1.88665201760803     -0.69762239611445      0.10892575591103
  H   2.11707978171308     -0.73460633904977     -0.95778842608437
  H   1.58123160037418     -1.68701421844044      0.44844229073200
  H   2.78423281913717     -0.40509604880946      0.65554198761786
  C   1.25623496171957      1.66574862912492      0.10537172807311
  N   1.65400647563089      2.74066910191593     -0.14891722603161
  C   -1.59913012185991      1.05529292215501     -0.01553747047841
  H   -2.49715777974419      0.89345713188501     -0.61603958190498
  H   -1.86710254854745      0.93943484150673      1.03645942415723
  H   -1.27067085450910      2.08476080831922     -0.17525856713083
  C   -1.02090367592136     -1.38644518206936     -0.21123231146191
  H   -1.99643775099652     -1.50376401424441     -0.68814846724400
  H   -1.13820267096895     -1.60839050700995      0.85201062439253
  H   -0.35095738060615     -2.12749538353503     -0.65048510381714
