18
Coordinates from ORCA-job run
  C   0.75019973904095      0.17182717409015      0.68389802676110
  C   -0.73786321421253      0.04324112166943      0.33005201634983
  F   0.96379793920725     -0.53477561085344      1.87221907830023
  H   -1.26816137774620      0.41434133163719      1.21596576768885
  C   1.71804835875436     -0.37649472385765     -0.34878798040403
  H   1.63168235964909      0.15921880635250     -1.29492391836682
  H   1.52011121001662     -1.43614464242526     -0.51131996919269
  H   2.73805249421216     -0.26708712299757      0.02243347976281
  C   1.06994293203167      1.58475225061231      0.97050397716588
  N   1.31615834751178      2.71464918622464      1.17406852726868
  C   -1.13412200043904     -1.41542976321595      0.11211039627845
  H   -2.22311027291629     -1.49648362541654      0.07612278740628
  H   -0.77524248702365     -2.05119404402687      0.92274056835340
  H   -0.74658795982176     -1.79954375382173     -0.83480718282423
  C   -1.12233744306964      0.91055417446713     -0.86620011860089
  H   -0.85920135464176      1.96011139850478     -0.71709060720894
  H   -2.20193514482395      0.85818148961006     -1.02469363242736
  H   -0.64043212572904      0.55927635344681     -1.78229121631054
