18
Coordinates from ORCA-job run
  C   0.77549065848247      0.30173533430184      0.36982359237741
  C   -0.52568063933832      0.04102993589644     -0.40318173608783
  F   0.49359273497455      0.25452137224989      1.73903718416125
  H   -0.28086203697555      0.17903178027146     -1.46442268295446
  C   1.88723198886559     -0.69656697157152      0.09972790505655
  H   1.58428388268422     -1.68257669434622      0.45075335622952
  H   2.11001295039883     -0.74380538750715     -0.96815600350973
  H   2.78861299900883     -0.39861236136007      0.63694073658361
  C   1.25812839455598      1.66664961513665      0.07578012987639
  N   1.65309104100615      2.73909506182050     -0.19328264441412
  C   -1.59986036429661      1.05484203952011     -0.01135514937394
  H   -1.86094836377475      0.94590471172428      1.04311075985463
  H   -1.27226466295761      2.08317611794035     -0.17933360128464
  H   -2.50187379996984      0.88924666987647     -0.60472205243835
  C   -1.02206169150522     -1.38828048077008     -0.18876383089683
  H   -2.00316895829578     -1.51043988175881     -0.65290281225671
  H   -1.12687475019509     -1.60083334877475      0.87776612662897
  H   -0.35684938266786     -2.13311751264937     -0.62881927755172
