18

C	-0.381261	-0.009482	-1.448501
C	0.0	0.0	0.0
Cl	-2.512344	-0.234918	-1.388831
H	1.095567	0.0	0.0
N	-0.110558	1.173573	-2.055181
H	-0.405624	1.268141	-3.012832
H	-0.280954	1.96361	-1.447037
C	0.05071	-1.229218	-2.202282
H	-0.229856	-1.166593	-3.257029
H	-0.370416	-2.123027	-1.753158
H	1.143583	-1.256868	-2.102607
N	-0.397919	-1.223235	0.66047
H	-1.373917	-1.185911	0.930124
H	0.188968	-1.348633	1.475912
N	-0.398388	1.273462	0.599288
H	0.261638	1.488647	1.337997
H	-1.331113	1.194047	0.988459
H	2.830903	0.0	0.0
