18

C	-0.468354	-0.001968	-1.459633
C	0.0	0.0	0.0
Cl	-0.095456	1.62194	-2.197043
H	1.101839	0.0	0.0
N	0.284405	-0.979434	-2.223783
H	1.271485	-0.773385	-2.052857
H	0.113581	-1.857659	-1.737296
C	-1.957492	-0.23348	-1.617196
H	-2.220845	-0.205193	-2.675788
H	-2.200187	-1.218802	-1.211371
H	-2.521688	0.523971	-1.070431
N	-0.375884	-1.296226	0.571392
H	0.405155	-1.617536	1.134047
H	-1.177868	-1.154142	1.175367
N	-0.583078	1.085965	0.797613
H	0.001416	1.153137	1.62769
H	-0.425087	1.953562	0.294742
H	2.967169	0.0	0.0
