18

C	-0.386573	-0.009049	-1.454119
C	0.0	0.0	0.0
Cl	-2.454899	-0.195305	-1.428506
H	1.095575	0.0	0.0
N	-0.067506	1.173957	-2.062789
H	-0.404276	1.277608	-3.006277
H	-0.233919	1.963476	-1.452838
C	0.063828	-1.232354	-2.196799
H	-0.361517	-2.1279	-1.754091
H	1.1544	-1.255994	-2.080165
H	-0.198806	-1.17196	-3.256308
N	-0.413377	-1.221713	0.658658
H	0.148375	-1.333427	1.494272
H	-1.395456	-1.177615	0.905515
N	-0.40742	1.271378	0.599383
H	-1.352772	1.194994	0.957172
H	0.228309	1.472526	1.362898
H	2.88301	0.0	0.0
