18

C	-0.392995	0.043636	-1.484776
C	0.0	0.0	0.0
Cl	-0.188621	1.868533	-2.098441
H	1.093675	0.0	0.0
N	0.500543	-0.79332	-2.161496
H	1.460865	-0.647025	-1.837921
H	0.430969	-0.712303	-3.166535
C	-1.843806	-0.265523	-1.777467
H	-2.041305	-1.274585	-1.415446
H	-2.040486	-0.208226	-2.851837
H	-2.493481	0.440737	-1.259524
N	-0.433271	-1.286267	0.546561
H	-1.109647	-1.099747	1.277009
H	0.3779	-1.741817	0.946486
N	-0.587307	1.078292	0.799343
H	-0.404149	1.953782	0.318758
H	-0.021709	1.11453	1.645292
H	2.967532	0.0	0.0
