18

C	-0.576517	-0.00927	-1.411888
C	0.0	0.0	0.0
Cl	0.019392	-1.60069	-2.23521
H	1.101472	0.0	0.0
N	-1.994881	0.001035	-1.352684
H	-2.290588	-0.732346	-0.71714
H	-2.399579	-0.147701	-2.268545
C	-0.008071	1.10672	-2.255257
H	1.081337	1.045558	-2.237603
H	-0.366523	1.033935	-3.28673
H	-0.324098	2.05045	-1.81224
N	-0.544096	-1.157412	0.748047
H	-0.172548	-1.061454	1.689002
H	-0.090819	-1.985609	0.369156
N	-0.383478	1.250385	0.629144
H	0.315109	1.474214	1.329195
H	-1.296956	1.160703	1.058225
H	2.988056	0.0	0.0
