18

C	-0.670625	0.040268	-1.379793
C	0.0	0.0	0.0
Cl	-0.095538	1.534774	-2.25838
H	1.092673	0.0	0.0
N	-0.282909	-1.112862	-2.138075
H	-1.013798	-1.379111	-2.785112
H	-0.110524	-1.861778	-1.475393
C	-2.181582	0.204392	-1.251067
H	-2.588002	-0.664761	-0.721639
H	-2.643606	0.252624	-2.243335
H	-2.425391	1.120366	-0.710832
N	-0.306367	-1.307276	0.610945
H	0.515419	-1.561558	1.154656
H	-1.098521	-1.244183	1.241573
N	-0.383372	1.169527	0.787583
H	0.445583	1.466037	1.295913
H	-1.103813	0.938325	1.46066
H	2.862411	0.0	0.0
