15

C	-0.545354	0.034194	-1.423942
C	0.0	0.0	0.0
F	-1.982862	5.9e-05	-1.288432
H	1.089819	0.0	0.0
H	-0.347516	1.029688	-1.827467
N	-0.060418	-0.945354	-2.2947
H	-0.535205	-0.932928	-3.18489
H	-0.039881	-1.863065	-1.876951
N	-0.475953	-1.300582	0.637724
O	-1.26011	-1.258048	1.575654
O	-0.04697	-2.34193	0.133802
N	-0.433932	1.099387	0.79233
H	-1.31632	1.483002	0.491431
H	0.291799	1.796643	0.848609
Br	3.495495	0.0	0.0
