15

C	-0.447382	0.021175	-1.456603
C	0.0	0.0	0.0
F	-1.736594	0.629944	-1.553517
H	1.089781	0.0	0.0
H	0.22472	0.708372	-1.975717
N	-0.4067	-1.240898	-2.079021
H	-0.524925	-1.16161	-3.078406
H	-1.109949	-1.85159	-1.686397
N	-0.493044	-1.252801	0.68648
O	0.237675	-1.793197	1.504763
O	-1.648821	-1.61297	0.425834
N	-0.46244	1.11138	0.778758
H	0.297177	1.755787	0.941471
H	-1.250266	1.564997	0.341282
Br	3.545032	0.0	0.0
