15

C	-0.448881	-0.039375	-1.459984
C	0.0	0.0	0.0
F	-1.827733	-0.300433	-1.461199
H	1.090987	0.0	0.0
H	-0.313898	0.975939	-1.837939
N	0.204765	-0.95746	-2.333491
H	0.317852	-1.841425	-1.851304
H	1.140862	-0.602458	-2.504666
N	-0.425312	-1.302668	0.678991
O	-0.045976	-2.36006	0.178303
O	-1.126032	-1.228787	1.68727
N	-0.500798	1.149253	0.668631
H	0.004347	1.28939	1.533191
H	-1.483977	1.03721	0.879073
Br	3.471962	0.0	0.0
