15

C	-0.408311	0.166401	-1.457981
C	0.0	0.0	0.0
F	-0.198959	-1.068959	-2.109388
H	1.088874	0.0	0.0
H	-1.481106	0.361832	-1.560683
N	0.361988	1.216559	-2.003478
H	1.351869	1.044172	-1.837156
H	0.189646	1.322167	-2.994021
N	-0.573368	-1.298644	0.477793
O	0.175815	-2.208092	0.808439
O	-1.806111	-1.344655	0.504477
N	-0.465258	1.039075	0.874699
H	-1.313913	1.465237	0.52645
H	0.257931	1.740905	0.948847
Br	3.523739	0.0	0.0
