15

C	-0.390294	-0.044543	-1.482418
C	0.0	0.0	0.0
F	-1.787903	-0.142072	-1.546063
H	1.090226	0.0	0.0
H	-0.120062	0.933607	-1.892093
N	0.191769	-1.058811	-2.297727
H	0.202764	-1.930211	-1.778851
H	1.164968	-0.80816	-2.445763
N	-0.508365	-1.266237	0.647737
O	-1.450484	-1.194123	1.428879
O	0.027997	-2.320468	0.29579
N	-0.478657	1.13273	0.719865
H	0.227958	1.853026	0.734908
H	-1.357301	1.477671	0.362076
Br	3.471804	0.0	0.0
