18

C	0.0	0.0	0.0
C	-0.392976	0.031634	-1.537039
Cl	1.738821	0.0	0.0
H	-1.421404	0.38717	-1.522303
N	-0.675873	1.104442	0.701206
O	-0.598128	1.105972	1.952211
O	-0.707427	2.178714	0.019364
N	-0.323192	-1.37559	0.730735
O	-1.224865	-1.451348	1.548869
O	0.391301	-2.318789	0.394297
C	-0.351752	-1.34095	-2.18263
H	-1.081535	-2.013753	-1.731223
H	-0.589007	-1.213053	-3.241105
H	0.634823	-1.801314	-2.094752
N	0.361625	0.973148	-2.343224
H	1.333867	0.695041	-2.398132
H	0.311996	1.861227	-1.853695
H	-2.093638	0.0	0.0
