13
Coordinates from ORCA-job run
  C   -0.79074443904781      0.20251917389534     -0.30126236915627
  C   0.47724734006324     -0.49128528156512      0.15897037368847
  Br  -1.18594309420180      1.73334742563279      0.98318123808737
  H   0.60145285792106     -1.34705392687434     -0.51359082666326
  H   -0.63783911344820      0.73381254120591     -1.24093392486768
  H   0.31394604151994     -0.89127569629497      1.16559391869555
  N   -1.87001455939783     -0.69825876372198     -0.42957091313235
  H   -2.71337221131115     -0.24310811075177     -0.75206209024982
  H   -2.06378794472057     -1.17349556033308      0.44276280072034
  C   1.72570955198778      0.38046332756667      0.13002534487296
  H   1.88021659868832      0.80671471946096     -0.86483675900431
  H   2.60807942541197     -0.21349384636281      0.37774070811548
  H   1.65704954653503      1.20111399814239      0.84398249889352
