15
Coordinates from ORCA-job run
  C   -0.68282773232161      0.24308954966586     -0.20105486155495
  C   0.82537250242833      0.13464423006994     -0.39752202569315
  F   -1.27112816287027      0.34705630364510     -1.40068687414344
  H   1.10858988893864      1.02528202952789     -0.97551037415047
  N   -1.22696943348888     -0.97245306991440      0.51415892308878
  O   -0.82034084978923     -1.08699969940829      1.66244199808757
  O   -1.98478084110427     -1.69677153998155     -0.10528716009326
  N   -1.11180955943355      1.45087264235407      0.60370059364676
  O   -0.29867204994582      2.36577532565694      0.68168119498961
  O   -2.25778678189958      1.42415663619027      1.03225086714486
  N   1.04625215478091     -1.13632637261828     -1.07448940584669
  H   2.00086362285759     -1.44678172510994     -0.95336138979889
  H   0.85285533844155     -1.04617070367998     -2.06376570654079
  C   1.56838456811100      0.17647853279170      0.86216911477086
  N   2.25199733529520      0.21914786081067      1.81527510609318
