15
Coordinates from ORCA-job run
  C   -0.42847567469968      0.43631319928275      0.53130024109266
  C   0.91275106051717      0.18625161478978     -0.14877050062080
  F   -0.28012938211175      1.20027502906573      1.61457866638370
  H   1.34081473865862      1.19106075075677     -0.23701976519963
  N   -1.32773220439167      1.16620835946856     -0.45665548322640
  O   -2.28048888594724      0.55687607281508     -0.91618674222080
  O   -0.96568303929172      2.30844926781368     -0.69490547008194
  N   -1.15539067896002     -0.82789048550337      0.93934437922575
  O   -0.84937390573028     -1.84893049368816      0.33376789841535
  O   -1.98963933141107     -0.70006970410887      1.82169862173246
  N   0.71675352499104     -0.33753592751022     -1.47874715507837
  H   1.53253188861572     -0.16985682375125     -2.05153433612260
  H   0.51405662728017     -1.32772904266589     -1.45238590674833
  C   1.77457446451247     -0.59649153496175      0.75597603694402
  N   2.48343079796824     -1.23693028180285      1.43953951550494
