15
Coordinates from ORCA-job run
  C   -0.53290817278394      0.02628424153086      0.40008268959270
  C   0.77246803323818     -0.02995154867653     -0.37401223784790
  F   -0.49322789737725     -0.72689676849154      1.49331090483950
  H   0.65056223230717      0.60541754487746     -1.25226847056908
  N   -0.92298184054032      1.43980439566258      0.79811879964555
  O   -0.46606418322640      2.34109912816129      0.10518902492960
  O   -1.68176834513682      1.52930982403000      1.75309098382693
  N   -1.65791375579227     -0.46650365828997     -0.50313039875109
  O   -1.76962284605165      0.15493785869147     -1.55106400329651
  O   -2.32018241453187     -1.40483016705292     -0.09822845161713
  N   0.94260148061966     -1.40576833457739     -0.79429214822866
  H   1.61437500833477     -1.46819813181761     -1.54739755755475
  H   1.25769873981037     -1.98618198049981     -0.02678637722199
  C   1.85427822309741      0.51322914992583      0.46699538096977
  N   2.75168573803298      0.87824844652624      1.13139186128312
