15
Coordinates from ORCA-job run
  C   -0.43904022331600      0.40654939038263      0.45310505546665
  C   1.00192800542836      0.21712615474057     -0.06421557487045
  F   -0.44783436708690      1.17112248239184      1.54840871281237
  H   1.39882017067355      1.23614761264033     -0.12463791215494
  N   -1.33085618619186      1.09728436400705     -0.56303404196094
  O   -2.53563325773707      0.95274544641187     -0.40596041786971
  O   -0.76260932416021      1.80358040529903     -1.38940378424460
  N   -1.09840438319554     -0.91643047934923      0.76749404207399
  O   -1.40251019937605     -1.13683142831929      1.92727526499346
  O   -1.22652630470873     -1.65143455645124     -0.20641168052591
  N   1.20373655924465     -0.42554352097845     -1.33291126793816
  H   0.85926772950034      0.15552586165988     -2.08443248758495
  H   0.76139164645564     -1.33392001400322     -1.36947212425107
  C   1.72951976466979     -0.49387665709055      0.99767538541176
  N   2.28775036980003     -1.08204506134123      1.84652083064248
