15
Coordinates from ORCA-job run
  C   -0.69133442579716      0.26575263992953     -0.31042426167259
  C   0.82988487837992      0.15460598121810     -0.38748488679309
  F   -1.19880051713994      0.53264328296159     -1.51010714903781
  H   1.12131721005721      1.03728354169296     -0.96716461542012
  N   -1.33897250441161     -0.99345301582334      0.22005653141490
  O   -0.64842853952908     -1.67411872928686      0.96969315922339
  O   -2.49038570168922     -1.19393973757039     -0.13267603574706
  N   -1.08383349066715      1.40035772128014      0.62617815276928
  O   -0.79302455570625      2.50957698156810      0.19830255213892
  O   -1.60604738588993      1.10985252943280      1.69331775749968
  N   1.16157614341914     -1.03468490089051     -1.13964239651644
  H   2.02494256694142     -0.90802823329451     -1.64894368580502
  H   1.24819702145700     -1.83584391687691     -0.52771807913719
  C   1.45276389661688      0.27186081466133      0.94155607716959
  N   2.01014540395876      0.35713504099795      1.97205687991357
