15
Coordinates from ORCA-job run
  C   -0.53850661881159      0.02639258597286      0.38994165245254
  C   0.78385703186986     -0.01725058071824     -0.35589103944050
  F   -0.46893106881255     -0.60684048639684      1.55562775868879
  H   0.64053312212458      0.52017905281189     -1.29431051358652
  N   -1.03410650399070      1.44155990650322      0.63436868188367
  O   -1.81687791311565      1.57302048440930      1.56481641706874
  O   -0.63016697082564      2.29692437728313     -0.14424361777663
  N   -1.60814473164770     -0.63409528702312     -0.47240675824238
  O   -1.74175922344809     -0.13125709786270     -1.57961542507805
  O   -2.21053165252389     -1.57226921947143      0.01736830052830
  N   1.05108332678159     -1.41358411816224     -0.63631221615988
  H   1.74120751409411     -1.50441384380866     -1.36964508081715
  H   1.38672385303976     -1.89446690525657      0.18907725291899
  C   1.80693711656228      0.68134879604526      0.44218059049536
  N   2.63868271870362      1.23575233567413      1.05904399706474
