15
Coordinates from ORCA-job run
  C   -0.58693087026896      0.31927775035806      0.45628635051434
  C   0.89988617203690      0.24941894009264      0.12792964740633
  F   -0.78859487871979      0.89766130145039      1.64125625425637
  H   1.24589150879796      1.27319798173034      0.30912803816660
  N   -1.26612018606727      1.16099697103907     -0.61515729921355
  O   -0.95890761989311      2.34273004397761     -0.57530558892052
  O   -2.01075510282120      0.59271555653673     -1.39792917370528
  N   -1.27787413073493     -1.02812254217440      0.46339676611725
  O   -0.73673067338189     -1.91819179382342     -0.18318501724602
  O   -2.31832913945268     -1.08884761554705      1.09948497479647
  N   1.09628228722928     -0.05124391952615     -1.26949212982748
  H   2.01332442522978      0.24680750488907     -1.57257644997856
  H   0.98128285086517     -1.03992600917564     -1.44722613544747
  C   1.56885600880243     -0.63241637193273      1.10199791886964
  N   2.13871934837832     -1.32405779789453      1.86139184421189
