15
Coordinates from ORCA-job run
  C   -0.42229939281888      0.41486298255472      0.46632545883707
  C   1.00164558253534      0.20379361395931     -0.08766951867533
  F   -0.39674815230055      1.21506996311399      1.53564120408979
  H   1.41812700682406      1.21517761344147     -0.13831610442785
  N   -1.32764852129901      1.08129142379035     -0.55463599114769
  O   -2.52307257215823      0.82983199433148     -0.48225141420978
  O   -0.77359267910135      1.88077338055269     -1.30175634051416
  N   -1.08186712070139     -0.89247562839513      0.84357799081793
  O   -1.14200991309455     -1.70297555259856     -0.07479602204050
  O   -1.46343579899603     -1.02375659844782      1.99386075711271
  N   1.15623173963888     -0.41482816029906     -1.37456056736495
  H   0.83466860092676      0.19868225528952     -2.10977746631303
  H   0.67803339696727     -1.30363259559670     -1.42486147067253
  C   1.73972741386151     -0.54291922821643      0.94175905305792
  N   2.30224040971618     -1.15789546347983      1.76846043145040
