15
Coordinates from ORCA-job run
  C   -0.68445541161373      0.24173834648703     -0.19388429564410
  C   0.82195893526072      0.13657084379112     -0.40477602052469
  F   -1.28562241398609      0.34234305197371     -1.38745966600477
  H   1.09904404445434      1.02915341389328     -0.98288912931455
  N   -1.21769185258684     -0.97461506631167      0.52843218824090
  O   -1.96809853418968     -1.70974816802227     -0.08713404146317
  O   -0.80985683539958     -1.07898180767605      1.67727642795788
  N   -1.10976052843514      1.44879724077206      0.61363365160156
  O   -0.29156509340112      2.35806778498701      0.70236283578690
  O   -2.25878564721064      1.42613473411727      1.03384002510089
  N   1.03928867235278     -1.13332768187885     -1.08488967661746
  H   2.00161360755075     -1.42930260880658     -0.99044964442995
  H   0.81768829333382     -1.04726378988132     -2.06874996914838
  C   1.57566863340716      0.17510733443479      0.84885738017484
  N   2.27057413046323      0.21532637212048      1.79382993428408
