15
Coordinates from ORCA-job run
  C   -0.57834669138416      0.31953685473703      0.46783919810024
  C   0.90313631820132      0.24661352680427      0.11547613718836
  F   -0.75851373868946      0.89149359668667      1.65936786927609
  H   1.25453076448212      1.26880104876712      0.29526923772205
  N   -1.27154692800185      1.16980484615933     -0.58726692875364
  O   -2.03120055005271      0.60888767166879     -1.36084579313512
  O   -0.95921085534263      2.35014899654233     -0.54575989835714
  N   -1.27386818720963     -1.02534697317717      0.47801733609181
  O   -0.74821897983713     -1.91261909293873     -0.18473790849661
  O   -2.30298796246922     -1.08660126157353      1.13233554961860
  N   1.07772838248230     -0.04909445002065     -1.28531122738134
  H   1.98851183909879      0.25225777634122     -1.60308366318973
  H   0.95945442708712     -1.03664479096153     -1.46637819089183
  C   1.58310187494629     -0.64154317610702      1.07621523354731
  N   2.15643028668886     -1.35669457292815      1.81086304866094
