15
Coordinates from ORCA-job run
  C   -0.51991009134145     -0.02424856064352      0.41572302378043
  C   0.76164205016737      0.02980248517703     -0.39788058074271
  F   -0.41298632787751     -0.84626816874383      1.45333604649934
  H   0.58522713907137      0.71683062019551     -1.22651009605387
  N   -0.95718521741280      1.34039684520904      0.92010380643588
  O   -1.68564438113649      1.33226110796613      1.90248235394314
  O   -0.56558668068984      2.30529891662646      0.27424709180523
  N   -1.65123845520346     -0.50527000907549     -0.48568256830910
  O   -1.82230774289958      0.17805549069480     -1.48595166339244
  O   -2.25948058043538     -1.49728178593158     -0.12609726014880
  N   0.97653474994772     -1.30546560112645     -0.91600689689242
  H   1.62320475557084     -1.28776234446564     -1.69295326209397
  H   1.34172317406775     -1.92177998772528     -0.20046658265170
  C   1.84395350028517      0.56259495899375      0.44914118567330
  N   2.74105410788628      0.92083603284908      1.11751540214768
