15
Coordinates from ORCA-job run
  C   -0.53524507460569     -0.02830495441513      0.39577281250521
  C   0.77435966019881      0.05996014582414     -0.36818997504392
  F   -0.41202153966572     -0.74342393435346      1.50827384079980
  H   0.58511046306883      0.65860785876861     -1.26011412989540
  N   -1.10336249064124      1.33390651656625      0.75454396947297
  O   -0.75353725817939      2.26947840152185      0.04463005089861
  O   -1.88318415431823      1.34927058190943      1.69676493549380
  N   -1.58118415997725     -0.68038660740911     -0.50157379911521
  O   -1.76250327123664     -0.10167550138166     -1.56407307529649
  O   -2.11964168009749     -1.68793838532641     -0.07975657982261
  N   1.11508880043361     -1.29282710932228     -0.75868881256173
  H   1.49006111035959     -1.81531058230155      0.02345098432582
  H   1.79817842025320     -1.28717714871102     -1.50420356186511
  C   1.77346398505838      0.74496776154691      0.47185597321003
  N   2.61241718934921      1.22085295708342      1.14230736689421
