15
Coordinates from ORCA-job run
  C   -0.68561188355760      0.23848983211983     -0.19644266508437
  C   0.82478022810322      0.16144021027095     -0.38895610407363
  F   -1.27184494745491      0.36260158056113     -1.39516532227107
  H   1.09515757341957      1.07398667378430     -0.93874921431800
  N   -1.21087120970908     -1.00475621405589      0.48524725828608
  O   -1.93686499744880     -1.73657368966366     -0.16263012766116
  O   -0.82151080618894     -1.13153641614497      1.63826711151640
  N   -1.13991805534871      1.41594021628666      0.63826166310607
  O   -2.29940097952048      1.37097330008967      1.02690151925645
  O   -0.33135656439459      2.32716930133899      0.77929923923912
  N   1.07160184467706     -1.08521713322156     -1.10120451357827
  H   2.03756440299150     -1.36788509276780     -1.00319450742952
  H   0.85967270437412     -0.97553987335359     -2.08483653147027
  C   1.56206634339627      0.17495005458818      0.87485777592359
  N   2.24653634666133      0.17495725016777      1.82834441855858
