15
Coordinates from ORCA-job run
  C   -0.68247419226834      0.29520005854916     -0.10966728820663
  C   0.79000342643794      0.12599473479607     -0.46710487674258
  F   -1.37892897613473      0.52500751621872     -1.23154868990525
  H   1.06868385776514      1.04689880486859     -0.99833090720538
  N   -1.22468029181279     -0.94454061390971      0.56446792768392
  O   -2.06833356729696     -1.58661510259538     -0.03424116347444
  O   -0.72646088906389     -1.16244557712259      1.66061081060195
  N   -0.95982755212102      1.45361195813140      0.82330385535730
  O   -2.07127963158382      1.46505298583912      1.33513434142920
  O   -0.07771930471391      2.30062501099842      0.91558520810748
  N   0.86785299385423     -1.09348695614999     -1.26025322732848
  H   1.81476081954677     -1.44771943535909     -1.28019601474014
  H   0.56329188751446     -0.91567619643754     -2.20897730408054
  C   1.65329131258128      0.01837215983996      0.70931752796739
  N   2.43082010729564     -0.08127934766713      1.58289980053621
