15
Coordinates from ORCA-job run
  C   -0.59456648135413      0.04894238673388      0.29660057770348
  C   0.82842234060100     -0.05843773039681     -0.22315638295273
  F   -0.75764307454753     -0.61972748942893      1.43243760108934
  H   0.87336565048759      0.51021810611133     -1.15295977227800
  N   -1.03848810418098      1.48647821064554      0.51043248114995
  O   -1.94154470333311      1.64631632804229      1.31951606357219
  O   -0.47184402225925      2.33208436667139     -0.17150306112069
  N   -1.54310965577348     -0.51687902125783     -0.75451630832370
  O   -1.45419243058415      0.01637967031877     -1.85198259315158
  O   -2.28058632963042     -1.42015398745523     -0.40284212881870
  N   1.05850387221299     -1.46098142562541     -0.50443505029009
  H   1.22421213449937     -1.98227293063653      0.34762418140297
  H   1.85494095069804     -1.57569252410714     -1.11670074538392
  C   1.74361902526939      0.55542599034376      0.75558413697709
  N   2.49891082789469      1.03630005004092      1.51590100042441
