15
Coordinates from ORCA-job run
  C   -0.54050641256960      0.32136598573978      0.48679287480504
  C   0.90537489798991      0.23800749578480     -0.01231433531317
  F   -0.60975338001675      0.80630031770972      1.72680448375880
  H   1.22463346667107      1.27623820950173     -0.18681942447678
  N   -1.39148351285711      1.21250642214718     -0.40073725739205
  O   -0.93884688992508      1.49376543146548     -1.50548921133928
  O   -2.45625731139177      1.56558538242631      0.08197836609104
  N   -1.18376491726323     -1.05450132127847      0.45593025813917
  O   -1.92503290065973     -1.29983416496776     -0.48294652163643
  O   -0.85209262631249     -1.78195260347672      1.37938783943865
  N   0.96330524208121     -0.62587319850871     -1.17673194526784
  H   1.89164194559199     -1.00717264851266     -1.29769498402199
  H   0.69687842838191     -0.10816062556541     -2.00361214916010
  C   1.74347294915742     -0.30762788781842      1.05984946493011
  N   2.47243102112224     -0.73064679464687      1.87660254144483
