15
Coordinates from ORCA-job run
  C   -0.68796498380626      0.27637308836470     -0.30760165252462
  C   0.82893902522864      0.12489503925244     -0.39977296739031
  F   -1.20283069836567      0.52936640629848     -1.50729708838832
  H   1.13524828676362      0.98766916157785     -1.00142790467011
  N   -1.36086351987005     -0.95375124181261      0.25828130786404
  O   -2.52170046007933     -1.13133355338616     -0.07549674134547
  O   -0.67832511636461     -1.63616884119839      1.01372798918079
  N   -1.04020706340754      1.44115544424817      0.60737138923313
  O   -0.72828100304050      2.53293642745148      0.15055549062841
  O   -1.55464070132986      1.18755986516783      1.68763288694029
  N   1.12136082913327     -1.08816060630440     -1.13017933193190
  H   1.19635719931743     -1.87773784986916     -0.50198661257123
  H   1.98077575233045     -0.99384369679287     -1.65305226513851
  C   1.47061579285820      0.25363839092044      0.91919299290838
  N   2.04251666063222      0.34640196608222      1.94105250720544
