15
Coordinates from ORCA-job run
  C   -0.49320750754415     -0.01526579994462      0.44727487789089
  C   0.73315254599511      0.05304632698507     -0.44631519600839
  F   -0.23924656780310     -0.64384252178428      1.58939638458582
  H   0.43756569344434      0.57844057249361     -1.35538128884247
  N   -1.07029862555013      1.35378530246498      0.76459908496767
  O   -0.81658380448832      2.24620272715438     -0.03572609218966
  O   -1.75837275202516      1.41513753797689      1.77392492508426
  N   -1.59753346065372     -0.75890029277098     -0.29518886764623
  O   -1.90173726467124     -0.26207525412953     -1.37106127948024
  O   -2.05734800732709     -1.74841527417325      0.24562236244341
  N   1.08224491025665     -1.31465340885781     -0.77149953179970
  H   1.68730368470216     -1.34564183801226     -1.58096671573698
  H   1.55031279397746     -1.76715342092068      0.00397327563826
  C   1.78248366889535      0.82790373785987      0.24020905065516
  N   2.66126469279185      1.38043160565860      0.79013901043821
