15
Coordinates from ORCA-job run
  C   -0.54897285619828      0.33061435740029      0.47074629175675
  C   0.92324103556004      0.10056734182860      0.11562305341155
  F   -0.70530167316340      0.65276076484719      1.75485194053716
  H   1.39648958699446      1.09357287092126      0.13138432132737
  N   -1.15945310949469      1.44688095343518     -0.35816625477738
  O   -2.22043286932752      1.88532059579001      0.05840532719404
  O   -0.54057752517259      1.80328140840950     -1.35540717098015
  N   -1.35915305878203     -0.91906519176702      0.17053572518392
  O   -1.23945520769648     -1.80321595410681      1.00476874822317
  O   -2.00805370942413     -0.92596560123160     -0.86379673207613
  N   1.00804596464226     -0.60008456062459     -1.15203112061170
  H   0.91684454873685      0.05633356353899     -1.91585716438440
  H   1.88426901504050     -1.09756674483064     -1.23232337378766
  C   1.54476595455754     -0.69988124213449      1.17533702045617
  N   2.10674390372746     -1.32155256147586      1.99692938852728
