15
Coordinates from ORCA-job run
  C   -0.53263382843086      0.41093012908744      0.45082306863637
  C   0.91662872981838      0.22373433526343      0.01674918682741
  F   -0.60901315698167      1.16279798484391      1.54986838297467
  H   1.31216415941409      1.24560976568534      0.01471161821606
  N   -1.27276886909272      1.12058168112510     -0.67403729581533
  O   -2.10307691224934      0.48186116701627     -1.30079126519853
  O   -0.92164163027763      2.27970762088965     -0.83457796769977
  N   -1.26804044675639     -0.88667595306261      0.71248363704571
  O   -2.24964723064492     -0.80524307484184      1.43405520398195
  O   -0.81863274917534     -1.88509693623900      0.16104784893124
  N   0.98063800833782     -0.28589543230670     -1.33120913888543
  H   0.81505703325193     -1.28315523345969     -1.35070301372591
  H   1.87702631004798     -0.07790090781656     -1.74924852436573
  C   1.63587036986972     -0.53931866311777      1.05356434203676
  N   2.23907021286895     -1.16193648306698      1.84626391704052
