15
Coordinates from ORCA-job run
  C   -0.47851903870593     -0.03667664424193      0.36663177861942
  C   0.86449320599799      0.03873992087284     -0.36701392180548
  F   -0.42269518177912     -0.84596399080193      1.41927339062102
  H   0.72554789427312      0.70120401277984     -1.22345022724886
  N   -0.93466290500398      1.34258582383829      0.81690634183431
  O   -1.12480095929684      1.50947053300365      2.00979657366377
  O   -1.04327967980175      2.15074057086443     -0.09865569237812
  N   -1.58638411618892     -0.53564947689641     -0.55122311367924
  O   -2.56173215968157     -1.00918136572262      0.01523194865629
  O   -1.41044654450067     -0.39617273888258     -1.75605773248816
  N   1.36164223844124     -1.23297321233205     -0.82502427765473
  H   0.81917505988203     -1.57887224174494     -1.60436965190400
  H   1.39866192482555     -1.91837461621969     -0.08207007776146
  C   1.82161734683823      0.66003713105743      0.56000638849398
  N   2.57038291470062      1.15108629442568      1.31901827303127
