15
Coordinates from ORCA-job run
  C   -0.60383879124474      0.29771830004582     -0.25123598940947
  C   0.92488926649992      0.19227354742707     -0.33691287266718
  F   -1.09066884150048      0.55459301008236     -1.47356917648348
  H   1.23097798770772      1.10791994715052     -0.85402992604909
  N   -1.20709439644076     -0.99227420775372      0.25215536206942
  O   -1.98915351167426     -1.57520726565933     -0.48234667179194
  O   -0.80403953271251     -1.33132072987609      1.35775316293395
  N   -1.09253140742084      1.40842313043236      0.65498462717246
  O   -0.37939013711706      2.40552489207527      0.67209270617913
  O   -2.17334267297706      1.24292542788730      1.20511299189752
  N   1.37104242280201     -0.94806913579555     -1.10227739235760
  H   1.19689693200189     -1.82256533520842     -0.62420731512394
  H   0.95700197111253     -0.96245675365316     -2.02527910619302
  C   1.55545759907973      0.20296298060818      0.98515315167966
  N   2.10379311188391      0.21855219223738      2.02260644814359
