15
Coordinates from ORCA-job run
  C   -0.44355278769445      0.41911535029080      0.53248351749937
  C   0.91545241162452      0.19407832058148     -0.12056514019535
  F   -0.32606599481501      1.15263286141151      1.64035740005466
  H   1.34082350244251      1.20266968493052     -0.17007706468182
  N   -1.32121702823488      1.17322699003805     -0.45679276057930
  O   -2.25974517365108      0.57377773244124     -0.95676672959870
  O   -0.95807043621041      2.32288464573779     -0.65422100001260
  N   -1.17410886103643     -0.85910334366755      0.88602940690013
  O   -0.84741278165468     -1.86155867421080      0.26053842526618
  O   -2.03137797555620     -0.75967254418193      1.74979917867250
  N   0.75508105790959     -0.29308905904848     -1.46900459022295
  H   0.55765409728733     -1.28465555222827     -1.47570548645051
  H   1.58327759296192     -0.10471023146258     -2.01681378515899
  C   1.75799405753260     -0.61010375807244      0.78369329759697
  N   2.45226831909466     -1.26649242255935      1.46704533091043
