15
Coordinates from ORCA-job run
  C   -0.60362721370121      0.25006311799756     -0.22150365604183
  C   0.93833900221222      0.12381414356756     -0.27202602833015
  F   -1.09946817775846      0.23334187370476     -1.46416519265758
  H   1.29644230130334      1.13175542620726     -0.51716707667884
  N   -1.27376403772435     -0.88700648794838      0.52782811107876
  O   -2.27815183362081     -0.62243140293444      1.17388916563748
  O   -0.76835638062600     -1.98899498695576      0.34305322872621
  N   -1.03077633771338      1.53169565933880      0.45938019418859
  O   -0.55051819308647      1.68511488228785      1.57537223352811
  O   -1.77406870821247      2.27748119976798     -0.15832184674692
  N   1.44467635687904     -0.78260796663882     -1.27208677925038
  H   1.17209669959749     -0.48490393393468     -2.19949968712342
  H   1.10858863721534     -1.72184054442841     -1.10452077238125
  C   1.47769714358861     -0.23238759345566      1.04458025105149
  N   1.93989074164711     -0.51309338657562      2.08618785499971
