15
Coordinates from ORCA-job run
  C   -0.48792281382041     -0.05685557823179      0.35215165369800
  C   0.87283755072661      0.04992359646327     -0.34378147842867
  F   -0.47348485468226     -0.95137891283419      1.33449727664588
  H   0.76566937968429      0.78252414353485     -1.14591042547468
  N   -0.92629670191757      1.29054458655640      0.90565980635895
  O   -1.14095098334268      1.36171791881169      2.10395641135675
  O   -0.99456998851921      2.17459063708915      0.05918569773721
  N   -1.58372388331155     -0.45362386263571     -0.62844676748894
  O   -1.37834260421477     -0.21361181218021     -1.81273145970621
  O   -2.57921908592785     -0.95643857158521     -0.12582865430743
  N   1.35637657092863     -1.19026025442074     -0.89354614710102
  H   1.36226840634432     -1.93441978188728     -0.20852824666160
  H   0.82638949304979     -1.46034275920786     -1.71055817000336
  C   1.82003073080778      0.57366414536867      0.65110641117018
  N   2.55993878419489      0.98396650515896      1.46477409220494
