15
Coordinates from ORCA-job run
  C   -0.55334245637294      0.02764057922609      0.36971367559205
  C   0.79243739262890     -0.01327122589337     -0.33326688204615
  F   -0.52582526109197     -0.61757952244210      1.53019733408287
  H   0.67839236616884      0.52973682398849     -1.27234875399469
  N   -1.04916377593206      1.44308297581525      0.61257968359290
  O   -1.85991125983746      1.57098338479123      1.51934926799724
  O   -0.61450156416695      2.30423544897627     -0.14301880771729
  N   -1.59684963834793     -0.61890081917511     -0.53445869387224
  O   -2.22084859602115     -1.55779266081462     -0.07365596124067
  O   -1.68999859633923     -0.10623530232515     -1.64136705500513
  N   1.06854437990102     -1.40739209913526     -0.61311975127003
  H   1.37851139089299     -1.89321487263290      0.21939604611881
  H   1.78050060116003     -1.49428772623082     -1.32573267221935
  C   1.79130335035745      0.67461176507375      0.50425676238949
  N   2.62275166700045      1.15838325077824      1.17847580759219
