15
Coordinates from ORCA-job run
  C   -0.70945417026345      0.31100280007057     -0.21211469307349
  C   0.78520110138645      0.14261088398018     -0.47505051232502
  F   -1.34047536110382      0.66451727691437     -1.32777483704554
  H   1.04882617816795      1.04308501901451     -1.04065522353373
  N   -1.34870013455245     -0.94921220136291      0.32706261159475
  O   -2.54084190509722     -1.08479436720578      0.10180978207930
  O   -0.60827778676435     -1.69594107257844      0.95669034301294
  N   -0.93723631682128      1.40572385372893      0.82093741526988
  O   -0.64433934246289      2.52426721074723      0.41951324418233
  O   -1.34752071728825      1.07765114242123      1.92550168911650
  N   0.97044013039705     -1.01667413376746     -1.31935053184536
  H   1.77349793466627     -0.89750356628765     -1.92087465947640
  H   1.09093293335033     -1.85225344594250     -0.76161263872502
  C   1.56472415492985      0.16078761956826      0.77403643668853
  N   2.24322330145580      0.16473298069944      1.73288157408031
