14

C	0.0	0.0	0.0
C	-0.544539	0.226551	-1.399453
Cl	1.785663	0.0	0.0
H	-1.643882	0.158765	-1.289974
H	-0.33903	-0.966671	0.366752
C	-0.436738	1.077709	0.888091
N	-0.674212	1.985689	1.595018
N	-0.144029	-0.990797	-2.238593
O	-0.273366	-2.09936	-1.72658
O	0.248373	-0.785318	-3.387024
N	-0.146865	1.458776	-1.962548
H	0.814852	1.438072	-2.272773
H	-0.744085	1.70555	-2.737285
Br	-3.597656	0.0	0.0
