14

C	0.0	0.0	0.0
C	-0.551309	-0.073346	-1.414417
Cl	1.779844	0.0	0.0
H	-1.648584	-0.125264	-1.28563
H	-0.343104	-0.867692	0.560924
C	-0.429715	1.232484	0.658611
N	-0.623863	2.240413	1.228457
N	-0.145267	-1.435729	-1.985271
O	-0.267282	-2.413577	-1.253667
O	0.241188	-1.469224	-3.15359
N	-0.167863	1.018873	-2.222275
H	-0.776622	1.098304	-3.02351
H	0.790053	0.937665	-2.536153
Br	-3.595661	0.0	0.0
