14

C	0.0	0.0	0.0
C	-0.547606	-0.112447	-1.437238
Cl	1.787893	0.0	0.0
H	-1.599772	-0.399335	-1.312105
H	-0.338082	-0.858139	0.579836
C	-0.427559	1.2532	0.611399
N	-0.612614	2.31224	1.083818
N	0.148259	-1.302618	-2.057337
O	0.79249	-1.150209	-3.088909
O	0.017345	-2.364011	-1.449822
N	-0.452978	1.028349	-2.268266
H	0.424025	1.520328	-2.166338
H	-1.235743	1.638328	-2.072634
Br	-3.539092	0.0	0.0
