14

C	0.0	0.0	0.0
C	-0.418605	-0.470198	-1.428938
Cl	1.778158	0.0	0.0
H	0.499696	-0.608803	-2.004014
H	-0.339097	-0.766433	0.694536
C	-0.435598	1.307733	0.483532
N	-0.614709	2.360667	0.972561
N	-1.062804	0.650729	-2.27191
O	-1.839407	0.296526	-3.14883
O	-0.605045	1.780118	-2.129651
N	-1.124372	-1.691965	-1.391557
H	-2.029091	-1.513056	-0.942121
H	-1.295437	-2.008278	-2.338206
Br	-3.455699	0.0	0.0
