13

C	0.0	0.0	0.0
C	-0.622054	-0.022244	-1.363902
F	1.350229	0.0	0.0
H	-1.743144	-0.000288	-1.115985
H	-0.325415	0.889192	0.534478
H	-0.348627	-0.901783	-1.936982
N	-0.628706	-1.12452	0.695899
O	-1.737815	-0.718888	1.243159
O	-0.42364	-2.276099	0.241933
N	-0.312741	1.171348	-2.13798
O	0.00253	1.029251	-3.326094
O	-0.417149	2.268524	-1.579072
H	-2.82863	0.0	0.0
