16
Coordinates from ORCA-job run
  C   -0.74201428829429     -0.33604963515990     -0.15368079462636
  C   0.73571184575847     -0.00929319815664     -0.42153074917440
  Br  -1.10110824157249     -2.07154668214068     -1.11492287520809
  H   0.97098636440062     -0.04688025590413     -1.48239198855163
  N   -0.97785535150157     -0.60137434507847      1.22208412092820
  H   -1.91321977654483     -0.95128921238976      1.37980779703646
  H   -0.79293872297931      0.22834563921391      1.77361718756594
  N   -1.49758846082555      0.73402451976051     -0.71712990323361
  H   -2.47109809299942      0.66380288088842     -0.44856021506383
  H   -1.43623868228108      0.76494797784980     -1.72866964701182
  N   1.68291823582382     -0.95288469960170      0.26783292878704
  O   2.09265138800023     -1.87664967783641     -0.42618669800208
  O   1.96269598273628     -0.72129646619330      1.43622945928700
  N   1.06970070324450      1.38476671960024      0.03473765198634
  O   1.75426094532200      2.03776810417122     -0.74986655817187
  O   0.66313615171263      1.75460833097690      1.12863028345271
