16
Coordinates from ORCA-job run
  C   -0.81855264264168      0.06157626063136     -0.11611975557619
  C   0.66698368143355      0.31257401704656     -0.42004927821131
  Br  -1.80889342400849      1.63787790747390     -0.89031815525576
  H   0.83143999281469      0.53407580355804     -1.47175430506113
  N   -1.16590175902369     -1.14822592098815     -0.78630856079636
  H   -1.13761279712122     -1.05733236810160     -1.79569996247849
  H   -2.08932514363707     -1.45721811549010     -0.50955183654275
  N   -1.07880912565222      0.09083175945505      1.28036135798388
  H   -2.07046084630714      0.06596861757660      1.47589894051381
  H   -0.58932937267908     -0.66691811701231      1.74192667244606
  N   1.49257086724037     -0.90680835993822     -0.11242172494973
  O   1.28757552199330     -1.50142129252834      0.93785639774584
  O   2.33311243577134     -1.19260416985280     -0.96239306834570
  N   1.24322746744538      1.46129108428112      0.36173961453416
  O   1.63299488036351      1.23344252956975      1.49893761218345
  O   1.26998026400848      2.53289036431913     -0.23310394818979
