16
Coordinates from ORCA-job run
  C   -0.78708083062464     -0.17896122287469     -0.00035676112278
  C   0.64442572064028      0.02592287492785     -0.48675581791762
  Br  -1.18682257695347     -2.11706670090007     -0.87495299812241
  H   0.68439042661622      0.04700670233140     -1.57190106098744
  N   -0.93602284358861     -0.18841406075859      1.37432041996234
  H   -1.87999257474167     -0.39725957997330      1.66968633065656
  H   -0.26076938097400     -0.77741073588863      1.84081058238057
  N   -1.60958541279055      0.77141247778051     -0.62264046497811
  H   -1.70914544397197      0.61430482466993     -1.61588917979901
  H   -2.51955847257271      0.84335998123896     -0.18742073734225
  N   1.64432488033825     -0.99819700871536     -0.04691392626363
  O   1.52379261735721     -1.50156854675099      1.06482383160826
  O   2.55140635884431     -1.20609453741189     -0.84688533791527
  N   1.16210644148169      1.36547441029280     -0.00817430320157
  O   1.58958825347861      1.42131857797284      1.13802769504856
  O   1.09094283746105      2.27517254405923     -0.82477827200621
