16
Coordinates from ORCA-job run
  C   -0.70556525062204     -0.37944101246047     -0.27219645162572
  C   0.59471746187031      0.27554395383444      0.26019967366795
  Br  -0.25500671832246     -1.65027734409728     -1.69797361152166
  H   0.36487931585266      0.80471860678700      1.18842509409630
  N   -1.44963115355853     -1.12199777200256      0.70856392884948
  H   -1.77231879671641     -0.49948225092690      1.44239460246980
  H   -0.89505139328365     -1.86692044080788      1.11142546899479
  N   -1.46199814069825      0.68920776575895     -0.85527296404765
  H   -2.34944228090733      0.32216163675759     -1.17890639383522
  H   -1.63007214303814      1.43239566057871     -0.18339892727965
  N   1.11468359510702      1.31589945497441     -0.68145473804463
  O   0.92812562601873      2.47577998178429     -0.31710273550757
  O   1.63368345170661      0.94016421834725     -1.72073545025310
  N   1.69626548029584     -0.68774237235247      0.61645425601576
  O   2.84514319069281     -0.33901402199017      0.38839113150316
  O   1.34358775560283     -1.71199606418491      1.19018711651796
