16
Coordinates from ORCA-job run
  C   -0.80482614117696     -0.31267617774132     -0.15940070829234
  C   0.72238155242435     -0.12174248955723     -0.29141461303173
  Br  -1.36830786849424     -0.55047109871407     -2.11671585137981
  H   1.19340783470410     -1.02477888957689     -0.67258700936229
  N   -1.21357886556346     -1.52585750158912      0.47003846370775
  H   -0.91925635862814     -2.34476743627479     -0.04438524837113
  H   -0.85829813218663     -1.55782093119314      1.41900245250507
  N   -1.38048233542032      0.75521912645597      0.52469328284193
  H   -2.37228339661165      0.60892693656551      0.65634443805193
  H   -1.16835889063838      1.65881563150523      0.12438637828328
  N   1.30486776784085      0.14185133538963      1.07857601858080
  O   1.67424058886128      1.27516444166197      1.34945074477226
  O   1.32511447519399     -0.83797874469478      1.81612715470352
  N   1.16504597209936      1.00323758422435     -1.17386371687484
  O   2.19694583983419      0.79682940003239     -1.80528499328539
  O   0.50238795776163      2.03504881350627     -1.17396679284901
