16
Coordinates from ORCA-job run
  C   -0.75601928208578     -0.30573413641176     -0.12555261268524
  C   0.74233023381813     -0.12572011836571     -0.40947529621830
  Br  -1.60640935227506     -0.24221817106024     -1.97005350261446
  H   1.12700718709362     -0.99798041706113     -0.93239092514662
  N   -0.97743868115215     -1.65887832129944      0.30399266653343
  H   -1.94085490809882     -1.92912793703060      0.15713635532217
  H   -0.73305178263932     -1.74331520629104      1.28433505740801
  N   -1.21663700137400      0.67525817566554      0.76908964427361
  H   -1.04363805597832      1.61922965584594      0.44543117758505
  H   -2.19118223025869      0.54173238340907      1.00468499248557
  N   1.48759466701887     -0.01016355168353      0.90584375886221
  O   1.50645276643216     -1.03454993122655      1.57557455835623
  O   1.98494382829183      1.06865469554624      1.19591116184193
  N   1.10193373603302      1.08435716411762     -1.20944380695922
  O   2.04595768588890      0.94114084172598     -1.97997165993636
  O   0.46801118928561      2.11631487411954     -1.01511156910801
