16
Coordinates from ORCA-job run
  C   -0.74916794325724     -0.29514713582518     -0.05727269483352
  C   0.74762654375629     -0.10769933201477     -0.28663337383469
  Br  -1.40613486063008     -0.47230060174709     -2.11116323575672
  H   1.17258294391823     -0.97575437065612     -0.78216771848790
  N   -0.95043338328998     -1.52530533737831      0.58504726292943
  H   -0.73637636950620     -2.31706539601947     -0.00516747086293
  H   -1.88102064274995     -1.61703172196965      0.96991897365957
  N   -1.37075074698385      0.75189508199044      0.59835332965589
  H   -2.37243817621461      0.63576324916619      0.66991377104283
  H   -1.12704371614832      1.65545055274257      0.21786441262288
  N   1.45794685391467      0.02364299120718      1.04342124380632
  O   1.44463710864380      1.12635362875564      1.57597005352869
  O   1.97417478226673     -1.00389802971136      1.46405564019863
  N   1.14704810781497      1.08260905990021     -1.10222115944444
  O   0.48800711600155      2.11228159028197     -1.00480035249117
  O   2.16134238246400      0.92720577127766     -1.77511868173283
