16
Coordinates from ORCA-job run
  C   -0.77118261439634     -0.17775108931554      0.01507599936253
  C   0.65640870794410      0.36739874193044      0.17187374943608
  Br  -0.83173104261471     -1.25000381107246     -1.76396841427236
  H   0.61877711347683      1.17373001989536      0.90477353143721
  N   -1.05388004237020     -1.00687041833376      1.12418669170488
  H   -0.67241857627854     -1.93622156286993      1.01570967227486
  H   -2.04608813211970     -1.04386392311766      1.31379619596130
  N   -1.67121923070912      0.90983508019589     -0.03131032789793
  H   -2.60712112903642      0.58873642775742     -0.24950544098543
  H   -1.38794265478882      1.59108855723897     -0.72452210392207
  N   1.21639835155696      0.95502891637233     -1.09444855226999
  O   0.59518818924143      1.92378448415978     -1.52037774921920
  O   2.21445745706183      0.44836047325723     -1.58246272371050
  N   1.65479526838619     -0.62002091663442      0.68431260242025
  O   1.50771334019343     -1.80622960463701      0.41597574430120
  O   2.57784499445307     -0.12000137482662      1.31989112537914
