16
Coordinates from ORCA-job run
  C   -0.79960542230271     -0.27642890831040     -0.08676479202439
  C   0.59919802200434      0.34021067442470      0.15990784741141
  Br  -0.72380355121379     -1.33658149872301     -1.78815024312538
  H   0.49311664586223      1.13379661157801      0.89978608560304
  N   -1.14242321954564     -1.02160189484662      1.06505780719829
  H   -2.12336440869859     -1.26916128773453      1.00944003849983
  H   -0.57665329213015     -1.85409152231624      1.16441294705607
  N   -1.82900856075660      0.69846025997088     -0.28704065701898
  H   -1.91715829891158      1.27022976138512      0.54692561983612
  H   -1.63945120154188      1.28672370147549     -1.08728865624167
  N   1.17740090806133      0.97706249965859     -1.07200120537590
  O   2.16193283818691      0.46435183973624     -1.58348235048052
  O   0.57419615191370      1.97200748819368     -1.46132025939553
  N   1.64787174428739     -0.58186235233444      0.70614691546125
  O   2.56865792389342     -0.01359341287313      1.28425130556605
  O   1.52909372089162     -1.78952195928435      0.52911959703030
