16
Coordinates from ORCA-job run
  C   -0.74283844660159     -0.34124260943929     -0.11583335286644
  C   0.73373496255195     -0.06736383921384     -0.43713667886617
  Br  -1.65629297581745     -0.24238707727292     -1.92817042162047
  H   1.14663862332997     -0.89426227320217     -1.00984445461392
  N   -0.87780175906022     -1.72186349048269      0.25784519500088
  H   -0.59365236664480     -1.83599159920845      1.22440911743885
  H   -1.83111567529220     -2.03557844829814      0.13258235440066
  N   -1.22481664089391      0.57372970670492      0.83619294830785
  H   -1.11146097535314      1.53844486466837      0.54907359372299
  H   -2.18383020181705      0.37992725652830      1.09297955863565
  N   1.51488525732248      0.03192538631016      0.85864624323104
  O   1.61028412637851     -1.01829418609377      1.48028298073937
  O   1.96347812959126      1.12245674389191      1.18175234832457
  N   1.00238827828478      1.19349396917593     -1.19277746199975
  O   0.32166901354709      2.18038504281959     -0.93351008257944
  O   1.92673065047436      1.13462055311213     -1.99749188725574
