16
Coordinates from ORCA-job run
  C   -0.74635277895754     -0.35447902644668     -0.06673688634367
  C   0.67514926924530      0.02383457336522     -0.51091081965792
  Br  -1.17647231876191     -2.07464384091545     -1.02705735439948
  H   0.77096013533419      0.02379596525781     -1.59391305278126
  N   -0.79896799931535     -0.66264219107472      1.31896449157313
  H   -1.70121730739666     -1.03420725128745      1.58400278344862
  H   -0.55748804245662      0.15437127470616      1.86761873308351
  N   -1.59556743371346      0.70672451427905     -0.49869794337084
  H   -1.66503653202882      0.76446161446642     -1.50857178000246
  H   -2.52475805684344      0.60180586692791     -0.11087184892469
  N   1.72879053352245     -0.90992613259212      0.01909737112987
  O   2.13797385823329     -0.71392994258273      1.15557897189990
  O   2.08362817973518     -1.78917901175286     -0.75815058326271
  N   1.02806370792657      1.41403598633647     -0.05759222803979
  O   1.58028140846458      2.11212428372056     -0.90525903033176
  O   0.76201337701225      1.73885331759242      1.09249917597956
