16
Coordinates from ORCA-job run
  C   -0.77168431815401     -0.41739214898451     -0.03012566863685
  C   0.73388019896544     -0.18236984691858      0.22258698980285
  Br  -0.78543697460720     -2.35457190566627     -0.70420732856630
  H   1.09730224781766     -0.82378639394146      1.02204150774279
  N   -1.58658508635902     -0.45079907332391      1.14055262318642
  H   -1.33270199296233     -1.20446790660261      1.76461304887899
  H   -1.53270225905387      0.43971171633726      1.62216223401649
  N   -1.28505750422825      0.54294957836906     -0.89791036395548
  H   -2.28122983415831      0.42303021760665     -1.02289145299510
  H   -0.78569841108610      0.61175804686861     -1.77399915816428
  N   0.94043281461265      1.24731955831700      0.66788624467549
  O   1.44417414130615      2.03778226679332     -0.11685519715136
  O   0.54406825309342      1.48525347656433      1.80402001027501
  N   1.63448752822544     -0.40415887650082     -0.95250783069608
  O   2.73856600618621     -0.86773062658931     -0.68379068723012
  O   1.22818519040210     -0.08152808232873     -2.06357497118248
