16
Coordinates from ORCA-job run
  C   -0.76612890888958     -0.19700851414917      0.02744256965654
  C   0.68559410207209      0.25600005376431      0.24498111636301
  Br  -0.79222545435166     -1.40575235670796     -1.66167700733519
  H   0.76661245414316      0.60767482830649      1.27372197052080
  N   -1.19083411278201     -0.92240842390259      1.16285445837416
  H   -0.53560404748436     -1.65896817654792      1.39346181842639
  H   -2.10292214604670     -1.33346269234915      1.00199096328308
  N   -1.56718241872696      0.95413781951387     -0.15195217246492
  H   -1.52314798103339      1.30718884620520     -1.09777562478848
  H   -2.52456488890985      0.78273922190512      0.12384449541514
  N   1.12933564969879      1.38817382293890     -0.62400458687924
  O   1.99913093919685      2.09563092792651     -0.12497518518377
  O   0.64060639072763      1.50533824739980     -1.74118728516761
  N   1.68971091191344     -0.85242798955316      0.08325711121657
  O   2.52631127378601     -0.75923068046748     -0.80118448277685
  O   1.56530823668654     -1.76862493428268      0.89020184134041
