16
Coordinates from ORCA-job run
  C   -0.73457541487620     -0.34916836699683     -0.23910186159028
  C   0.59335188215671      0.33368121067781      0.17659318353335
  Br  -0.56238959639577     -1.04449181652442     -2.06739533382715
  H   0.42176727658229      0.90195335121038      1.09432871297982
  N   -0.88649958287269     -1.46503872997242      0.64597882266052
  H   -0.84583283906205     -1.17801936157416      1.61932825186128
  H   -1.77769074285112     -1.91036887057465      0.46092633896078
  N   -1.88044594734022      0.51918618534030     -0.24588534170453
  H   -2.06247696099547      0.85948569631556      0.69281526246600
  H   -1.75184262842072      1.30116340374130     -0.87568389611117
  N   1.13856392775402      1.33297123452085     -0.80937633278771
  O   2.35369275942414      1.40981768158656     -0.91581444756144
  O   0.30979785112420      2.04894817159734     -1.35979189252016
  N   1.64913959831333     -0.67225627134942      0.51320081473782
  O   2.17318578085566     -1.28155942297965     -0.40590027699279
  O   1.86325463660391     -0.80730409501857      1.71677799589562
