15

C	-0.558266	0.005167	-1.421257
C	0.0	0.0	0.0
Cl	-0.061191	-1.531614	-2.234809
H	1.097336	0.0	0.0
H	-0.388092	-0.900412	0.494081
C	-2.078888	0.088839	-1.469638
H	-2.498196	-0.77205	-0.941834
H	-2.382607	1.009002	-0.967277
H	-2.447705	0.089025	-2.497496
C	0.00658	1.114114	-2.197114
N	0.389362	2.016293	-2.844458
N	-0.436387	1.243004	0.660359
H	0.41056	1.684867	0.998375
H	-1.020423	1.04516	1.46127
F	2.652814	0.0	0.0
