15

C	-0.562544	0.044621	-1.419185
C	0.0	0.0	0.0
Cl	-0.05451	-1.462074	-2.281862
H	1.097418	0.0	0.0
H	-0.385685	-0.915797	0.468232
C	-2.083826	0.117102	-1.460653
H	-2.393493	1.017511	-0.927292
H	-2.494422	-0.763453	-0.960683
H	-2.456706	0.147732	-2.487109
C	-0.007242	1.180902	-2.160551
N	0.380122	2.107731	-2.769842
N	-0.435601	1.222744	0.697574
H	0.411008	1.660977	1.042114
H	-1.013332	1.003206	1.496657
F	2.653172	0.0	0.0
