15

C	-0.558226	0.049854	-1.422625
C	0.0	0.0	0.0
Cl	0.19036	-1.267741	-2.406884
H	1.09806	0.0	0.0
H	-0.370346	0.902165	0.507403
C	-2.068935	-0.139984	-1.480669
H	-2.298343	-1.081821	-0.982697
H	-2.556891	0.68191	-0.946686
H	-2.429485	-0.160124	-2.511041
C	-0.202053	1.321486	-2.057166
N	0.013138	2.367274	-2.547994
N	-0.463286	-1.228208	0.666921
H	0.380869	-1.733596	0.911614
H	-0.932639	-0.997928	1.533223
F	2.653024	0.0	0.0
