15

C	-0.556952	0.042807	-1.423317
C	0.0	0.0	0.0
Cl	0.171109	-1.298756	-2.391408
H	1.097997	0.0	0.0
H	-0.370243	0.905451	0.50151
C	-2.069345	-0.123752	-1.478831
H	-2.543547	0.714432	-0.957696
H	-2.313273	-1.052944	-0.964852
H	-2.429915	-0.154583	-2.508833
C	-0.183405	1.300879	-2.074931
N	0.02851	2.335443	-2.58981
N	-0.47363	-1.220961	0.675708
H	-0.894704	-0.980954	1.562713
H	0.365329	-1.749566	0.881017
F	2.657498	0.0	0.0
