15

C	-0.267501	0.04989	-1.500571
C	0.0	0.0	0.0
Cl	-2.020469	0.424946	-1.885872
H	1.099791	0.0	0.0
H	-0.433687	-0.90543	0.439621
C	0.6407	1.097762	-2.123033
H	0.346105	2.070254	-1.7295
H	1.647133	0.858634	-1.753253
H	0.581972	1.096196	-3.213495
C	-0.016943	-1.267232	-2.090407
N	0.171832	-2.320631	-2.576247
N	-0.415241	1.247543	0.633635
H	0.328619	1.524141	1.261602
H	-1.267951	1.128941	1.164806
F	2.68941	0.0	0.0
