15

C	-0.31005	-0.076269	-1.504326
C	0.0	0.0	0.0
Cl	-0.076355	1.575939	-2.210982
H	1.097796	0.0	0.0
H	-0.440405	0.904946	0.432659
C	0.692634	-1.026565	-2.147443
H	1.677822	-0.728746	-1.763348
H	0.473647	-2.035131	-1.790721
H	0.638523	-0.998608	-3.23827
C	-1.702974	-0.443046	-1.771602
N	-2.827379	-0.736888	-1.952729
N	-0.437401	-1.248414	0.625969
H	0.313723	-1.56912	1.222654
H	-1.270672	-1.120786	1.184151
F	2.708241	0.0	0.0
