15

C	-0.281215	0.040899	-1.496323
C	0.0	0.0	0.0
Cl	-2.00065	0.570368	-1.863176
H	1.09898	0.0	0.0
H	-0.34795	0.951085	0.420549
C	0.712847	0.999295	-2.141696
H	0.501631	2.013016	-1.793041
H	1.701108	0.705082	-1.756215
H	0.658401	0.973519	-3.232159
C	-0.152083	-1.294878	-2.083576
N	-0.032176	-2.340077	-2.605308
N	-0.583887	-1.16201	0.660498
H	-1.186351	-0.879027	1.418362
H	0.176719	-1.701013	1.054166
F	2.710193	0.0	0.0
