15

C	-0.202881	0.013615	-1.517274
C	0.0	0.0	0.0
Cl	-1.944904	0.379972	-1.979464
H	1.095378	0.0	0.0
H	-0.371451	0.955839	0.387
C	0.74164	1.041783	-2.121461
H	0.438145	2.035739	-1.781508
H	0.736012	1.01353	-3.215263
H	1.728361	0.806797	-1.689735
C	0.061556	-1.316827	-2.068815
N	0.255374	-2.390198	-2.502499
N	-0.564742	-1.1154	0.731591
H	0.045171	-1.913846	0.613571
H	-1.485689	-1.361143	0.381836
F	2.698853	0.0	0.0
