15

C	-0.192218	0.115605	-1.52012
C	0.0	0.0	0.0
Cl	-1.908444	0.598915	-1.986744
H	1.095144	0.0	0.0
H	-0.460653	-0.916337	0.37634
C	0.793278	1.129505	-2.08194
H	0.523189	2.123556	-1.718961
H	0.794381	1.136339	-3.173777
H	1.769215	0.84621	-1.654585
C	0.016161	-1.195148	-2.136404
N	0.170875	-2.24998	-2.630199
N	-0.417083	1.163477	0.766158
H	0.340954	1.8343	0.759243
H	-1.247695	1.596457	0.381734
F	2.699547	0.0	0.0
