15

C	-0.234527	-0.084238	-1.531959
C	0.0	0.0	0.0
Cl	-0.019945	1.573175	-2.223125
H	1.094735	0.0	0.0
H	-0.462942	0.906553	0.395863
C	0.824523	-1.002015	-2.138797
H	0.828822	-0.947166	-3.229522
H	0.612113	-2.031688	-1.836847
H	1.781535	-0.694253	-1.687886
C	-1.59664	-0.505275	-1.866725
N	-2.688096	-0.903129	-2.051776
N	-0.436227	-1.180779	0.728529
H	0.282668	-1.888535	0.660399
H	-1.316881	-1.557953	0.397767
F	2.719122	0.0	0.0
