17

C	-0.391596	0.011861	-1.487192
C	0.0	0.0	0.0
Cl	0.14922	1.50777	-2.199742
H	1.090545	0.0	0.0
N	0.235701	-1.164706	-2.240398
O	0.423514	-2.168445	-1.569154
O	0.438801	-1.025254	-3.435621
N	-1.900077	-0.104547	-1.747127
O	-2.297642	-1.039093	-2.424265
O	-2.580056	0.782399	-1.249446
N	-0.531805	-1.237972	0.675007
O	0.168673	-1.757779	1.526413
O	-1.681139	-1.574925	0.380015
N	-0.442518	1.109488	0.776426
H	-1.295566	1.529595	0.43636
H	0.305556	1.78216	0.867687
Cl	3.210886	0.0	0.0
