17

C	-0.528551	0.041797	-1.434349
C	0.0	0.0	0.0
Cl	0.237157	1.340407	-2.292736
H	1.093969	0.0	0.0
N	-0.315241	-1.253104	-2.248162
O	-1.321931	-1.89581	-2.52055
O	0.835476	-1.50435	-2.549092
N	-2.049997	0.24155	-1.427467
O	-2.627749	-0.231375	-0.453728
O	-2.571101	0.797304	-2.381139
N	-0.38861	-1.288901	0.704483
O	-0.793061	-1.202557	1.858207
O	-0.212757	-2.334163	0.088711
N	-0.438607	1.165994	0.685919
H	0.297863	1.473364	1.306377
H	-1.272491	0.973346	1.222645
Cl	3.180148	0.0	0.0
