17

C	-0.494722	0.003627	-1.437273
C	0.0	0.0	0.0
Cl	-2.199184	-0.210243	-1.682586
H	1.08777	0.0	0.0
N	-0.047349	1.368728	-2.033551
O	-0.895489	2.147437	-2.430052
O	1.160835	1.532911	-1.997908
N	0.18441	-1.03109	-2.331795
O	0.221307	-0.770547	-3.534049
O	0.707675	-1.985466	-1.769686
N	-0.378019	-1.276513	0.752726
O	-1.569927	-1.432965	1.03283
O	0.529986	-2.032814	1.079867
N	-0.547433	1.143252	0.634997
H	0.056381	1.474603	1.375574
H	-1.487489	0.980296	0.975026
Cl	2.6962	0.0	0.0
