17

C	-0.456458	-0.110259	-1.46147
C	0.0	0.0	0.0
Cl	0.410567	-1.308912	-2.358553
H	1.116501	0.0	0.0
N	-1.974221	-0.260474	-1.648928
O	-2.656658	0.434547	-0.904981
O	-2.385169	-1.016844	-2.518885
N	-0.158054	1.238762	-2.166611
O	0.820751	1.845597	-1.783691
O	-0.894421	1.529879	-3.094617
N	-0.353173	-1.1981	0.82229
O	-0.461731	-1.016748	2.039073
O	-0.416545	-2.300458	0.268923
N	-0.474849	1.200734	0.669704
H	0.087202	1.959271	0.291019
H	-0.153727	1.092925	1.629206
Cl	3.085927	0.0	0.0
