17

C	-0.449138	0.004397	-1.454214
C	0.0	0.0	0.0
Cl	0.652803	0.989195	-2.391845
H	1.087874	0.0	0.0
N	-0.49324	-1.382954	-2.092719
O	0.466949	-2.092709	-1.854093
O	-1.391421	-1.594014	-2.893137
N	-1.888297	0.543906	-1.593305
O	-2.710096	-0.078592	-0.927776
O	-2.121815	1.495546	-2.320284
N	-0.388614	-1.273986	0.759189
O	-1.531572	-1.351835	1.226352
O	0.492056	-2.126564	0.930774
N	-0.51498	1.166627	0.6254
H	0.088864	1.430342	1.395257
H	-1.464783	1.019654	0.951597
Cl	3.006602	0.0	0.0
