17

C	-0.47119	-0.004291	-1.45661
C	0.0	0.0	0.0
Cl	0.24839	1.399202	-2.332578
H	1.115306	0.0	0.0
N	0.031525	-1.208336	-2.200971
O	1.319925	-1.418714	-1.93858
O	-0.290448	-1.243266	-3.468711
N	-1.961179	0.169599	-1.627754
O	-2.390143	1.245722	-1.02353
O	-2.399708	-0.007366	-2.852892
N	-0.490515	-1.177658	0.760461
O	-1.779147	-1.106898	1.008885
O	0.277286	-1.422169	1.801713
N	-0.431076	1.197329	0.732621
H	-0.076785	1.127344	1.698052
H	0.038784	2.015103	0.3208
Cl	2.61972	0.0	0.0
