17

C	-0.602915	0.027178	-1.402878
C	0.0	0.0	0.0
Cl	-2.35666	0.120339	-1.332944
H	1.115927	0.0	0.0
N	-0.131806	1.258737	-2.229876
O	-0.156807	2.344666	-1.683197
O	0.149562	1.029652	-3.398617
N	-0.148339	-1.152792	-2.276627
O	1.058175	-1.316755	-2.270752
O	-0.990458	-1.751245	-2.925457
N	-0.408328	-1.348126	0.644669
O	-0.365815	-2.364325	-0.041902
O	-0.723794	-1.313785	1.831355
N	-0.419911	1.090145	0.786063
H	0.294826	1.310291	1.464939
H	-1.303488	0.925559	1.24702
Cl	3.198553	0.0	0.0
