17

C	-0.556057	0.019481	-1.428068
C	0.0	0.0	0.0
Cl	-2.290095	-0.213843	-1.44526
H	1.09042	0.0	0.0
N	-0.20373	1.415663	-1.98816
O	1.026776	1.602436	-2.076406
O	-1.04336	1.981595	-2.682239
N	0.123313	-0.990847	-2.390344
O	1.317188	-1.14152	-2.207517
O	-0.563886	-1.425224	-3.307389
N	-0.414453	-1.316882	0.624228
O	-0.283262	-2.334442	-0.05698
O	-0.778024	-1.292922	1.803642
N	-0.479388	1.147478	0.682121
H	0.132611	1.357567	1.465452
H	-1.431813	1.013157	1.012188
Cl	3.202916	0.0	0.0
