12

C	0.0	0.0	0.0
C	-0.452997	0.040078	-1.454759
Cl	1.793046	0.0	0.0
H	-1.549206	0.048669	-1.363908
H	-0.368062	-0.902417	0.486436
H	-0.12516	-0.90013	-1.923723
C	-0.423439	1.183952	0.752597
N	-0.548063	2.17674	1.368644
N	0.040455	1.236621	-2.122952
H	-0.590826	1.490259	-2.869208
H	0.960554	1.082937	-2.512222
H	-2.885372	0.0	0.0
