12

C	0.0	0.0	0.0
C	-0.553045	-0.174688	-1.428081
Cl	1.789981	0.0	0.0
H	-1.232611	0.661938	-1.617815
H	-0.327706	-0.835017	0.614062
H	0.277808	-0.145187	-2.137515
C	-0.40089	1.263998	0.62622
N	-0.546576	2.310506	1.140115
N	-1.226548	-1.467886	-1.489128
H	-1.53383	-1.607612	-2.449013
H	-2.083853	-1.260877	-0.934194
H	-2.892269	0.0	0.0
