12

C	0.0	0.0	0.0
C	-0.459996	-0.150426	-1.496554
Cl	1.787294	0.0	0.0
H	0.320582	0.334169	-2.092009
H	-0.367139	-0.8092	0.629067
H	-0.407144	-1.223841	-1.711299
C	-0.40466	1.292668	0.550268
N	-0.564017	2.393522	0.929477
N	-1.741522	0.368625	-1.872702
H	-2.490889	0.094888	-1.180808
H	-1.7167	1.382804	-1.82054
H	-3.515292	0.0	0.0
