12

C	0.0	0.0	0.0
C	-0.593779	0.013814	-1.42147
Cl	1.78613	0.0	0.0
H	0.228146	-0.012316	-2.141395
H	-0.314777	-0.924838	0.482075
H	-1.149883	0.953358	-1.542673
C	-0.403738	1.1362	0.835021
N	-0.554779	2.069676	1.533961
N	-1.419717	-1.179529	-1.558456
H	-2.248586	-0.935741	-0.953369
H	-1.772954	-1.206924	-2.512139
H	-3.150179	0.0	0.0
