12

C	0.0	0.0	0.0
C	-0.549283	0.21926	-1.424308
Cl	1.786314	0.0	0.0
H	-1.249618	1.057917	-1.375777
H	-0.328682	-0.969922	0.363723
H	0.282172	0.457233	-2.094431
C	-0.408557	1.048898	0.940909
N	-0.518909	1.930571	1.710159
N	-1.196976	-1.020231	-1.846142
H	-2.06144	-0.989072	-1.266667
H	-1.495321	-0.898191	-2.811276
H	-2.856509	0.0	0.0
