12

C	0.0	0.0	0.0
C	-0.436623	0.058658	-1.479707
Cl	1.789996	0.0	0.0
H	-1.466327	0.412609	-1.460339
H	-0.366034	-0.907475	0.471522
H	0.217259	0.76308	-2.004214
C	-0.443083	1.168929	0.767619
N	-0.52146	2.170046	1.382502
N	-0.420817	-1.233615	-2.143953
H	0.43366	-1.731354	-1.920883
H	-1.199436	-1.757883	-1.754018
H	-2.696828	0.0	0.0
