12

C	0.0	0.0	0.0
C	-0.474942	-0.016346	-1.499318
Cl	1.787183	0.0	0.0
H	0.31528	0.495462	-2.063445
H	-0.361896	-0.862533	0.557493
H	-0.456663	-1.069361	-1.803445
C	-0.406809	1.231074	0.675798
N	-0.6311	2.253918	1.207751
N	-1.74335	0.573212	-1.815524
H	-1.67739	1.577793	-1.682471
H	-2.500671	0.258322	-1.151967
H	-3.538814	0.0	0.0
