16
Coordinates from ORCA-job run
  C   -0.47563305128378      0.20013761165648      0.30650668483280
  C   0.88555583641236     -0.40693048236289     -0.02196133470707
  Br  -0.21480869813429      1.75987809070226      1.50408327649355
  H   0.67995264965530     -1.31626004779135     -0.60565442416028
  H   1.34657318665322     -0.73802067427457      0.91308726098512
  N   -1.08254418977549      0.71192902531137     -0.90338347615912
  H   -2.01365826998148      1.06353788113047     -0.71038881699667
  H   -1.15973436192339     -0.04459169556343     -1.57691381463449
  C   -1.34484891915253     -0.78520618084104      1.08003478972004
  H   -1.52849452646777     -1.66246457645183      0.44964848685898
  H   -2.30615663336332     -0.33374977597153      1.33472367655108
  H   -0.86118343698580     -1.11097637413551      2.00310311329328
  C   1.83630440276084      0.49544445341229     -0.79809909078348
  H   2.10901225657427      1.37069157329911     -0.20761071942108
  H   1.37781808037103      0.84466223287285     -1.72290718784434
  H   2.75184567464082     -0.04808106099271     -1.04426842402833
