16
Coordinates from ORCA-job run
  C   -0.59337089230192      0.49435249213856      0.21084972232779
  C   0.90014848186634      0.71003899361105     -0.02426269581586
  Br  -1.28871746934303      2.15022015383149      1.04123381611845
  H   1.00854284893225      1.62266059232409     -0.61490346173128
  H   1.37957219244647      0.88638563767920      0.94307866042877
  N   -1.27530101089635      0.37305120168688     -1.06602809301604
  H   -1.00359126312449     -0.50521181478337     -1.49705279139591
  H   -2.27831063400773      0.34210587362798     -0.91822537332046
  C   -0.88754221376991     -0.63596750267538      1.19155578989311
  H   -1.95984203334142     -0.69920306884468      1.38709766881804
  H   -0.56432561719306     -1.58761177190476      0.75841443335645
  H   -0.37095612703136     -0.48954983827185      2.14254394640801
  C   1.58805714076153     -0.44893777021887     -0.74627876294674
  H   1.19159493239115     -0.58577659317908     -1.75476368418483
  H   2.65382203014839     -0.23371771356564     -0.85091001509349
  H   1.50021963446312     -1.39183887145563     -0.20234915984602
