16
Coordinates from ORCA-job run
  C   -0.59788501177055      0.39819273733589      0.05421163265596
  C   0.64597864610621      0.21007503837203     -0.80910922195993
  Br  -0.37917315431503      2.04184471664043      1.14198048984358
  H   0.42232048247170     -0.62284437622747     -1.49133958312241
  H   0.74651096438401      1.10453177567965     -1.42869871592418
  N   -1.71581421677362      0.66072304744134     -0.82957726866357
  H   -2.57189126862601      0.76233626378191     -0.29540833590744
  H   -1.82661268444337     -0.12637023231399     -1.46147287957050
  C   -0.82597311689025     -0.74651664405630      1.03349479661243
  H   -1.75384682131292     -0.58955501638081      1.58755269838903
  H   -0.91357433466595     -1.68108195505183      0.46713372864611
  H   -0.01337883019292     -0.84713768260710      1.75357874123997
  C   1.94217944159830     -0.08596143756230     -0.06601098468222
  H   2.16324871984959      0.69388274004818      0.66440467861572
  H   2.77432301504317     -0.12873575056552     -0.77234740055251
  H   1.90458816953763     -1.04538322453412      0.45360762437996
