19

C	0.0	0.0	0.0
C	-0.569179	0.297847	-1.4187
F	1.369534	0.0	0.0
H	-1.264431	1.119618	-1.270058
N	-0.282955	1.214936	0.905526
O	-0.444388	1.024819	2.107128
O	-0.196404	2.325807	0.384618
C	-0.515677	-1.23489	0.670868
H	-0.235083	-2.102884	0.070491
H	-1.606225	-1.105727	0.702298
H	-0.076931	-1.327874	1.663588
N	-1.39342	-0.752253	-1.993867
H	-2.214042	-0.742156	-1.355599
H	-0.923772	-1.648952	-1.934489
C	0.53591	0.722528	-2.378534
H	0.061913	1.030292	-3.31158
H	1.213655	-0.109031	-2.598036
H	1.12534	1.550451	-1.981058
F	-2.933795	0.0	0.0
