17

C	0.0	0.0	0.0
C	-0.541177	0.094102	-1.439172
F	1.389603	0.0	0.0
H	-1.545636	0.510636	-1.308744
C	-0.458069	1.201516	0.808044
H	0.004684	1.180465	1.799381
H	-0.137004	2.098425	0.272347
H	-1.550436	1.116735	0.849005
C	-0.408068	-1.249383	0.669957
N	-0.577183	-2.264875	1.234015
N	-0.607524	-1.258664	-2.023414
H	-0.931092	-1.142806	-2.980275
H	-1.378826	-1.707504	-1.532201
N	0.320496	0.983526	-2.194177
H	-0.147876	1.233157	-3.056765
H	1.173236	0.482733	-2.423054
F	-2.805231	0.0	0.0
