17

C	0.0	0.0	0.0
C	-0.499953	0.113812	-1.484715
F	1.388308	0.0	0.0
H	0.430841	0.102724	-2.068501
C	-0.483172	1.063544	0.958721
H	-0.22566	2.042333	0.55506
H	-1.568681	0.945556	1.022147
H	-0.001753	0.915343	1.930085
C	-0.350816	-1.333209	0.542101
N	-0.506016	-2.391434	1.025705
N	-1.172328	1.392023	-1.658631
H	-1.447707	1.407335	-2.634574
H	-2.037894	1.248508	-1.118305
N	-1.357087	-0.970967	-1.948949
H	-2.164649	-0.911028	-1.302437
H	-0.891415	-1.864418	-1.810957
F	-2.902089	0.0	0.0
