17

C	0.0	0.0	0.0
C	-0.37222	0.042082	-1.529241
F	1.399779	0.0	0.0
H	-0.345284	1.118133	-1.779851
C	-0.623164	1.120415	0.780708
H	-1.71287	0.964763	0.664196
H	-0.313367	2.080253	0.357215
H	-0.335187	1.073985	1.833943
C	-0.38431	-1.312933	0.556555
N	-0.577183	-2.361547	1.047314
N	-1.645479	-0.477913	-1.927304
H	-2.397772	-0.175332	-1.239912
H	-1.584459	-1.485809	-1.802987
N	0.634507	-0.733411	-2.254828
H	1.542837	-0.292385	-2.200234
H	0.322097	-0.737202	-3.218761
F	-3.221241	0.0	0.0
