17

C	0.0	0.0	0.0
C	-0.516034	-0.026028	-1.465832
F	1.389062	0.0	0.0
H	0.393453	-0.042602	-2.078625
C	-0.458653	1.1844	0.828466
H	0.027287	1.135616	1.806785
H	-1.543516	1.098693	0.917896
H	-0.187053	2.105604	0.314467
C	-0.358681	-1.23908	0.732916
N	-0.479575	-2.188992	1.411884
N	-1.250166	1.206247	-1.746942
H	-1.506228	1.179518	-2.729489
H	-2.115065	1.062924	-1.198597
N	-1.24784	-1.27051	-1.686621
H	-1.528232	-1.287315	-2.662636
H	-2.099328	-1.127246	-1.11653
F	-2.923924	0.0	0.0
