17

C	0.0	0.0	0.0
C	-0.516308	0.051333	-1.464283
F	1.389049	0.0	0.0
H	0.393307	0.065233	-2.077873
C	-0.455607	1.139977	0.890926
H	-1.540486	1.054692	0.977337
H	-0.179302	2.08614	0.427186
H	0.031157	1.036096	1.864492
C	-0.35779	-1.276032	0.66711
N	-0.480565	-2.251428	1.308259
N	-1.24874	1.299042	-1.680493
H	-2.113284	1.126353	-1.138926
H	-1.505433	1.322032	-2.663245
N	-1.248756	-1.179103	-1.747148
H	-1.530689	-1.149926	-2.722845
H	-2.099486	-1.067239	-1.168719
F	-2.92436	0.0	0.0
