18

C	0.0	0.0	0.0
C	-0.435855	0.21909	-1.475
F	1.371048	0.0	0.0
H	0.506132	0.106178	-2.024466
C	-0.532063	0.943265	1.030962
H	-0.132418	0.667831	2.00678
H	-0.214633	1.957291	0.784738
H	-1.623329	0.873857	1.039667
N	-0.286173	-1.453212	0.413753
O	0.174351	-2.302538	-0.346113
O	-0.842293	-1.669628	1.481957
C	-1.003271	1.616881	-1.744872
H	-1.948151	1.73323	-1.212103
H	-0.286695	2.386921	-1.446928
H	-1.190972	1.723035	-2.815735
C	-1.311945	-0.797821	-2.067589
N	-1.882682	-1.566032	-2.748794
Cl	-3.659236	0.0	0.0
