18

C	0.0	0.0	0.0
C	-0.608715	-0.04256	-1.395768
F	1.359911	0.0	0.0
H	-1.702646	-0.059368	-1.233425
C	-0.57128	1.072157	0.884244
H	-0.14437	0.984775	1.885786
H	-1.659322	0.952032	0.914608
H	-0.321959	2.051605	0.471413
N	-0.315929	-1.372309	0.65781
O	-1.48581	-1.7203	0.661774
O	0.634201	-2.005219	1.111905
C	-0.162724	-1.257796	-2.211772
H	0.926081	-1.315319	-2.265384
H	-0.55283	-2.169472	-1.757327
H	-0.56337	-1.190167	-3.223979
C	-0.248891	1.196298	-2.086002
N	0.066893	2.17139	-2.660377
Cl	-4.008574	0.0	0.0
