18

C	0.0	0.0	0.0
C	-0.570508	0.283366	-1.394389
F	1.363919	0.0	0.0
H	-1.638013	0.010457	-1.32382
C	-0.494473	0.946139	1.058607
H	-0.142682	1.948878	0.814433
H	-1.586526	0.922236	1.079788
H	-0.094875	0.648105	2.026424
N	-0.343905	-1.444713	0.414456
O	-0.690657	-1.643795	1.571479
O	-0.148171	-2.32227	-0.423296
C	0.136601	-0.397364	-2.574887
H	1.191746	-0.11682	-2.601148
H	0.056528	-1.477555	-2.504422
H	-0.331776	-0.062649	-3.502738
C	-0.524336	1.72931	-1.634466
N	-0.446339	2.874901	-1.882499
Cl	-3.680652	0.0	0.0
