18

C	0.0	0.0	0.0
C	-0.488965	-0.227498	-1.439151
F	1.363021	0.0	0.0
H	-0.447454	0.760704	-1.915007
C	-0.56927	1.22755	0.645454
H	-0.210732	1.313582	1.67034
H	-1.660224	1.172895	0.655083
H	-0.246301	2.09908	0.07198
N	-0.340935	-1.249111	0.825491
O	0.095057	-2.305564	0.377037
O	-0.975567	-1.113771	1.865744
C	-1.920724	-0.759501	-1.520959
H	-1.979677	-1.7728	-1.123004
H	-2.649147	-0.156272	-0.973709
H	-2.24092	-0.789608	-2.56379
C	0.436214	-1.082079	-2.19207
N	1.15829	-1.749694	-2.833133
Cl	-4.834887	0.0	0.0
