17

C	-0.431648	0.053605	-1.459058
C	0.0	0.0	0.0
Cl	-2.146289	0.571635	-1.601713
H	1.093574	0.0	0.0
H	-0.307581	0.957142	0.434318
C	0.446257	0.97961	-2.270677
H	0.172974	0.953569	-3.327273
H	0.312471	1.994629	-1.892475
H	1.489865	0.692307	-2.133993
N	-0.347715	-1.359985	-2.036585
O	-1.312564	-2.108221	-1.91402
O	0.735656	-1.669923	-2.524252
C	-0.555117	-1.156597	0.815782
H	-0.135004	-2.10754	0.483449
H	-1.644233	-1.219365	0.756508
H	-0.265908	-1.02314	1.860465
Br	3.636957	0.0	0.0
