17

C	-0.412386	0.020647	-1.453906
C	0.0	0.0	0.0
Cl	-2.201002	-0.203573	-1.63463
H	1.096988	0.0	0.0
H	-0.338236	-0.940244	0.438812
C	0.005162	1.262358	-2.199514
H	-0.526612	2.118427	-1.783101
H	-0.230918	1.178748	-3.258825
H	1.082183	1.397999	-2.070366
N	0.187673	-1.219351	-2.12941
O	0.018642	-2.29068	-1.560327
O	0.777874	-1.061285	-3.193796
C	-0.500844	1.193296	0.801817
H	-0.033049	2.12103	0.46738
H	-0.220164	1.056548	1.848296
H	-1.587858	1.303153	0.749459
Br	3.579208	0.0	0.0
