17

C	-0.543452	0.003957	-1.422484
C	0.0	0.0	0.0
Cl	0.203186	-1.279129	-2.395508
H	1.091262	0.0	0.0
H	-0.339332	0.929729	0.467754
C	-2.05525	-0.120775	-1.521762
H	-2.533089	0.620509	-0.880508
H	-2.380535	0.03359	-2.553339
H	-2.355465	-1.121217	-1.211497
N	-0.169972	1.360177	-2.038273
O	-0.829099	2.303799	-1.599152
O	0.714809	1.437723	-2.87353
C	-0.474646	-1.197987	0.816133
H	0.034645	-1.185479	1.781954
H	-0.206572	-2.133734	0.322639
H	-1.552976	-1.190848	0.999088
Br	3.648951	0.0	0.0
