15

C	-0.263203	0.067248	-1.512477
C	0.0	0.0	0.0
Cl	0.006569	-1.629482	-2.214442
H	1.103521	0.0	0.0
C	-1.650892	0.397249	-1.86856
N	-2.761417	0.655825	-2.156331
N	0.651823	1.027126	-2.008446
H	0.667579	1.05657	-3.018221
H	1.585201	0.805278	-1.626774
C	-0.589689	-1.147105	0.662682
N	-1.018832	-2.058331	1.26807
N	-0.508787	1.246561	0.602931
H	-0.223678	1.225908	1.578323
H	0.040486	1.987258	0.172397
H	2.73294	0.0	0.0
