15

C	-0.343519	0.081422	-1.496084
C	0.0	0.0	0.0
Cl	0.003165	-1.60583	-2.226411
H	1.095701	0.0	0.0
C	-1.772462	0.291931	-1.74797
N	-2.922835	0.440712	-1.938603
N	0.455178	1.092205	-2.058226
H	1.41628	0.968481	-1.727543
H	0.406751	1.092423	-3.068509
C	-0.510725	-1.198331	0.648249
N	-0.918625	-2.110734	1.269697
N	-0.406399	1.219695	0.680371
H	0.396959	1.568838	1.190903
H	-1.172849	1.056931	1.318781
H	2.679415	0.0	0.0
