15

C	-0.496578	0.061813	-1.422903
C	0.0	0.0	0.0
Cl	-2.441819	0.311994	-1.350428
H	1.094975	0.0	0.0
C	-0.066987	1.288181	-2.093423
N	0.300185	2.238039	-2.678031
N	-0.165137	-1.064333	-2.172489
H	-0.392275	-1.92897	-1.700572
H	-0.529475	-1.043151	-3.114542
C	-0.437395	-1.252828	0.610511
N	-0.77756	-2.272884	1.089008
N	-0.338603	1.199134	0.730252
H	-1.211157	1.117006	1.23282
H	0.425821	1.400291	1.367262
H	2.568346	0.0	0.0
