15

C	-0.538725	0.036715	-1.434829
C	0.0	0.0	0.0
Cl	0.021582	1.51941	-2.256201
H	1.094356	0.0	0.0
C	-0.002701	-1.104567	-2.206181
N	0.321596	-2.061715	-2.807532
N	-1.993159	0.055753	-1.440838
H	-2.320531	-0.812065	-1.02437
H	-2.323155	0.086165	-2.400616
C	-0.472052	-1.236413	0.620683
N	-0.883793	-2.208644	1.143164
N	-0.364532	1.192354	0.734903
H	0.425793	1.428371	1.326697
H	-1.199064	1.073388	1.29008
H	2.643182	0.0	0.0
