15

C	-0.25514	-0.05948	-1.499959
C	0.0	0.0	0.0
Cl	-2.013776	-0.406415	-1.898983
H	1.097388	0.0	0.0
C	-0.002087	1.266998	-2.097308
N	0.258919	2.265972	-2.660426
N	0.571123	-1.104132	-2.015693
H	1.505568	-0.974195	-1.598045
H	0.639087	-1.047866	-3.023801
C	-0.448821	-1.22355	0.653693
N	-0.827991	-2.153511	1.266196
N	-0.471752	1.219309	0.616221
H	0.23789	1.540023	1.264072
H	-1.341411	1.078899	1.111179
H	2.655717	0.0	0.0
