15

C	-0.265414	-0.054293	-1.498251
C	0.0	0.0	0.0
Cl	-2.029484	-0.377768	-1.88551
H	1.097329	0.0	0.0
C	0.002978	1.268932	-2.094344
N	0.273374	2.265928	-2.656076
N	0.544135	-1.109529	-2.020178
H	1.486123	-0.987303	-1.617471
H	0.596357	-1.061899	-3.03041
C	-0.449187	-1.22299	0.653255
N	-0.817868	-2.155492	1.26847
N	-0.465329	1.220028	0.621528
H	-1.331142	1.079729	1.123964
H	0.25113	1.537176	1.264995
H	2.654522	0.0	0.0
