15

C	-0.265336	-0.054268	-1.497896
C	0.0	0.0	0.0
Cl	-2.030087	-0.373558	-1.886926
H	1.097385	0.0	0.0
C	0.006372	1.268468	-2.094866
N	0.265253	2.260338	-2.670374
N	0.542609	-1.111439	-2.02029
H	0.593198	-1.06404	-3.030689
H	1.486474	-0.989288	-1.620586
C	-0.449805	-1.222091	0.654549
N	-0.817297	-2.154936	1.26983
N	-0.463554	1.221316	0.620816
H	-1.318643	1.079103	1.139999
H	0.262146	1.548332	1.249149
H	2.654053	0.0	0.0
