13
Coordinates from ORCA-job run
  C   -0.60289818142606     -0.24630089759194     -0.29878547446002
  C   0.78333764669558     -0.32079201860434      0.39152934543165
  F   -0.72105125017946     -1.45302557895086     -0.99682741767157
  H   0.73621766714299     -1.17042049332594      1.08564658745955
  N   -1.60519524289855     -0.05106404787200      0.66706604027743
  H   -1.66006582456901     -0.82500992205980      1.31780427867466
  H   -2.51112849065795      0.12753988197570      0.25446905586234
  C   -0.63647811250700      0.83989914846587     -1.29249628119163
  N   -0.67238313711795      1.69805201211713     -2.09322137629444
  C   1.05610450055815      0.90162453276726      1.14981437819286
  N   1.29296630601393      1.87272761886445      1.76522727706573
  C   1.84388160907605     -0.58346901463947     -0.58490175192803
  N   2.69669250986929     -0.79076122114606     -1.36432466141853
