13
Coordinates from ORCA-job run
  C   -0.51595553731560     -0.03514850904084     -0.52695132637345
  C   0.96299809404493      0.07284377166632     -0.06589082728903
  F   -0.47151098089525     -0.84998399931611     -1.66649633022528
  H   1.55132429683584      0.40363928931825     -0.92921835284680
  N   -1.32775350449101     -0.53343495263073      0.50155973833172
  H   -1.04973343602672     -1.46341801794040      0.79236499485575
  H   -2.31106834096434     -0.51247559109102      0.26622245038454
  C   -0.99591585697706      1.28794478263477     -0.96330218560248
  N   -1.37105923745593      2.33874568983332     -1.32863499020584
  C   1.43169163670067     -1.25396432092132      0.34536648663718
  N   1.76401623262343     -2.33053807865241      0.67526343630713
  C   1.10385698946568      1.04252343567560      1.02161712600785
  N   1.22910964445536      1.83426650046457      1.87909978001873
