13
Coordinates from ORCA-job run
  C   -0.58432242869368     -0.25412477423599     -0.34606639387096
  C   0.77708940420793      0.25481595840362      0.24482748634228
  F   -0.36623273742088     -1.57570641063064     -0.66472804769937
  H   0.67765336227107      1.33154084551291      0.42830159195256
  N   -1.69551797775581     -0.16994667582760      0.52240330925475
  H   -2.15515777591479      0.72796282046616      0.52705511912916
  H   -1.50249298208822     -0.50971137850318      1.45570264153587
  C   -0.86178703966230      0.50744146988592     -1.57907727872338
  N   -1.06917061292697      1.15414680747395     -2.53671757912598
  C   1.88329211067692      0.03121952323963     -0.68761558117125
  N   2.75698233105888     -0.13379103545273     -1.45422517769311
  C   1.01114982135917     -0.41699198068527      1.52496679944704
  N   1.12851452488869     -0.94685516964678      2.56617311062239
