13
Coordinates from ORCA-job run
  C   -0.49592861663968     -0.11010659519830     -0.56769770176319
  C   0.97414039629685      0.02858007686825     -0.09383220056018
  F   -0.48490113886408     -0.92220416132270     -1.67485420021081
  H   1.54089631867244      0.48696152342335     -0.91305256926292
  N   -1.27774652814700     -0.74448878883029      0.43570328495905
  H   -2.23073088559173     -0.87513030824395      0.11736681123445
  H   -1.28136990669576     -0.22269321168095      1.30420440640357
  C   -0.98360282097661      1.22202063130097     -1.00994598933786
  N   -1.39583694530172      2.28118221016287     -1.30915132674802
  C   1.53605469355952     -1.29440587614041      0.19148075906708
  N   2.01988879514855     -2.34102562234562      0.40885756373333
  C   1.03857244727416      0.89814288284760      1.08288807746896
  N   1.04256419126508      1.59516723915920      2.02803308501654
