13
Coordinates from ORCA-job run
  C   -0.50808364412190     -0.02187408124195     -0.41288729405602
  C   0.76202548267987      0.05233207769584      0.47229979004175
  F   -0.11671141258095     -0.27135305026735     -1.70083993126281
  H   0.44816276468172      0.23964803084895      1.50753489020125
  N   -1.31477070075993     -1.12003650900560      0.01238797346225
  H   -1.70447759973577     -0.96502847366551      0.93446244972537
  H   -2.07150163152418     -1.26821164697312     -0.64571907775688
  C   -1.18947350164072      1.29766581596578     -0.39676076428277
  N   -1.78398665501043      2.30850139339857     -0.31939842517646
  C   1.62470774881760      1.15640109080348      0.04154120931437
  N   2.30338114143244      2.05190981660707     -0.29824635979199
  C   1.47825570424568     -1.22529059009026      0.41651201117066
  N   2.07247230351657     -2.23666387407589      0.38911352841129
