13
Coordinates from ORCA-job run
  C   -0.52134160560382     -0.12330132349760     -0.50935263268450
  C   0.96041753311141      0.07448003458568     -0.08904864607179
  F   -0.47605707485099     -1.10259863209065     -1.51096600240763
  H   1.53431880999687      0.27666097087031     -1.00044265703529
  N   -1.31473918633903     -0.46865921701493      0.59329247964388
  H   -2.30069564923532     -0.49817434666000      0.37051634203202
  H   -1.01816330385836     -1.33736613078479      1.02207353561007
  C   -1.02575284041927      1.11086207357365     -1.13708456090948
  N   -1.42003756942587      2.08879763135148     -1.65346403006935
  C   1.45473517823130     -1.16614258603754      0.51589402943515
  N   1.80964649097563     -2.17275256801911      1.00483870727731
  C   1.09773871287709      1.20151828755552      0.83502072721891
  N   1.22093050454036      2.11667580616794      1.55972270796072
