13
Coordinates from ORCA-job run
  C   -0.53585306432308     -0.22212956076365     -0.49293820701513
  C   0.96078944135664      0.03808080687176     -0.18009630666023
  F   -0.58018005966355     -1.21798718694594     -1.43737000560990
  H   1.43929082289649      0.36074467489733     -1.11251780611678
  N   -1.20703470533395     -0.68818693054581      0.67000444559831
  H   -2.17675483231722     -0.89753202013128      0.46412536787052
  H   -1.16049173548873     -0.02152310524164      1.43160947485307
  C   -1.11122047610056      0.99595423010775     -1.11971832751845
  N   -1.58236703335894      1.97080140439373     -1.57703944436713
  C   1.59944714225954     -1.19828185306583      0.27904943051534
  N   2.14277759603406     -2.17674624937253      0.63191274356681
  C   1.08253939586183      1.10249815574188      0.81840352829491
  N   1.12805750817751      1.95430763405421      1.62557510658870
