13
Coordinates from ORCA-job run
  C   -0.56185070082956     -0.20772083953230     -0.27187745184754
  C   0.80430500388869      0.36459146292006      0.19509990366061
  F   -0.39449799475567     -1.58798374380090     -0.37922544581400
  H   0.72320294705825      1.45745048264240      0.18533427241737
  N   -1.57277333550059      0.17510245550882      0.63025136095891
  H   -2.49335950607771     -0.07302873125059      0.29086643001809
  H   -1.42229854924025     -0.22617623470908      1.54914649307886
  C   -0.86865529844745      0.30495567014125     -1.61961303665323
  N   -1.11501071886325      0.71821094103934     -2.69057726180947
  C   1.88360210275571     -0.05154884088771     -0.70335931770209
  N   2.74500255979456     -0.36806124175091     -1.43490057051658
  C   1.06294107161471     -0.07730177333485      1.56865084333851
  N   1.20939241860252     -0.42848960698553      2.67920378087053
