13
Coordinates from ORCA-job run
  C   -0.58048101879725     -0.35022972041884     -0.31247425933107
  C   0.81448337003424     -0.40607527371452      0.35948406284724
  F   -0.71949581164407     -1.51172628054307     -1.03030771562552
  H   0.79673291121849     -1.31567429309901      0.97150326787036
  N   -1.58504766793087     -0.34415614418867      0.70214350532725
  H   -2.50275358888159     -0.40526162924591      0.27459941048292
  H   -1.54284581144584      0.49995276026510      1.26250643896185
  C   -0.64660088211597      0.77651358559099     -1.27481817089338
  N   -0.74067153213284      1.69962522339634     -1.99604151434907
  C   1.00132970825760      0.75961853261975      1.22476948342653
  N   1.10004020180969      1.70933936281610      1.90813833350195
  C   1.87769897891286     -0.50828651644743     -0.64170795310227
  N   2.72561114271558     -0.60363960703084     -1.44779488911678
