13
Coordinates from ORCA-job run
  C   -0.54235724036874     -0.26440516998964     -0.25820516047911
  C   0.79609574643245      0.28414394136941      0.29797599598307
  F   -0.36050237426703     -1.58013447466217     -0.58937856722885
  H   0.64707597404904      1.33659882862368      0.57260713301281
  N   -1.53495883414670     -0.21160459606674      0.76624941401210
  H   -1.77577944488962      0.74240198928500      1.00728756471647
  H   -2.37155364236243     -0.69698217147099      0.46216600681298
  C   -0.88669337382923      0.46902235339676     -1.50314018990450
  N   -1.20430794983764      1.09311134980345     -2.44703140000824
  C   1.84524196170198      0.21195314968780     -0.72338669943566
  N   2.68614603879046      0.13459487191675     -1.53878455375204
  C   1.18131059122233     -0.46873165409719      1.49515485102149
  N   1.51928254750515     -1.04896841779613      2.45748560524950
