13
Coordinates from ORCA-job run
  C   -0.54399901377955     -0.22701502365485     -0.29456752742848
  C   0.77937728179167      0.39513222525786      0.22779701037393
  F   -0.30895070176159     -1.59508162021379     -0.43150089677338
  H   0.64820967486376      1.48310645501409      0.24078017191668
  N   -1.59785518436834      0.08486273013144      0.58488608548386
  H   -1.45482491058748     -0.32855990098707      1.49947593557833
  H   -2.49532668353895     -0.19852060764815      0.21294393058146
  C   -0.83404687544922      0.30651180191173     -1.63796611598936
  N   -1.06575460566460      0.74151524640236     -2.70345685948521
  C   1.90352595044368      0.05088271020824     -0.64574240101308
  N   2.80146637664320     -0.20811068052779     -1.35576465449473
  C   1.01783716749279     -0.06736859361356      1.59824964847636
  N   1.14934152391463     -0.43635474228047      2.70486567277362
