13
Coordinates from ORCA-job run
  C   -0.54645025705796     -0.04381393538243     -0.60736020356750
  C   0.94732731760785      0.02620713687393     -0.12756415167678
  F   -0.49361983817292     -0.82241757276869     -1.74451223103092
  H   1.55313606090310      0.43221487659067     -0.94577023827326
  N   -1.47061144416009     -0.61060089461806      0.29625758373618
  H   -1.80120394281323      0.03373209862732      0.99994424445894
  H   -1.14259232071458     -1.47755864503199      0.70338778769569
  C   -0.97545728353326      1.31833035863958     -0.97714115551005
  N   -1.28996625974160      2.41148025587589     -1.26806474641174
  C   1.39912826060232     -1.32989407072179      0.18897614088099
  N   1.70467243888890     -2.43257652601616      0.45241251467144
  C   1.04378813705033      0.89577453385753      1.04524246322393
  N   1.07084913114115      1.59912238407420      1.98519199180307
