13
Coordinates from ORCA-job run
  C   -0.58850857636142     -0.24459014452267     -0.32199559685270
  C   0.76590483845544     -0.32010572303838      0.42894358252620
  F   -0.68344776597371     -1.45642613440965     -1.01439856418225
  H   0.68172402635909     -1.15932292504825      1.13223011803639
  N   -1.63071906564251     -0.03551215923171      0.59770656707559
  H   -1.71653054487162     -0.80308544209973      1.25259315737937
  H   -2.51738166818519      0.14138067681895      0.14391401056829
  C   -0.57357723341753      0.83359205746268     -1.32491258097988
  N   -0.58853659985385      1.68736834662223     -2.13075084831467
  C   1.01471723192565      0.91125278989973      1.18073043141415
  N   1.22648551887814      1.89278812131763      1.78864478160461
  C   1.86485933205227     -0.60679846580251     -0.49683736739127
  N   2.74601050663526     -0.84154099796833     -1.23586769088387
