13
Coordinates from ORCA-job run
  C   -0.57243988805450     -0.37010092390589     -0.30545990367044
  C   0.81897186117401     -0.38176369012403      0.37608133718055
  F   -0.68629298250829     -1.55427640345670     -0.98997831444132
  H   0.81290567519867     -1.27340160658745      1.01421447818762
  N   -1.58344423556642     -0.35232201126724      0.70252781124627
  H   -1.55813262011837      0.50731762965345      1.23981854748961
  H   -2.49738890519557     -0.43977793092012      0.27153493155571
  C   -0.65206045874123      0.72679375603409     -1.30066863008156
  N   -0.75692652821316      1.62682385859707     -2.04906889927620
  C   0.98026838860355      0.81169341443824      1.20797582598976
  N   1.05913326889075      1.78340053031133      1.86240981234409
  C   1.89019362019894     -0.49384518515684     -0.61544332031283
  N   2.74521280433163     -0.58954143761592     -1.41394367621125
