13
Coordinates from ORCA-job run
  C   -0.47799779493720     -0.01978327573226     -0.56163613701838
  C   0.96618813988158      0.04401496218072      0.00555880883126
  F   -0.37558322440937     -0.83444481312896     -1.69747561279360
  H   1.62563095484601      0.35534717685310     -0.81233148739665
  N   -1.37644986876346     -0.49457220510677      0.40387762693523
  H   -1.14763710166582     -1.43218971917935      0.71234326413910
  H   -2.33915906609235     -0.44447415212521      0.09829763687249
  C   -0.88505901818851      1.31741596472140     -1.02851320505019
  N   -1.19326944808596      2.37535872560101     -1.43384052144640
  C   1.36359542820913     -1.29557120185516      0.44945565453830
  N   1.64126237062764     -2.38187273071310      0.79743748334940
  C   1.05631922611464      1.01051993779513      1.10138064125624
  N   1.14315940246372      1.80025133068943      1.96544584778324
