13
Coordinates from ORCA-job run
  C   -0.54664290779883     -0.03503030956549     -0.60713707485826
  C   0.94638574483191      0.02449983307744     -0.12388814843979
  F   -0.49624150012774     -0.80256223490308     -1.75131048563357
  H   1.55665140013799      0.43466510590423     -0.93678472751162
  N   -1.47482889433062     -0.60698384116734      0.28914366654074
  H   -1.15477079023047     -1.48427394617034      0.68022372523087
  H   -1.79675088958421      0.02856225459273      1.00479084072924
  C   -0.96777907955190      1.33308852206926     -0.96474423782256
  N   -1.26787513889277      2.42790103600576     -1.26415039190564
  C   1.39269733618620     -1.33592022331422      0.18226418570190
  N   1.69683018921614     -2.44265027833699      0.42936476287759
  C   1.04284739380128      0.88343457748409      1.05681014054822
  N   1.06947713634301      1.57626950432395      2.00441774454284
