13
Coordinates from ORCA-job run
  C   -0.51565316604805      0.10142266214903     -0.39826990243928
  C   0.67395805604835      0.05116290256823      0.59865311232711
  F   0.03955731405639      0.06747082146782     -1.67692762750791
  H   0.26330457637149      0.18383505997893      1.60603504549416
  N   -1.40377998594343     -0.95897599944010     -0.13474075212570
  H   -0.96577105371502     -1.85909177221103     -0.29558627572652
  H   -2.25187665508409     -0.88389437817723     -0.68179841928365
  C   -1.21413644189283      1.39176303331679     -0.25545371438099
  N   -1.76768669401042      2.42059593558188     -0.14004476176183
  C   1.63900037011585      1.11725261122141      0.32051771346379
  N   2.40966662506090      1.97552078367658      0.10370865043747
  C   1.31121350833405     -1.26655083477135      0.51868700863793
  N   1.78220354670680     -2.33851082536094      0.43421992286543
