13
Coordinates from ORCA-job run
  C   -0.48750534614716     -0.02615865310187     -0.55233634612748
  C   0.96865735453635      0.03913728149304     -0.01681379325486
  F   -0.41229423469031     -0.85943157135435     -1.67687356847262
  H   1.61135032917954      0.33453635926712     -0.85380421799831
  N   -1.36757050772333     -0.48108065169845      0.43938292264077
  H   -2.33637441388884     -0.43051547677872      0.15378884566220
  H   -1.13654365215383     -1.41491594737528      0.75755791729094
  C   -0.90074610261060      1.30482003081452     -1.03074317314134
  N   -1.24188955693598      2.35571728203847     -1.42782112454377
  C   1.36926732684643     -1.29532465497031      0.43906541150619
  N   1.64789214655372     -2.37734633633925      0.79931447548399
  C   1.08775990529297      1.02223180453329      1.06115621305261
  N   1.19799675174085      1.82633053347188      1.90912643790172
