13
Coordinates from ORCA-job run
  C   -0.58622601912430     -0.27102309955552     -0.30438900609154
  C   0.77240781870999     -0.28611090879977      0.44250535031814
  F   -0.66747302577530     -1.52059851727441     -0.92788949356783
  H   0.70335885569295     -1.08537733567134      1.19237817279793
  N   -1.62729817660880     -0.02530119873756      0.60767077114659
  H   -1.70094538410541     -0.75763744603774      1.30315981791505
  H   -2.51789882647227      0.11578552401970      0.14905194827313
  C   -0.59102790561118      0.75004132919460     -1.36559106657577
  N   -0.62505657952599      1.55761504851541     -2.21726373297664
  C   1.00755427119136      0.98901311628742      1.12240690456109
  N   1.20874913944474      2.00595168540555      1.67313313588476
  C   1.87091340778008     -0.60857955643594     -0.47212431660081
  N   2.75294242440415     -0.86477864091040     -1.20304848508403
