13
Coordinates from ORCA-job run
  C   -0.53024172237895     -0.06240692418978     -0.51179534514426
  C   0.96208474613251      0.05178770897285     -0.09755917908886
  F   -0.52845198905401     -0.95305740637163     -1.59417959759810
  H   1.53177755196866      0.31140952118169     -0.99688373011413
  N   -1.32153398835554     -0.47632390886983      0.56852602193134
  H   -2.31042538937103     -0.45557380380077      0.35798402799448
  H   -1.04874688007316     -1.38800130941089      0.91646201935218
  C   -1.00216968142272      1.23628060290152     -1.02376803368689
  N   -1.37472690360108      2.27073420441690     -1.43539258662067
  C   1.42119249069912     -1.25097014621150      0.39374178749703
  N   1.74594956756739     -2.30774782879922      0.78841886796628
  C   1.14710423012494      1.09133182370016      0.91635298421923
  N   1.30718796776384      1.93253746648050      1.71909276329238
