13
Coordinates from ORCA-job run
  C   -0.54907215239410     -0.13351493076779     -0.59251837052917
  C   0.94547638312687      0.02701273781059     -0.13813372735951
  F   -0.48762375960846     -1.05324709732865     -1.61842888527353
  H   1.53980096594414      0.33239411105817     -1.00702155630523
  N   -1.45640266371053     -0.59434507305377      0.38499633674496
  H   -1.79620282506474      0.12924678683911      1.00180523319873
  H   -1.11104768927520     -1.39628605940736      0.89734775002939
  C   -1.00659276820787      1.16042879749285     -1.13344499748704
  N   -1.34290509671848      2.20100821341287     -1.56060062708299
  C   1.42604707207106     -1.26637913821127      0.35176016385872
  N   1.75681739393596     -2.31749983166210      0.75704933737099
  C   1.03083687396304      1.04518051342897      0.90937992708082
  N   1.04986826593831      1.86600097038839      1.74880941575388
