13
Coordinates from ORCA-job run
  C   -0.56045930790969     -0.15386323860561     -0.45623241531680
  C   0.95222968792649      0.04777504186255     -0.16852801487580
  F   -0.60690138967760     -1.21146879962397     -1.37488144237738
  H   1.45598314204438      0.16229765714956     -1.13490655560309
  N   -1.26989795403229     -0.39326468979590      0.72860428738986
  H   -2.27036921669863     -0.42417590122918      0.58444514326680
  H   -0.95099395048829     -1.22894917240589      1.20456561426676
  C   -1.09591501475856      1.03508913898907     -1.14277899635250
  N   -1.51708149033941      1.97476915278902     -1.70678170776292
  C   1.47399882515848     -1.14859176067025      0.49901338792132
  N   1.84618274865836     -2.11973876319808      1.04362449979931
  C   1.17660530098762      1.24435552513889      0.64443272652099
  N   1.36661861912915      2.21376580959979      1.27842347312347
