13
Coordinates from ORCA-job run
  C   -0.56541816743418     -0.34444822842852     -0.34652230039272
  C   0.79977293631547     -0.40976643518681      0.38327150954256
  F   -0.66812744699071     -1.49068581721990     -1.09456587798802
  H   0.75931370748296     -1.33076448404643      0.97697575875436
  N   -1.61237535269847     -0.36372272146124      0.62373311008506
  H   -2.51133510873175     -0.41192964941258      0.15664699700855
  H   -1.59338496770992      0.46427907898540      1.20879048904042
  C   -0.59461182486772      0.80267477404277     -1.28634376104993
  N   -0.65816814430156      1.74334859723745     -1.98819091703269
  C   0.94619761173439      0.73847240682721      1.27910174399712
  N   1.00504909729551      1.66051006388008      2.00394684537850
  C   1.90475729536698     -0.49057001968770     -0.57375868113646
  N   2.78733036453900     -0.56639756552971     -1.34408491620682
