13
Coordinates from ORCA-job run
  C   -0.48473586868191      0.03095724601746     -0.43917709999294
  C   0.73475631542181     -0.01242562229985      0.51630467001021
  F   -0.02767023762189     -0.11037610476043     -1.72175689149130
  H   0.36734904180094      0.09078221460663      1.54567993719740
  N   -1.34004301568299     -1.07807249751386     -0.16279362252896
  H   -1.78654069094041     -0.99208875991218      0.74245005386486
  H   -2.05466046618989     -1.14882979851305     -0.87852260132677
  C   -1.13420621715619      1.36287958511322     -0.33596950287688
  N   -1.70467718718858      2.38111854996500     -0.19811184679380
  C   1.64757835538297      1.09956769542590      0.23489429708088
  N   2.36766838901871      1.99955047131924      0.01271732207097
  C   1.42187942099434     -1.30027401545818      0.38399532293339
  N   1.99330216084312     -2.32178896398987      0.30128996185292
