13
Coordinates from ORCA-job run
  C   -0.62336760598155     -0.27707870571387     -0.42775717056209
  C   0.72861116229765     -0.43656324503040      0.34271120525765
  F   -0.70414088839428     -1.41845643495648     -1.19962081252531
  H   0.63420125006103     -1.37022256580951      0.91296346721688
  N   -1.76732076242259     -0.18880801651880      0.39773273119650
  H   -1.98936895599126      0.75090962504391      0.69222267539291
  H   -1.74757992742556     -0.82782714240732      1.18123291957680
  C   -0.55626848078285      0.89882857877998     -1.31313477969749
  N   -0.48931460657852      1.84281216500890     -2.00782810349039
  C   0.89789411947901      0.67894384469491      1.27412684890384
  N   0.98029767786573      1.57671441955217      2.02618275559346
  C   1.86688392180507     -0.56025100335798     -0.56864033798826
  N   2.77047309606815     -0.66900151928549     -1.31019139887452
