13
Coordinates from ORCA-job run
  C   -0.51873174033449      0.14284153184351     -0.48665325989985
  C   0.68314293495073     -0.00672646703454      0.51108846757614
  F   0.05251519337508      0.15780241870957     -1.73864618209737
  H   0.28131414325339      0.06800409449022      1.52887875320730
  N   -1.48423669948761     -0.88833778437883     -0.43821562014865
  H   -2.18209616776066     -0.77134376462379      0.28095121771198
  H   -1.07822507058820     -1.81529171334153     -0.43235583890736
  C   -1.16890267150797      1.44221696071931     -0.22935898476779
  N   -1.67545256629911      2.47304862910374      0.01442665097931
  C   1.67881991940682      1.04828839727050      0.31449050051118
  N   2.45889001383055      1.91262128235379      0.16300960451292
  C   1.27098974892249     -1.33665154320004      0.33601410331663
  N   1.68097296223892     -2.42547204191183      0.17737058800561
