13
Coordinates from ORCA-job run
  C   -0.53353411979572     -0.23157073315865     -0.30967578429340
  C   0.76140246702915      0.41447242035658      0.25340792537081
  F   -0.25612556873339     -1.58792209571535     -0.47849676524623
  H   0.59720723396505      1.49733408847623      0.29231179182102
  N   -1.61134097462767      0.02554964186516      0.55888150298005
  H   -2.49354495016428     -0.27185196575697      0.16210102700954
  H   -1.47294599491576     -0.41169747819261      1.46308249781613
  C   -0.81525266899159      0.32858931447846     -1.64385388220773
  N   -1.02947228967401      0.77098330495831     -2.70992337234368
  C   1.91112678037976      0.12670247791833     -0.60702419569862
  N   2.83068535923648     -0.09192749754103     -1.30276119562916
  C   0.98924886400807     -0.07860338971335      1.61495858761997
  N   1.12454586228391     -0.49005808797512      2.70599186280131
