13
Coordinates from ORCA-job run
  C   -0.56637760813794     -0.37101838483868     -0.31543274168634
  C   0.79743752454325     -0.37922128576274      0.41993084883919
  F   -0.67465358958811     -1.57856006337941     -0.95869926738474
  H   0.75053523732092     -1.24329400573517      1.09335694735814
  N   -1.61506681492982     -0.29748032673314      0.65047342874871
  H   -1.58958579870499      0.57802883702139      1.16144792427469
  H   -2.51363300507897     -0.37764415970174      0.18695824329741
  C   -0.58767778815445      0.68852436597083     -1.35325476765434
  N   -0.64949420101940      1.56591884488984     -2.13272030764573
  C   0.94985199424659      0.84341953570829      1.20995638779520
  N   1.01218955148960      1.82803240690939      1.84667540515137
  C   1.90240296539680     -0.55223257737503     -0.52471678705583
  N   2.78407153261648     -0.70247318697382     -1.28497531403775
