13
Coordinates from ORCA-job run
  C   -0.52457779470690     -0.25847326945725     -0.48454239383604
  C   0.96475154355074      0.03783571283769     -0.16927145914072
  F   -0.54708388896486     -1.31515701368335     -1.36040494245841
  H   1.45299832180614      0.30872295661333     -1.11310649859073
  N   -1.20797871126428     -0.65393845501880      0.69797871044242
  H   -2.16690668282069     -0.90481783431343      0.48734449376502
  H   -1.19807071536808      0.07178394740823      1.40516160503812
  C   -1.10268582454929      0.91026405555910     -1.19768412749651
  N   -1.58004029364417      1.84824520799858     -1.72083689796780
  C   1.61029034178927     -1.16004696069077      0.37415819611638
  N   2.15726188490342     -2.10733684041623      0.79900178751464
  C   1.05987730273591      1.16292320947293      0.76346969947139
  N   1.08316451653279      2.06099528369001      1.51973182714222
