16
Coordinates from ORCA-job run
  C   0.63915430651134      0.12041485275585     -0.45218110339360
  C   -0.63291283528586      0.61149527615702      0.24044205852012
  F   1.12533590290184      1.16918493037264     -1.18700050740966
  H   -0.41224251715634      1.55080932367238      0.74347989982807
  N   0.44697602017253     -0.97091828071971     -1.29970117722113
  H   1.30723554221986     -1.20575569144544     -1.77935196323204
  H   0.11126144756569     -1.76604543167479     -0.77047503904159
  N   1.74962641548438     -0.08932378729210      0.61161660143538
  O   1.70614912069598      0.63553335121383      1.60047472753940
  O   2.61091359969977     -0.91887769369791      0.34640192470162
  N   -0.99965596685770     -0.33626827195142      1.37274870588979
  O   -1.61921502414878      0.15104751302787      2.30634735303867
  O   -0.70401010659133     -1.52569689613471      1.24234075736405
  N   -1.73080718418584      0.70336432311404     -0.65220475173236
  H   -2.04248965904871      1.64913999523046     -0.79796851159268
  H   -1.55631906197683      0.22189648737197     -1.52296897469405
