16
Coordinates from ORCA-job run
  C   0.56863456482691     -0.25308242145474     -0.39507093160507
  C   -0.59824550697872      0.31058495676669      0.41433575894072
  F   0.24988277666176     -0.25428755423279     -1.74015902740699
  H   -0.20825791880041      0.61962842056027      1.38687896269988
  N   1.06386952383047     -1.45928229249628      0.09820806397965
  H   1.93025620582432     -1.69896918435630     -0.36852878617822
  H   0.37683780683963     -2.19325200227246     -0.01221808636106
  N   1.74375841167061      0.74147514940304     -0.32461527802610
  O   2.79752163257346      0.33477992787379     -0.79690492840110
  O   1.54955037247178      1.84446256762517      0.17568627349713
  N   -1.60638287519004     -0.77535510135838      0.75777058413238
  O   -2.32698548999388     -0.50442442516600      1.71126648381074
  O   -1.69327270377764     -1.77423993309716      0.04854662779714
  N   -1.34796083099694      1.30343054050787     -0.29386363584747
  H   -1.70119768621253      1.99991442663599      0.34701889643828
  H   -0.79900828274877      1.75661692506130     -1.00835097746992
