16
Coordinates from ORCA-job run
  C   0.71513059990652      0.14996975285649     -0.44158321210726
  C   -0.61638718052109      0.65133728471079      0.11346336070295
  F   1.24058284161868      1.13468476071001     -1.22119906357506
  H   -0.46192874562889      1.60037675985273      0.62367204474120
  N   0.60925535397622     -1.02257981277804     -1.19874023107277
  H   0.40711958146513     -1.80998285023201     -0.59649843297386
  H   1.47103021235769     -1.18861094020178     -1.70351142804424
  N   1.73994672078754      0.05594802222445      0.72446224774247
  O   2.64350101305294     -0.75897040169014      0.58841186774732
  O   1.59885301076054      0.84927248479594      1.64886436471634
  N   -1.09646239350147     -0.28728945787749      1.23037812037930
  O   -0.55434610932739     -1.38522681510974      1.36791781509204
  O   -2.05059106573901      0.12523829160562      1.87894802966597
  N   -1.54916984906315      0.78496713056237     -0.93591514491715
  H   -2.42717293466352      1.17376269910643     -0.62339659408036
  H   -1.66936105548073     -0.07289690853563     -1.45627374401690
