16
Coordinates from ORCA-job run
  C   0.72504796708458     -0.01335329607904     -0.32846780358458
  C   -0.59429195467782      0.57151041335403      0.17259903888562
  F   1.19206863658181      0.91294709727736     -1.28260139449080
  H   -0.39036356568020      1.49968105867780      0.70870970821495
  N   0.58878832926619     -1.30611869414497     -0.77638398063920
  H   -0.25008171764126     -1.41994538918425     -1.32988027162428
  H   1.42202211838106     -1.67803779778754     -1.20783892381087
  N   1.83108158306940      0.05548532816983      0.72121308110175
  O   2.73882721374831     -0.75820850592760      0.59856535686291
  O   1.76486143546776      0.96223073131129      1.54329319403481
  N   -1.19243459605066     -0.35037968682040      1.21347732349300
  O   -1.84370080823689     -1.31118929548248      0.82265560166989
  O   -0.97172956362255     -0.04445476646469      2.38298408724384
  N   -1.48547039024755      0.63680019590282     -0.95681241643820
  H   -1.12416286877142      1.31483899803088     -1.61642764855310
  H   -2.41046181867076      0.92719360916695     -0.66508495236573
