16
Coordinates from ORCA-job run
  C   0.51566361817453     -0.24370361045589     -0.39218647129543
  C   -0.56338980244574      0.40293662217837      0.49354235616472
  F   0.08596875144075     -0.24982526719375     -1.71227635293733
  H   -0.09086477571937      0.78774620312642      1.39361351805814
  N   0.97210375429381     -1.47458477983722      0.07422405427868
  H   0.24287437307651     -2.17455178679533      0.03127163052643
  H   1.78672378344371     -1.77631446023685     -0.44655071426843
  N   1.73326890269851      0.68716233073321     -0.44249945880953
  O   2.73006688030809      0.22039800664267     -0.97951102910089
  O   1.61359162391949      1.82406668205798      0.00309335073471
  N   -1.48162476428684     -0.69568574987397      0.96980556145476
  O   -1.97736275637506     -1.40319095920388      0.09245439642832
  O   -1.69441089130345     -0.77588355151567      2.17318293679173
  N   -1.37574447458361      1.40007297023331     -0.11640907818979
  H   -1.57133546741364      1.16957135355676     -1.08121311851921
  H   -0.92752875522769      2.30278599658385     -0.05954158131687
