16

C	0.0	0.0	0.0
C	-0.550469	-0.035434	-1.433053
Br	1.956233	0.0	0.0
H	-1.65396	0.078614	-1.313222
C	-0.401632	1.213814	0.711865
N	-0.63517	2.157523	1.37306
C	-0.461517	-1.238167	0.769227
H	-1.554343	-1.251934	0.75144
H	-0.105292	-1.171199	1.798337
H	-0.049272	-2.136686	0.306859
C	-0.216514	-1.283276	-2.104863
N	0.012555	-2.300543	-2.646139
N	-0.035044	1.122572	-2.247296
O	-0.392829	2.23345	-1.871708
O	0.697627	0.882755	-3.204024
Cl	-3.49937	0.0	0.0
