16

C	0.0	0.0	0.0
C	-0.439337	-0.207167	-1.470642
F	1.381284	0.0	0.0
H	0.494411	-0.436987	-1.999984
H	-0.270697	-0.917679	0.539045
N	-0.54445	1.183028	0.593066
H	-1.563402	0.997738	0.483217
H	-0.354349	1.136504	1.589731
C	-1.078508	1.031378	-2.101377
H	-2.057792	1.155015	-1.637895
H	-0.475174	1.931024	-1.950609
H	-1.203683	0.865395	-3.179225
N	-1.302748	-1.393028	-1.528141
H	-1.623433	-1.48815	-2.487621
H	-2.123394	-1.095634	-0.966675
F	-2.951233	0.0	0.0
