16

C	0.0	0.0	0.0
C	-0.202377	0.137222	-1.535503
F	1.393856	0.0	0.0
H	0.346033	1.074531	-1.739346
H	-0.293758	-1.003374	0.332026
N	-0.604924	1.067814	0.711562
H	-1.628748	0.831256	0.516108
H	-0.47334	0.887066	1.703074
C	-1.571682	0.263515	-2.168317
H	-1.418776	0.462167	-3.241264
H	-2.160707	1.053015	-1.715889
H	-2.152269	-0.642411	-2.022198
N	0.474355	-1.021353	-2.157341
H	1.461817	-0.967371	-1.942292
H	0.376353	-0.933494	-3.162394
F	-2.91946	0.0	0.0
