16

C	0.0	0.0	0.0
C	-0.433749	0.075376	-1.459286
F	1.414128	0.0	0.0
H	-1.527174	0.106541	-1.355365
H	-0.322141	-0.958181	0.413537
N	-0.53199	1.036897	0.816646
H	-1.549329	0.774441	0.763351
H	-0.458884	1.886531	0.256328
C	0.012714	-1.147144	-2.253919
H	1.105851	-1.222721	-2.271809
H	-0.388118	-2.064634	-1.810247
H	-0.346162	-1.091869	-3.288152
N	0.048444	1.344787	-2.021202
H	1.047621	1.268626	-2.183815
H	-0.399398	1.501211	-2.91658
F	-2.844085	0.0	0.0
