16

C	0.0	0.0	0.0
C	-0.425485	0.185821	-1.487363
F	1.387782	0.0	0.0
H	0.512307	0.053594	-2.042954
H	-0.2622	-1.031745	0.28383
N	-0.553966	0.972448	0.884781
H	-1.574529	0.813156	0.721156
H	-0.362288	0.668713	1.836
C	-0.985978	1.569025	-1.781862
H	-0.329828	2.35688	-1.404683
H	-1.112252	1.676163	-2.862961
H	-1.96016	1.638092	-1.297199
N	-1.383657	-0.810071	-1.968359
H	-2.190947	-0.674376	-1.33003
H	-0.996692	-1.726467	-1.762814
F	-2.943068	0.0	0.0
