16

C	0.0	0.0	0.0
C	-0.411241	-0.001253	-1.468296
F	1.423786	0.0	0.0
H	-1.505365	0.047905	-1.394209
H	-0.314556	-0.936544	0.464848
N	-0.526319	1.081335	0.756199
H	-0.43088	1.900268	0.159138
H	-1.544625	0.826097	0.712315
C	0.038272	-1.271092	-2.186157
H	-0.283434	-1.262945	-3.233978
H	-0.392992	-2.158277	-1.710365
H	1.130214	-1.361748	-2.161263
N	0.102467	1.229702	-2.087096
H	-0.309203	1.335471	-3.006508
H	1.105539	1.134404	-2.207663
F	-2.826516	0.0	0.0
