16
Coordinates from ORCA-job run
  C   -0.57229597833142      0.00441434063972      0.59376588096740
  C   0.87904478492576     -0.44946296119976      0.54971379370386
  Cl  -1.21854495881992     -0.26249347395540      2.23472150612562
  H   0.88355117699727     -1.52656989870864      0.74097030988481
  H   1.40345964493967      0.03117079505396      1.37739270936659
  N   -0.56816792829265      1.52033367391513      0.37725118953314
  O   -1.22741306645645      1.96171975016960     -0.56000112800504
  O   0.13535497294418      2.17958162236273      1.13245473364235
  C   -1.48288947002241     -0.66212783788728     -0.40964068567389
  H   -1.15153073470786     -0.46251427926097     -1.42769892851793
  H   -1.46919206207062     -1.73778304058745     -0.22595944809769
  H   -2.50383244236580     -0.29850983526138     -0.30423257525199
  C   1.57700901803376     -0.13363827068085     -0.77005409581540
  H   2.61891379487867     -0.45528014793313     -0.71524502791807
  H   1.57945755224702      0.93867651867390     -0.97801050336721
  H   1.11807569610079     -0.64851695534018     -1.61542773057655
