16
Coordinates from ORCA-job run
  C   -0.47069039023427      0.15804781794007      0.46868869994310
  C   0.95140259451692      0.37758463818113     -0.02962863249015
  Cl  -0.45332144986421     -0.67338055934180      2.04859148786898
  H   1.50276189289238      0.89224063754819      0.75902063233365
  H   0.88550743586804      1.06734017182850     -0.88009802793099
  N   -1.04754667947441      1.55369036693356      0.73707559639597
  O   -0.40696150467913      2.27393551080304      1.49253332317933
  O   -2.08101826179875      1.86398811175174      0.15153034398712
  C   -1.36816842734112     -0.59509204537527     -0.48219705755915
  H   -1.37409988557483     -0.10788310948681     -1.45883546182252
  H   -2.38808226725654     -0.62895324469067     -0.10353544289308
  H   -0.99923837776656     -1.61479081373624     -0.58861195425322
  C   1.66666656355772     -0.90088442894631     -0.44783565710884
  H   1.20652889412884     -1.35737127468451     -1.32561731914706
  H   1.67434154950994     -1.63318113735381      0.36118117361030
  H   2.70391831351599     -0.67329064137082     -0.70126170411345
