16
Coordinates from ORCA-job run
  C   -0.51924108355840      0.01854324265152      0.40547113117376
  C   0.70490960318088     -0.66783693629509     -0.19074029622914
  Cl  -0.31484712134812      0.24577234874990      2.15057543412409
  H   0.46082717205706     -0.90933919791585     -1.22902500503484
  H   0.83112049254724     -1.61067420428769      0.34901285490091
  N   -0.61616844072982      1.38854197928714     -0.27304123348037
  O   -0.86403817026136      1.32459000053578     -1.47509863811791
  O   -0.40657214085244      2.40975902425612      0.36384588133338
  C   -1.81420144139335     -0.72560477516903      0.14553720425817
  H   -1.75937982368284     -1.70777319733483      0.61696985332584
  H   -1.96360287007048     -0.84385216781788     -0.92723915852918
  H   -2.65981194458841     -0.18268327387172      0.57141162342471
  C   1.98241058863020      0.16102943394886     -0.13295320275386
  H   2.21109697086464      0.47513105223832      0.88616905743407
  H   1.90456959061563      1.05217439651260     -0.75931268431774
  H   2.82292861858955     -0.42877772548815     -0.50358282151188
