16

C	-0.372986	-0.092455	-1.492951
C	0.0	0.0	0.0
Br	-2.233778	-0.625518	-1.738004
H	1.095665	0.0	0.0
N	-0.195808	1.32708	-2.052816
O	0.974085	1.622353	-2.255557
O	-1.166773	2.05039	-2.209734
N	0.469063	-0.956881	-2.257329
H	0.278547	-1.916628	-1.995781
H	1.435453	-0.740734	-2.003545
C	-0.391002	-1.246283	0.675907
N	-0.715841	-2.213543	1.260097
N	-0.478542	1.207687	0.631768
H	0.170318	1.475515	1.360253
H	-1.404479	1.090023	1.022295
Cl	3.255004	0.0	0.0
