16

C	-0.403986	-0.002581	-1.472277
C	0.0	0.0	0.0
Br	-2.435134	0.418162	-1.563497
H	1.093261	0.0	0.0
N	0.223604	1.156134	-2.24279
O	0.902817	1.960401	-1.628257
O	0.013033	1.14647	-3.45385
N	-0.051532	-1.1511	-2.147642
H	-0.25651	-1.111306	-3.135416
H	-0.345958	-2.007956	-1.703655
C	-0.448116	-1.270389	0.587157
N	-0.836263	-2.269717	1.070544
N	-0.468686	1.170352	0.705988
H	-1.352352	1.005436	1.168499
H	0.237289	1.447848	1.375541
Cl	3.228283	0.0	0.0
