16

C	-0.336654	-0.087621	-1.498563
C	0.0	0.0	0.0
Br	-2.191468	-0.650817	-1.849521
H	1.095852	0.0	0.0
N	-0.241376	1.380151	-2.056983
O	-1.224366	2.104185	-2.045044
O	0.881912	1.68826	-2.440559
N	0.558669	-0.973799	-2.097495
H	1.512359	-0.793067	-1.777721
H	0.500102	-0.977286	-3.105433
C	-0.431339	-1.22893	0.678275
N	-0.801739	-2.153218	1.303123
N	-0.45468	1.220209	0.624835
H	-1.391265	1.126766	0.994844
H	0.185146	1.458269	1.370999
Cl	3.253396	0.0	0.0
