16

C	-0.599418	0.025275	-1.4102
C	0.0	0.0	0.0
Br	0.382984	1.439804	-2.447199
H	1.093154	0.0	0.0
N	-0.322133	-1.245874	-2.192559
O	-0.967092	-1.384221	-3.227399
O	0.500727	-2.027025	-1.735749
N	-1.982709	0.202035	-1.361283
H	-2.383968	0.345764	-2.277576
H	-2.176079	0.965752	-0.721948
C	-0.515676	-1.158483	0.729561
N	-0.918194	-2.058572	1.368253
N	-0.472631	1.236891	0.672921
H	0.275155	1.914798	0.556985
H	-0.534944	1.050449	1.667116
Cl	3.27407	0.0	0.0
