16

C	-0.390594	-0.073765	-1.486911
C	0.0	0.0	0.0
Br	-2.284096	-0.499321	-1.698736
H	1.095359	0.0	0.0
N	-0.139445	1.329014	-2.061809
O	-1.070236	2.10636	-2.210052
O	1.042247	1.553277	-2.290109
N	0.38961	-0.990809	-2.257239
H	0.150767	-1.937423	-1.983635
H	1.371164	-0.823024	-2.024623
C	-0.396809	-1.255221	0.657781
N	-0.724661	-2.231184	1.2258
N	-0.469572	1.201457	0.649989
H	0.183274	1.456153	1.379557
H	-1.39411	1.083292	1.042269
Cl	3.249818	0.0	0.0
