16

C	-0.596138	0.003555	-1.410122
C	0.0	0.0	0.0
Br	0.336349	1.455434	-2.449934
H	1.093939	0.0	0.0
N	-0.260211	-1.255794	-2.18758
O	-0.921542	-1.445439	-3.20465
O	0.626975	-1.974029	-1.747382
N	-1.983301	0.128137	-1.367188
H	-2.214688	0.882545	-0.730255
H	-2.392444	0.241948	-2.283235
C	-0.501271	-1.170102	0.723467
N	-0.886495	-2.084692	1.351637
N	-0.500523	1.226315	0.667902
H	0.203471	1.938871	0.496944
H	-0.49274	1.059112	1.667991
Cl	3.290448	0.0	0.0
