16

C	-0.63156	0.271299	-1.369235
C	0.0	0.0	0.0
Br	0.106692	1.870922	-2.165708
H	1.105184	0.0	0.0
N	-0.2448	-0.869761	-2.353807
O	0.817371	-1.44461	-2.172028
O	-1.055875	-1.098547	-3.249661
N	-2.040601	0.396237	-1.266695
H	-2.434829	0.586836	-2.179584
H	-2.423624	-0.48493	-0.934302
C	-0.496463	-1.319127	0.441206
N	-1.00046	-2.319362	0.800663
N	-0.372087	1.076331	0.901935
H	-1.301007	0.956821	1.28124
H	0.313183	1.125049	1.644421
Cl	3.282123	0.0	0.0
