16

C	-0.346253	-0.093627	-1.49365
C	0.0	0.0	0.0
Br	-2.226062	-0.574968	-1.817493
H	1.096042	0.0	0.0
N	-0.180828	1.35683	-2.077066
O	-1.132303	2.120513	-2.100134
O	0.961907	1.608568	-2.443822
N	0.502331	-1.032589	-2.083906
H	1.467509	-0.872476	-1.788581
H	0.423334	-1.059291	-3.091343
C	-0.43466	-1.225812	0.68309
N	-0.807369	-2.145343	1.313429
N	-0.453614	1.224001	0.618475
H	-1.393795	1.134119	0.981907
H	0.181511	1.460153	1.36972
Cl	3.251451	0.0	0.0
