16

C	-0.286992	-0.201569	-1.493731
C	0.0	0.0	0.0
Br	-0.360652	-2.20403	-1.928246
H	1.107149	0.0	0.0
N	-1.703937	0.226977	-1.856129
O	-2.561077	0.082544	-0.993837
O	-1.887205	0.657097	-2.988351
N	0.625151	0.506154	-2.240166
H	0.524842	0.401898	-3.238381
H	1.580863	0.389117	-1.899765
C	-0.516673	-1.035164	0.891979
N	-0.938593	-1.767794	1.708271
N	-0.422127	1.34244	0.375546
H	-1.291955	1.318857	0.890012
H	0.302299	1.75984	0.944373
Cl	3.261242	0.0	0.0
