16

C	-0.359153	-0.166664	-1.487609
C	0.0	0.0	0.0
Br	-2.436969	0.256965	-1.697018
H	1.106208	0.0	0.0
N	0.211469	0.930958	-2.378968
O	0.465141	2.01023	-1.867541
O	0.331501	0.649393	-3.565409
N	0.001418	-1.368893	-2.010964
H	-0.232898	-2.18214	-1.462462
H	-0.097866	-1.461881	-3.009515
C	-0.459502	-1.21779	0.676418
N	-0.832265	-2.209278	1.185484
N	-0.452855	1.162375	0.720478
H	-1.406216	1.391424	0.466367
H	0.151254	1.934039	0.473943
Cl	3.221346	0.0	0.0
