16

C	-0.392579	0.026128	-1.478963
C	0.0	0.0	0.0
Br	0.33402	-1.576855	-2.334493
H	1.094594	0.0	0.0
N	-1.930906	-0.07593	-1.659109
O	-2.615812	0.123548	-0.656412
O	-2.362093	-0.247668	-2.788437
N	-0.002162	1.231748	-2.096849
H	0.489124	1.08195	-2.964517
H	0.540374	1.78943	-1.44633
C	-0.484699	-1.203469	0.683438
N	-0.841732	-2.146486	1.286773
N	-0.358734	1.251529	0.650339
H	-1.308815	1.227808	0.994253
H	0.288836	1.409881	1.41172
Cl	3.264633	0.0	0.0
