17

C	-0.273842	0.019005	-1.514249
C	0.0	0.0	0.0
Cl	-2.01526	-0.4056	-1.842845
H	1.09415	0.0	0.0
C	-0.103963	1.394565	-2.013463
N	-0.001914	2.492376	-2.417376
N	0.5758	-0.83748	-2.311461
H	0.415355	-1.778217	-1.962067
H	1.525348	-0.606215	-1.993779
N	-0.421139	-1.27592	0.581038
O	-1.004444	-1.268127	1.67264
O	-0.110842	-2.321276	-0.013027
C	-0.528561	1.171019	0.788055
H	-1.619282	1.230648	0.763525
H	-0.208506	1.072891	1.82511
H	-0.10083	2.092435	0.390966
H	2.610484	0.0	0.0
