17

C	-0.265762	-0.097874	-1.504244
C	0.0	0.0	0.0
Cl	-1.993793	-0.729431	-1.840121
H	1.093458	0.0	0.0
C	-0.302796	1.255317	-2.092381
N	-0.281752	2.284987	-2.660729
N	0.697483	-0.925845	-2.12163
H	0.828825	-0.697938	-3.097907
H	1.582379	-0.856607	-1.595691
N	-0.403332	-1.251467	0.672006
O	0.080104	-2.301715	0.251877
O	-1.162515	-1.175353	1.646582
C	-0.57282	1.212034	0.685919
H	-0.317266	1.177332	1.744412
H	-1.659879	1.265531	0.594167
H	-0.121865	2.109444	0.26019
H	2.640064	0.0	0.0
