17

C	-0.511027	-0.045137	-1.44626
C	0.0	0.0	0.0
Cl	-0.010948	1.499305	-2.255931
H	1.090341	0.0	0.0
C	0.139662	-1.110397	-2.226506
N	0.622048	-1.922614	-2.924403
N	-1.949096	-0.163756	-1.631528
H	-2.387445	0.584399	-1.104925
H	-2.205191	-1.050233	-1.206428
N	-0.401559	-1.186748	0.690089
O	-0.766453	-2.187807	0.024467
O	-0.227927	-1.228314	1.924783
C	-0.345256	1.229419	0.814692
H	0.044283	2.121325	0.32755
H	0.151853	1.127224	1.778622
H	-1.421155	1.340057	0.986152
H	2.416211	0.0	0.0
