17

C	-0.468217	-0.031827	-1.452708
C	0.0	0.0	0.0
Cl	0.157097	1.534931	-2.249575
H	1.090106	0.0	0.0
C	0.129411	-1.080202	-2.29508
N	0.475792	-1.858857	-3.10446
N	-1.886334	-0.1278	-1.54793
H	-2.187979	-0.088747	-2.514942
H	-2.314396	0.63097	-1.031812
N	-0.384721	-1.247923	0.644655
O	-0.754184	-1.214718	1.832113
O	-0.203702	-2.298451	0.012531
C	-0.463493	1.190287	0.808637
H	-0.185256	2.112604	0.300565
H	0.060028	1.162599	1.765148
H	-1.53776	1.180641	1.018248
H	2.524145	0.0	0.0
