17

C	-0.437507	0.033194	-1.433767
C	0.0	0.0	0.0
Cl	-2.472463	-0.181996	-1.439894
H	1.093815	0.0	0.0
C	-0.361239	1.374429	-2.00903
N	-0.262716	2.443215	-2.488475
N	0.153001	-0.884632	-2.269736
H	0.238128	-1.792965	-1.831392
H	-0.211924	-0.891494	-3.21017
N	-0.324801	-1.258977	0.633612
O	-0.108064	-2.311762	-0.001728
O	-0.650345	-1.255974	1.830986
C	-0.437014	1.177707	0.834985
H	0.062423	1.117114	1.801453
H	-1.517557	1.196306	0.987815
H	-0.114229	2.101178	0.350529
H	2.412069	0.0	0.0
