17

C	-0.284713	0.072155	-1.503795
C	0.0	0.0	0.0
Cl	-0.037467	-1.625269	-2.236001
H	1.092251	0.0	0.0
C	-1.657834	0.43558	-1.876295
N	-2.735408	0.774378	-2.199452
N	0.643309	1.015507	-1.996514
H	1.577022	0.802253	-1.607535
H	0.66029	1.037682	-3.006765
N	-0.585577	-1.199945	0.637302
O	-1.75485	-1.473947	0.352623
O	0.09925	-1.805832	1.458513
C	-0.502252	1.218744	0.749786
H	-0.07008	2.109887	0.295064
H	-1.59384	1.286531	0.734987
H	-0.151829	1.158114	1.783491
H	2.774774	0.0	0.0
