16

C	0.0	0.0	0.0
C	-0.614195	0.047583	-1.378862
F	1.358831	0.0	0.0
H	-1.724938	0.137704	-1.127274
H	-0.373059	-0.848188	-1.939236
C	-0.48595	1.045994	0.964172
H	-1.576104	0.952438	0.977153
H	-0.179984	2.019677	0.586043
H	-0.038744	0.867209	1.941651
N	-0.350795	-1.399844	0.555385
O	-0.566804	-1.504363	1.755635
O	-0.271666	-2.346294	-0.224538
N	-0.11063	1.175284	-2.186777
O	0.32463	0.912275	-3.312911
O	-0.179988	2.320256	-1.736831
F	-2.842686	0.0	0.0
