16

C	0.0	0.0	0.0
C	-0.654735	-0.053234	-1.348401
F	1.359745	0.0	0.0
H	-1.754606	-0.238483	-1.078508
H	-0.597089	0.921115	-1.833676
C	-0.514607	1.186372	0.774714
H	-1.609669	1.105141	0.743921
H	-0.11817	1.144504	1.789074
H	-0.161052	2.098541	0.285493
N	-0.354706	-1.269219	0.798858
O	-1.002078	-2.158369	0.267595
O	0.092647	-1.301331	1.945063
N	-0.080309	-1.01653	-2.305428
O	-0.424647	-0.879191	-3.482457
O	0.692615	-1.888685	-1.910859
F	-2.897327	0.0	0.0
