16

C	0.0	0.0	0.0
C	-0.601899	0.049648	-1.386161
F	1.358881	0.0	0.0
H	-1.710143	0.139595	-1.151856
H	-0.344451	-0.841024	-1.946311
C	-0.485262	1.055086	0.954154
H	-0.174541	2.025179	0.56931
H	-1.576704	0.966662	0.962084
H	-0.0411	0.882125	1.933644
N	-0.353034	-1.393929	0.562847
O	-0.338443	-2.337695	-0.223282
O	-0.490784	-1.499234	1.774726
N	-0.080828	1.186406	-2.173798
O	-0.281689	2.333986	-1.775348
O	0.503496	0.92441	-3.23053
F	-2.836288	0.0	0.0
