16

C	0.0	0.0	0.0
C	-0.599786	0.066552	-1.385932
F	1.358985	0.0	0.0
H	-1.707771	0.14892	-1.151794
H	-0.335542	-0.813182	-1.961158
C	-0.486678	1.047104	0.961835
H	-1.578577	0.96082	0.961047
H	-0.169138	2.021013	0.591475
H	-0.049577	0.86069	1.942053
N	-0.359131	-1.397693	0.549712
O	-0.435735	-1.519328	1.766882
O	-0.421392	-2.328198	-0.250074
N	-0.079663	1.220658	-2.148614
O	0.534018	0.979361	-3.194425
O	-0.304197	2.360527	-1.737847
F	-2.834633	0.0	0.0
