14

C	0.0	0.0	0.0
C	-0.632061	0.040663	-1.384886
Br	1.941493	0.0	0.0
H	-1.732835	-0.009888	-1.189579
H	-0.352391	0.857691	0.570233
N	-0.430351	-1.225646	0.758161
O	-0.529728	-1.099191	1.969763
O	-0.572817	-2.254034	0.108332
N	-0.280733	-1.101027	-2.313997
O	-1.227654	-1.705582	-2.800434
O	0.905214	-1.301961	-2.554052
C	-0.275209	1.276994	-2.061064
N	0.006228	2.278167	-2.608595
Cl	-3.396851	0.0	0.0
