17
Coordinates from ORCA-job run
  C   -0.77725358565899      0.21070273546621      0.20107569290041
  C   0.62270942252460     -0.12648236071097      0.76170623869312
  H   -1.38717714772435      0.52980349214406      1.05344235987079
  H   0.53475869969360     -1.01919538608692      1.39393275773087
  C   -1.44018279104278     -1.01420046109740     -0.42788962946544
  H   -0.88994211247954     -1.35230286169552     -1.31033376410487
  H   -1.50227661070410     -1.84955546634168      0.27565297353974
  H   -2.45482329626114     -0.76390370028791     -0.74725022987917
  N   -0.66296538420842      1.35768895287592     -0.69643090306670
  H   -0.48871896176843      1.04856199806691     -1.64559315308497
  H   -1.52329721334186      1.88990804239173     -0.70361436876693
  C   1.06983069640658      0.96784514248812      1.62818002048946
  N   1.42942156547670      1.83595762591027      2.33200077048858
  C   1.66823343635474     -0.38208855141798     -0.32792588220806
  H   1.37192642510680     -1.21722480943351     -0.96545957285109
  H   1.79577778156362      0.51212992400253     -0.93876219010045
  H   2.63297907606297     -0.62764431627385      0.11926887981470
