18

C	-0.461868	-0.015324	-1.445907
C	0.0	0.0	0.0
F	0.029494	-1.095579	-2.108053
H	1.096854	0.0	0.0
C	-1.93175	-0.026071	-1.577523
N	-3.103166	-0.082905	-1.64241
N	0.027624	1.223072	-2.207419
O	-0.627533	2.245474	-2.024206
O	1.015108	1.092632	-2.907707
C	-0.464484	-1.292676	0.670948
H	-0.131856	-2.168922	0.113338
H	-1.554041	-1.328571	0.784264
H	-0.010587	-1.344412	1.662718
C	-0.489803	1.22432	0.766003
H	-0.0701	2.148728	0.370945
H	-1.582167	1.305507	0.763512
H	-0.15305	1.128236	1.800562
Cl	3.374668	0.0	0.0
