18

C	-0.381816	-0.003069	-1.467378
C	0.0	0.0	0.0
F	0.179913	1.04194	-2.123757
H	1.097697	0.0	0.0
C	-0.062408	-1.249594	-2.176891
N	0.178666	-2.244713	-2.751851
N	-1.904943	0.18543	-1.600504
O	-2.311893	1.315683	-1.830963
O	-2.591708	-0.810773	-1.393493
C	-0.461185	-1.246555	0.745654
H	-1.549212	-1.302256	0.837122
H	-0.102595	-2.158643	0.264008
H	-0.026037	-1.217196	1.747021
C	-0.472578	1.284099	0.674545
H	-1.555854	1.29219	0.839013
H	-0.19861	2.163781	0.090835
H	0.024591	1.361319	1.643561
Cl	3.356719	0.0	0.0
