18

C	-0.519732	0.02606	-1.420899
C	0.0	0.0	0.0
F	-1.892634	0.100568	-1.442639
H	1.095043	0.0	0.0
C	-0.004135	1.137231	-2.23122
N	0.336704	2.06088	-2.871875
N	-0.162595	-1.273942	-2.15163
O	-0.999606	-2.165421	-2.113305
O	0.938637	-1.314126	-2.676488
C	-0.47452	-1.250338	0.737586
H	-0.160876	-1.167669	1.780482
H	-0.013802	-2.153683	0.334903
H	-1.561849	-1.361983	0.703563
C	-0.453223	1.27719	0.709784
H	-0.105989	2.170489	0.185135
H	-0.003261	1.293626	1.704623
H	-1.541446	1.323134	0.812776
Cl	3.376338	0.0	0.0
