12
Coordinates from ORCA-job run
  C   -0.18324884572708      1.47691050832437     -0.44704226167306
  C   -0.02505574940751      0.20269926235886     -0.06131084465962
  H   -1.11718503806727      1.82813207269289     -0.87411870365417
  H   0.61715156912845      2.20305211721615     -0.34660514112247
  C   -1.12400150624006     -0.81541997653579     -0.19449178559124
  H   -1.38071756905841     -1.23856909269185      0.78226066537128
  H   -2.02654489588384     -0.38136167934845     -0.62860072559876
  H   -0.80451398996274     -1.65002879265057     -0.82724035728759
  C   1.26233994748554     -0.29938870687075      0.53229178214671
  H   1.67321897269303     -1.11738032754808     -0.06859161436022
  H   1.09552681900581     -0.69809384099355      1.53838664631077
  H   2.01303028603408      0.49044845604678      0.59606234011838
