12
Coordinates from ORCA-job run
  C   -0.26632935167179      1.45911776172073     -0.46334192395369
  C   -0.03652145928245      0.20022820701178     -0.06357468141255
  H   0.53866659464650      2.18171808627437     -0.55174760930472
  H   -1.26565282419616      1.80086027512262     -0.71349107330013
  C   -1.14087770249267     -0.81264018979266      0.06423841258952
  H   -2.11004947118215     -0.39018583573051     -0.20720978886939
  H   -1.20446317295942     -1.18904243827882      1.09054152598070
  H   -0.94982113628837     -1.67773845424652     -0.57926307468031
  C   1.34217044993523     -0.28873360415716      0.28586712175370
  H   2.09047074295685      0.49793336085226      0.17342316283071
  H   1.62850703378775     -1.13036544985839     -0.35341569639814
  H   1.37490029674667     -0.65015171891772      1.31897362476430
