16

C	0.0	0.0	0.0
C	-0.451105	0.074855	-1.464165
Cl	1.803894	0.0	0.0
H	-1.543352	0.178401	-1.410396
H	-0.024125	0.975654	-1.917071
C	-0.437699	1.253612	0.741132
H	-0.099353	1.217786	1.782162
H	-1.535171	1.252013	0.707704
H	-0.036387	2.158317	0.273924
N	-0.533369	-1.215042	0.560283
H	-1.561545	-1.072001	0.458386
H	-0.344121	-1.221704	1.559236
N	-0.120434	-1.079833	-2.29098
H	-0.551282	-1.883939	-1.846031
H	0.881483	-1.235099	-2.223905
H	-3.182937	0.0	0.0
