17
Coordinates from ORCA-job run
  C   0.80205867180156      0.19895854992746     -0.36399056562716
  C   -0.70271579223432     -0.13927735312926     -0.33826870690753
  Cl  1.14520668885608      0.81143224111160     -2.02297696381894
  H   -0.90197994902374     -0.80129582071624     -1.18213293986593
  C   1.67682794180331     -1.02418547892100     -0.11151571652043
  H   1.55310513420858     -1.36875580203508      0.91719221873834
  H   2.72413208887877     -0.76556487345971     -0.26886018237211
  H   1.39898949581328     -1.82645998798485     -0.79751698684729
  C   1.13123911060311      1.27021617905495      0.57555478621293
  N   1.41781887843398      2.12506987672865      1.32909968092376
  C   -1.62914731766888      1.05838279369855     -0.31817672657002
  H   -2.66752901889580      0.72055637139286     -0.32202194369186
  H   -1.45797576821599      1.66030926746565      0.57433248194044
  H   -1.46367143594910      1.67206710663825     -1.20405486332770
  N   -0.95487532464257     -0.98595275948623      0.87592370329268
  O   -0.87227159637377     -0.42939095408678      1.96878773118651
  O   -1.20021180739451     -2.17610935619881      0.68762499325430
