17
Coordinates from ORCA-job run
  C   0.82145581053389      0.21640540872192     -0.30567431822118
  C   -0.68028854547711     -0.12965768674228     -0.38730960669486
  Cl  1.26357817651023      0.89119003267700     -1.91621328985699
  H   -0.82118571455220     -0.75798549375019     -1.26790462802318
  C   1.68688234180215     -1.01116455745543     -0.04321752645063
  H   2.74030666141270     -0.74317903169323     -0.12527423378558
  H   1.45729351439609     -1.78927623878006     -0.77331209502932
  H   1.50175866958589     -1.39267471053453      0.96288689333128
  C   1.08315275078799      1.25379614889407      0.69145732838447
  N   1.31731918845818      2.08148791875258      1.49205932554352
  C   -1.61317063956546      1.06288052228058     -0.37778118559582
  H   -1.50412409926444      1.62680010903216      0.54874003662708
  H   -1.39242120326084      1.71416370887153     -1.22395531819795
  H   -2.64735997317762      0.72344026741897     -0.46430933594738
  N   -1.00076282892681     -1.02535272415118      0.77407048036075
  O   -0.98674706215153     -0.51316097177970      1.89120950767698
  O   -1.22668704711108     -2.20771270176221      0.52352796587881
