18

C	0.0	0.0	0.0
C	-0.53256	-0.075997	-1.445438
Cl	1.806325	0.0	0.0
H	-1.620249	0.011274	-1.317927
C	-0.495334	1.249025	0.708096
H	-1.588983	1.20695	0.730489
H	-0.165734	2.11926	0.142131
H	-0.103625	1.287498	1.726405
C	-0.381641	-1.199391	0.749866
N	-0.635034	-2.17205	1.359378
C	-0.222331	-1.401094	-2.130676
H	-0.646592	-1.386045	-3.138328
H	-0.663326	-2.242358	-1.592668
H	0.857525	-1.560667	-2.212775
N	-0.063311	1.098694	-2.176905
H	-0.738628	1.323316	-2.895707
H	0.820617	0.891135	-2.627708
Br	-3.960158	0.0	0.0
