18

C	0.0	0.0	0.0
C	-0.535214	-0.104745	-1.442047
Cl	1.805646	0.0	0.0
H	-1.620802	0.015629	-1.320052
C	-0.490503	1.26678	0.681585
H	-0.077337	1.339013	1.690312
H	-0.178032	2.121002	0.082646
H	-1.583463	1.218544	0.725116
C	-0.38282	-1.179133	0.779878
N	-0.64227	-2.136041	1.410547
C	-0.262958	-1.458947	-2.086341
H	0.811031	-1.664253	-2.139324
H	-0.750256	-2.265775	-1.534807
H	-0.665506	-1.455548	-3.102929
N	-0.032567	1.035406	-2.207268
H	0.846943	0.790334	-2.650081
H	-0.700398	1.25646	-2.934278
Br	-3.961229	0.0	0.0
