18

C	0.0	0.0	0.0
C	-0.545667	0.132124	-1.44534
Cl	1.802825	0.0	0.0
H	-1.631345	0.042012	-1.306932
C	-0.500742	1.106071	0.913549
H	-1.59562	1.076675	0.899239
H	-0.137228	0.953155	1.931154
H	-0.141007	2.071078	0.553932
C	-0.365919	-1.309381	0.55301
N	-0.581377	-2.376533	0.995217
C	-0.061775	-0.977787	-2.365173
H	-0.595898	-0.886671	-3.311836
H	1.009601	-0.888381	-2.564889
H	-0.259917	-1.965584	-1.943767
N	-0.284953	1.42672	-2.054781
H	-0.884319	2.128733	-1.639608
H	0.682433	1.69943	-1.91666
Br	-3.916473	0.0	0.0
