18

C	0.0	0.0	0.0
C	-0.55512	-0.215759	-1.430369
Cl	1.789436	0.0	0.0
H	-1.642065	-0.258339	-1.276863
C	-0.503349	1.292989	0.623566
H	-0.141175	1.388488	1.648214
H	-0.141383	2.14266	0.042731
H	-1.597994	1.260002	0.613021
C	-0.363344	-1.137024	0.858152
N	-0.560423	-2.041585	1.58216
C	-0.084471	-1.519348	-2.056038
H	0.98743	-1.49043	-2.272423
H	-0.619657	-1.654909	-2.996505
H	-0.290074	-2.373747	-1.408457
N	-0.282264	0.890582	-2.33657
H	-0.875657	1.676754	-2.105315
H	0.687738	1.180024	-2.262941
Br	-3.938426	0.0	0.0
