18

C	0.0	0.0	0.0
C	-0.451066	-0.142759	-1.474416
Cl	1.799695	0.0	0.0
H	0.197307	0.542094	-2.033651
C	-0.510537	1.270217	0.663705
H	-0.226341	2.136241	0.06153
H	-0.075702	1.372848	1.659457
H	-1.59896	1.22504	0.749975
C	-0.410246	-1.175661	0.772468
N	-0.724462	-2.12316	1.392205
C	-1.907354	0.244921	-1.687567
H	-2.608358	-0.284553	-1.036716
H	-2.178414	0.015241	-2.722765
H	-2.089483	1.309709	-1.531159
N	-0.123217	-1.498158	-1.919365
H	-0.866404	-2.120167	-1.613473
H	-0.134179	-1.514907	-2.932493
Br	-5.045474	0.0	0.0
