18

C	0.0	0.0	0.0
C	-0.423579	0.004502	-1.527609
Cl	1.808434	0.0	0.0
H	0.38779	-0.534851	-2.029678
C	-0.582576	1.107928	0.854338
H	-0.253327	2.082597	0.494802
H	-1.675894	1.036017	0.797855
H	-0.273195	0.98889	1.894637
C	-0.349447	-1.310873	0.562021
N	-0.562376	-2.392303	0.969642
C	-0.47845	1.427738	-2.062352
H	-0.605909	1.381371	-3.144812
H	-1.343732	1.950277	-1.646693
H	0.428836	1.99267	-1.833295
N	-1.650232	-0.67253	-1.859074
H	-2.46862	-0.246406	-1.417182
H	-1.632712	-1.632721	-1.536801
Br	-4.371057	0.0	0.0
