18

C	0.0	0.0	0.0
C	-0.611764	0.147282	-1.405421
Cl	1.796929	0.0	0.0
H	-1.656245	-0.155502	-1.24279
C	-0.501355	1.072402	0.952179
H	-1.595714	1.033223	0.962212
H	-0.115347	0.89769	1.957874
H	-0.157396	2.041851	0.591266
C	-0.348102	-1.335441	0.511144
N	-0.551625	-2.416949	0.921534
C	0.030043	-0.766763	-2.433464
H	1.034383	-0.417738	-2.687761
H	-0.58227	-0.775684	-3.33987
H	0.098175	-1.792653	-2.065123
N	-0.536184	1.54729	-1.826701
H	-0.509467	1.581464	-2.83952
H	-1.40171	1.997089	-1.542832
Br	-3.964373	0.0	0.0
