18

C	0.0	0.0	0.0
C	-0.548789	-0.000678	-1.451978
Cl	1.79013	0.0	0.0
H	-1.636704	-0.045478	-1.309764
C	-0.505896	1.188408	0.801878
H	-0.133536	2.114842	0.36132
H	-1.600534	1.161889	0.775075
H	-0.158208	1.127048	1.834823
C	-0.367742	-1.251626	0.675857
N	-0.583446	-2.271993	1.217574
C	-0.099997	-1.213336	-2.252158
H	-0.359968	-2.146218	-1.745777
H	0.979889	-1.197134	-2.429691
H	-0.607274	-1.185232	-3.217851
N	-0.248991	1.217022	-2.190192
H	0.727966	1.468218	-2.082153
H	-0.820932	1.977531	-1.845136
Br	-3.922703	0.0	0.0
