14
Coordinates from ORCA-job run
  C   -0.69191492525362     -0.47707501832021      0.07659059455543
  C   0.73954813773946     -0.09232883552859      0.52036457457905
  F   -1.29292222930298     -0.94189039368160      1.25815362245994
  H   1.25500927991390     -0.98357551221488      0.88247610418793
  C   -0.67420531591577     -1.61621767465630     -0.85685933709211
  N   -0.70709048059113     -2.53918613246325     -1.58176143771949
  N   -1.33675587752657      0.61615545551343     -0.51261543410444
  H   -1.38118512611784      1.42420360776582      0.09628760959427
  H   -2.24981200830205      0.38410548872218     -0.87953324703225
  C   0.68098991749591      0.93641352410385      1.54878681267928
  N   0.60089189046928      1.75832420571609      2.38366284211699
  N   1.50961029885440      0.40225445997039     -0.68363635405304
  O   1.98237818820208     -0.48256545696099     -1.38799644063198
  O   1.56545825033494      1.61038228203406     -0.86391990953956
