15

C	0.0	0.0	0.0
C	-0.522502	-0.058955	-1.42492
F	1.386072	0.0	0.0
H	-1.624719	0.048598	-1.347434
H	-0.337232	0.947988	0.422033
C	-0.469952	-1.175673	0.822673
H	-0.115758	-1.051049	1.848317
H	-1.559711	-1.215932	0.819045
H	-0.052098	-2.101608	0.420676
C	-0.157051	-1.291042	-2.111845
N	0.100133	-2.31175	-2.631936
N	0.001447	1.126537	-2.19703
O	-0.172524	2.221784	-1.674517
O	0.547617	0.929631	-3.279258
Br	-3.732199	0.0	0.0
