15

C	0.0	0.0	0.0
C	-0.547176	-0.088429	-1.411447
F	1.386259	0.0	0.0
H	-1.652968	-0.025675	-1.300671
H	-0.334747	0.952887	0.411904
C	-0.457628	-1.164742	0.848631
H	-0.075709	-1.028498	1.862816
H	-1.547266	-1.207055	0.873823
H	-0.051494	-2.097006	0.448585
C	-0.150174	-1.309972	-2.098509
N	0.146632	-2.333917	-2.590454
N	-0.116196	1.109961	-2.221787
O	0.243339	0.92581	-3.382528
O	-0.188775	2.198493	-1.659883
Br	-3.736044	0.0	0.0
