15

C	0.0	0.0	0.0
C	-0.41614	-0.182242	-1.485919
F	1.381493	0.0	0.0
H	0.536186	-0.283569	-2.021825
H	-0.332452	0.993214	0.305642
C	-0.4278	-1.03849	1.014366
H	-0.152826	-0.657802	2.001278
H	-1.50362	-1.192946	0.981357
H	0.104587	-1.969209	0.829471
C	-1.08448	0.98354	-2.058503
N	-1.379755	1.967342	-2.628543
N	-1.122516	-1.459376	-1.886651
O	-0.678669	-2.487534	-1.382244
O	-1.953689	-1.394198	-2.778049
Br	-3.520979	0.0	0.0
