16

C	-0.541448	0.001489	-1.417067
C	0.0	0.0	0.0
Cl	0.162922	-1.503006	-2.209413
H	1.088643	0.0	0.0
C	-1.998194	-0.105631	-1.541885
N	-3.153733	-0.12508	-1.754081
N	-0.129594	1.21462	-2.029264
H	-0.530584	1.333515	-2.950826
H	0.8817	1.293795	-2.065807
N	-0.459174	-1.126704	0.854718
O	-1.420055	-1.808541	0.495707
O	0.246318	-1.326098	1.843512
N	-0.452926	1.244162	0.701203
O	-1.635296	1.287185	1.040767
O	0.393552	2.109893	0.885154
Br	2.752542	0.0	0.0
