16

C	-0.38224	-0.211395	-1.473697
C	0.0	0.0	0.0
Cl	-2.149613	-0.058244	-1.762264
H	1.10223	0.0	0.0
C	0.268023	0.798034	-2.322241
N	0.744315	1.544629	-3.093326
N	0.051665	-1.512054	-1.929717
H	-0.431233	-2.237222	-1.410734
H	1.055379	-1.585737	-1.764758
N	-0.465129	-1.14314	0.841581
O	0.398835	-1.794351	1.420789
O	-1.675682	-1.360282	0.878313
N	-0.491929	1.255997	0.620724
O	-0.771834	1.224425	1.814793
O	-0.515038	2.243196	-0.106914
Br	3.282036	0.0	0.0
