16

C	-0.318608	-0.076674	-1.503106
C	0.0	0.0	0.0
Cl	-2.075702	0.042742	-1.86249
H	1.101246	0.0	0.0
C	0.330131	1.033645	-2.217113
N	0.822706	1.868232	-2.880892
N	0.19231	-1.309038	-2.062414
H	1.193591	-1.354283	-1.860673
H	-0.2751	-2.100542	-1.632303
N	-0.464905	-1.223978	0.718321
O	-1.665619	-1.487927	0.663162
O	0.389235	-1.882383	1.303548
N	-0.532338	1.181145	0.721643
O	-0.825864	1.031059	1.904075
O	-0.5871	2.22848	0.085258
Br	3.282722	0.0	0.0
