16

C	-0.547075	-0.031144	-1.431445
C	0.0	0.0	0.0
Cl	-0.06921	1.599393	-2.154341
H	1.089917	0.0	0.0
C	0.154374	-1.018925	-2.260039
N	0.602215	-1.776041	-3.037458
N	-1.936679	-0.30461	-1.479377
H	-2.448515	0.401295	-0.965556
H	-2.261829	-0.370959	-2.43481
N	-0.452172	-1.226344	0.736444
O	-1.009565	-1.082717	1.818425
O	-0.186356	-2.285212	0.189265
N	-0.496773	1.176072	0.777556
O	-1.655012	1.548764	0.585027
O	0.278092	1.659879	1.58807
Br	3.296542	0.0	0.0
