16

C	-0.548719	0.08971	-1.431031
C	0.0	0.0	0.0
Cl	0.487555	-0.893242	-2.498048
H	1.101926	0.0	0.0
C	-1.927369	-0.417999	-1.570646
N	-3.043933	-0.733148	-1.759974
N	-0.423709	1.474295	-1.849498
H	-1.250957	1.990955	-1.578682
H	-0.302028	1.519517	-2.851192
N	-0.440946	-1.231845	0.725492
O	-0.538824	-1.15335	1.945719
O	-0.604482	-2.241329	0.047452
N	-0.513872	1.149345	0.801734
O	-1.70736	1.424633	0.637369
O	0.256146	1.713055	1.562864
Br	3.337031	0.0	0.0
