16

C	-0.595034	0.202682	-1.419105
C	0.0	0.0	0.0
Cl	0.438497	1.374154	-2.283694
H	1.096122	0.0	0.0
C	-0.475199	-1.083471	-2.125686
N	-0.4268	-2.111118	-2.692594
N	-1.963685	0.647459	-1.521812
H	-2.022126	1.581124	-1.133589
H	-2.543267	0.018721	-0.976543
N	-0.514157	-1.28387	0.57639
O	0.29239	-2.060478	1.066604
O	-1.734795	-1.455566	0.50672
N	-0.427028	1.064285	0.958903
O	-0.52157	0.740023	2.137808
O	-0.590522	2.195031	0.508851
Br	3.309014	0.0	0.0
