16

C	-0.545671	-0.062463	-1.436012
C	0.0	0.0	0.0
Cl	-0.304836	-1.749855	-2.018716
H	1.109837	0.0	0.0
C	-2.001399	0.193008	-1.503174
N	-3.128692	0.48192	-1.673734
N	0.220955	0.7957	-2.288499
H	-0.184653	0.822217	-3.21585
H	0.265706	1.726371	-1.892444
N	-0.523304	-1.13009	0.827049
O	-1.743707	-1.289121	0.810234
O	0.287437	-1.791051	1.461523
N	-0.432033	1.244709	0.711684
O	-0.575588	2.257369	0.028069
O	-0.543933	1.181978	1.929189
Br	3.321011	0.0	0.0
