15

C	-0.550544	-0.00163	-1.436288
C	0.0	0.0	0.0
Cl	0.295243	-1.202487	-2.410085
H	1.092657	0.0	0.0
C	-1.984265	-0.281006	-1.436061
N	-3.12994	-0.533233	-1.365892
N	-0.333176	1.355347	-2.115232
O	0.655272	1.979813	-1.759508
O	-1.141308	1.668505	-2.985216
N	-0.39443	-1.252811	0.626973
H	0.390918	-1.600385	1.162422
H	-1.198499	-1.143738	1.229029
C	-0.508176	1.179646	0.707862
N	-0.972116	2.069489	1.320548
Br	3.373397	0.0	0.0
