15

C	-0.435764	-0.003352	-1.474021
C	0.0	0.0	0.0
Cl	-2.185923	0.085524	-1.663196
H	1.09281	0.0	0.0
C	0.209029	1.058896	-2.243338
N	0.756666	1.910819	-2.842038
N	0.068311	-1.338041	-2.107242
O	-0.586631	-1.821269	-3.015587
O	1.119438	-1.755686	-1.653655
N	-0.517921	-1.191706	0.625944
H	-1.211307	-1.003175	1.334503
H	0.235974	-1.743664	1.01509
C	-0.455131	1.234567	0.613293
N	-0.881571	2.205302	1.130687
Br	2.752488	0.0	0.0
