11
Coordinates from ORCA-job run
  C   -0.42506871440823      1.40708047113382      0.32594931933479
  C   0.00256610812864      0.17984273118785      0.02037395503532
  H   -1.42430796128276      1.54999307029211      0.71857065230621
  H   0.21272243040695      2.26961175457293      0.18766526628496
  N   1.38179144148858      0.04184016417073     -0.51451124278928
  O   1.74709113845200     -1.10323597857226     -0.78409550853249
  O   2.06534716861493      1.05050208473448     -0.65471619880000
  C   -0.74797578418669     -1.10260506436992      0.15123928719348
  H   -1.74390313786942     -0.90367810298582      0.54798956101027
  H   -0.84026853171875     -1.59871506276938     -0.81612375704361
  H   -0.22699415762525     -1.79163606739453      0.81765866600035
