14

C	-0.426653	0.04728	-1.468174
C	0.0	0.0	0.0
Cl	-2.208883	0.368685	-1.578806
H	1.095041	0.0	0.0
H	-0.322835	0.931113	0.475596
C	0.328995	1.162082	-2.179315
H	1.401682	0.979647	-2.064509
H	0.081022	2.116832	-1.710326
H	0.055752	1.200732	-3.234697
C	-0.192313	-1.237169	-2.131625
N	-0.001	-2.26754	-2.663136
C	-0.550729	-1.130864	0.731282
N	-1.010986	-2.032149	1.326598
Br	3.4629	0.0	0.0
