14

C	-0.420985	0.06356	-1.469761
C	0.0	0.0	0.0
Cl	-2.19167	0.44721	-1.583349
H	1.094946	0.0	0.0
H	-0.318758	0.929447	0.481601
C	0.375626	1.151414	-2.177392
H	0.102839	1.204393	-3.23207
H	0.167441	2.113249	-1.703449
H	1.440574	0.92798	-2.063928
C	-0.231901	-1.226722	-2.135775
N	-0.076409	-2.261254	-2.670874
C	-0.562108	-1.131666	0.720339
N	-1.039327	-2.029557	1.306899
Br	3.467468	0.0	0.0
