14

C	-0.55946	-0.022305	-1.428372
C	0.0	0.0	0.0
Cl	0.093517	-1.486525	-2.239315
H	1.092878	0.0	0.0
H	-0.320828	-0.919091	0.501745
C	-2.083253	-0.0999	-1.455598
H	-2.507692	0.789537	-0.984676
H	-2.405829	-0.987365	-0.906879
H	-2.44222	-0.168507	-2.483564
C	-0.123392	1.154032	-2.185135
N	0.123032	2.12234	-2.80297
C	-0.522736	1.147621	0.733208
N	-0.987615	2.065122	1.30043
Br	3.462036	0.0	0.0
