14

C	-0.422426	0.074477	-1.469172
C	0.0	0.0	0.0
Cl	-2.190991	0.467088	-1.579028
H	1.094984	0.0	0.0
H	-0.317734	0.926592	0.487867
C	0.379196	1.162194	-2.171394
H	0.106367	1.223024	-3.225858
H	0.175677	2.1221	-1.691881
H	1.443269	0.933424	-2.059523
C	-0.239292	-1.213135	-2.142691
N	-0.08609	-2.24588	-2.682308
C	-0.561875	-1.136245	0.713108
N	-1.034676	-2.041617	1.291935
Br	3.467271	0.0	0.0
