15

C	-0.392039	-0.02155	-1.487646
C	0.0	0.0	0.0
F	0.082289	1.152174	-2.054168
H	1.096794	0.0	0.0
C	0.265476	-1.159275	-2.167215
N	0.650671	-2.084636	-2.779594
C	-1.889195	-0.080124	-1.740068
H	-2.357915	0.783777	-1.264239
H	-2.080215	-0.047789	-2.815289
H	-2.311221	-0.997131	-1.325639
C	-0.474612	-1.191183	0.674774
N	-0.854288	-2.157568	1.229411
C	-0.500588	1.200105	0.637963
N	-0.860898	2.194959	1.153633
H	2.473069	0.0	0.0
