15

C	-0.331545	-0.003135	-1.492489
C	0.0	0.0	0.0
F	-1.712118	-0.108454	-1.705749
H	1.097427	0.0	0.0
C	0.075193	1.283858	-2.087599
N	0.348188	2.300466	-2.606769
C	0.374042	-1.156766	-2.173938
H	0.216423	-1.108924	-3.252885
H	-0.030688	-2.094383	-1.790385
H	1.440109	-1.091149	-1.927234
C	-0.451806	-1.227174	0.62723
N	-0.768243	-2.245106	1.124298
C	-0.511218	1.166811	0.693432
N	-0.868417	2.14093	1.248359
H	2.498812	0.0	0.0
