15

C	-0.354451	0.011328	-1.499227
C	0.0	0.0	0.0
F	0.050728	-1.208334	-2.022865
H	1.097333	0.0	0.0
C	-1.81216	0.107547	-1.728525
N	-2.964839	0.217153	-1.928663
C	0.401204	1.121122	-2.202924
H	1.455097	1.010954	-1.929904
H	0.039295	2.098238	-1.877869
H	0.26376	1.023738	-3.281516
C	-0.50784	-1.182036	0.671137
N	-0.870873	-2.15868	1.216983
C	-0.45483	1.217708	0.644072
N	-0.766992	2.232868	1.150676
H	2.529476	0.0	0.0
