15

C	-0.326827	-0.026908	-1.493252
C	0.0	0.0	0.0
F	-1.709248	-0.116922	-1.708652
H	1.097394	0.0	0.0
C	0.10427	1.245258	-2.101606
N	0.425069	2.256678	-2.604643
C	0.366635	-1.199957	-2.151442
H	1.429756	-1.145674	-1.891479
H	-0.057892	-2.12679	-1.760331
H	0.227145	-1.165521	-3.233116
C	-0.466186	-1.213477	0.646447
N	-0.815613	-2.216061	1.153112
C	-0.511056	1.178373	0.672884
N	-0.872712	2.152132	1.225381
H	2.499308	0.0	0.0
