15

C	-0.331363	0.003551	-1.492088
C	0.0	0.0	0.0
F	-1.71424	-0.086259	-1.703568
H	1.097412	0.0	0.0
C	0.091839	1.286141	-2.085522
N	0.3748	2.294795	-2.614715
C	0.360883	-1.154248	-2.178454
H	1.426843	-1.102239	-1.929359
H	-0.057296	-2.08993	-1.801822
H	0.209329	-1.09768	-3.257776
C	-0.451186	-1.229872	0.624939
N	-0.759725	-2.249939	1.123405
C	-0.510832	1.164045	0.698618
N	-0.876575	2.127211	1.266521
H	2.498249	0.0	0.0
