15

C	-0.327568	-0.026673	-1.492523
C	0.0	0.0	0.0
F	-1.70869	-0.118183	-1.707324
H	1.097426	0.0	0.0
C	0.102325	1.242813	-2.11111
N	0.402822	2.232788	-2.66669
C	0.365113	-1.197606	-2.154603
H	1.430954	-1.141214	-1.905355
H	-0.053252	-2.125726	-1.760362
H	0.214583	-1.162182	-3.235208
C	-0.451892	-1.216339	0.649404
N	-0.763976	-2.22418	1.169819
C	-0.510452	1.17812	0.674045
N	-0.870726	2.152672	1.225738
H	2.496591	0.0	0.0
