15

C	-0.353041	0.018237	-1.499225
C	0.0	0.0	0.0
F	0.056247	-1.199819	-2.027565
H	1.097285	0.0	0.0
C	-1.810215	0.113103	-1.730954
N	-2.96225	0.232168	-1.929523
C	0.402802	1.130931	-2.19781
H	0.040552	2.106604	-1.868907
H	0.266609	1.038059	-3.277027
H	1.456472	1.018988	-1.924191
C	-0.508416	-1.18404	0.666976
N	-0.874044	-2.158545	1.21463
C	-0.457604	1.214979	0.647675
N	-0.813494	2.222308	1.140576
H	2.533468	0.0	0.0
