15

C	-0.331527	-0.024359	-1.492684
C	0.0	0.0	0.0
F	-1.711394	-0.146893	-1.701327
H	1.097446	0.0	0.0
C	0.062567	1.259071	-2.103107
N	0.334953	2.267454	-2.638925
C	0.383928	-1.174904	-2.163676
H	0.216954	-1.141568	-3.242255
H	-0.005005	-2.114256	-1.766542
H	1.450133	-1.093777	-1.926105
C	-0.448697	-1.220797	0.64439
N	-0.762086	-2.231905	1.157486
C	-0.513923	1.172928	0.680749
N	-0.876475	2.141623	1.24146
H	2.499876	0.0	0.0
