15

C	-0.353955	0.016887	-1.498955
C	0.0	0.0	0.0
F	0.055054	-1.201181	-2.026572
H	1.097359	0.0	0.0
C	-1.811665	0.110938	-1.729345
N	-2.964273	0.227217	-1.925897
C	0.400607	1.129651	-2.198658
H	0.038438	2.105374	-1.869602
H	0.262876	1.036478	-3.27755
H	1.454622	1.018386	-1.926829
C	-0.508152	-1.183479	0.668154
N	-0.873738	-2.15692	1.21771
C	-0.457139	1.215551	0.64669
N	-0.813039	2.223532	1.138252
H	2.533172	0.0	0.0
