15

C	-0.327976	-0.036887	-1.494297
C	0.0	0.0	0.0
F	-1.710231	-0.130044	-1.705688
H	1.097449	0.0	0.0
C	0.10085	1.224762	-2.131086
N	0.41234	2.214376	-2.682038
C	0.364472	-1.215459	-2.145097
H	0.222612	-1.185435	-3.22604
H	1.427595	-1.159655	-1.888407
H	-0.059337	-2.139645	-1.748618
C	-0.461598	-1.212062	0.651486
N	-0.790378	-2.217075	1.166832
C	-0.51057	1.182835	0.665664
N	-0.872231	2.160347	1.210869
H	2.49885	0.0	0.0
