15

C	-0.406258	0.017063	-1.479727
C	0.0	0.0	0.0
Cl	0.194649	-1.383415	-2.341681
H	1.090009	0.0	0.0
H	0.020002	0.916774	-1.922214
N	-1.907347	0.160403	-1.665543
O	-2.33667	1.285716	-1.399036
O	-2.580131	-0.789273	-2.034326
N	-0.555836	-1.25773	0.612669
O	0.2104	-2.152542	0.943515
O	-1.78196	-1.274911	0.740997
N	-0.426489	1.105665	0.791447
H	-1.284504	1.532466	0.474056
H	0.324776	1.777387	0.86416
Br	3.430626	0.0	0.0
