15

C	-0.420991	0.003195	-1.476588
C	0.0	0.0	0.0
Cl	0.243779	-1.357202	-2.352938
H	1.089985	0.0	0.0
H	-0.053307	0.927475	-1.918822
N	-1.929647	0.061737	-1.641882
O	-2.419024	1.158209	-1.361885
O	-2.551632	-0.92245	-2.007053
N	-0.529194	-1.269124	0.617835
O	-1.751485	-1.298409	0.783624
O	0.253153	-2.160544	0.918534
N	-0.441838	1.099331	0.789341
H	0.287142	1.795287	0.841934
H	-1.319571	1.492533	0.487762
Br	3.439105	0.0	0.0
