15

C	-0.476803	-0.013651	-1.445645
C	0.0	0.0	0.0
Cl	-2.247143	-0.120768	-1.557836
H	1.091241	0.0	0.0
H	-0.042009	-0.839179	-1.998065
N	-0.021398	1.244047	-2.137743
O	0.906758	1.108307	-2.927984
O	-0.589079	2.295099	-1.85332
N	-0.398747	-1.378664	0.544316
O	-0.958738	-1.44834	1.627883
O	-0.099277	-2.335571	-0.168144
N	-0.470654	1.040717	0.821872
H	0.260639	1.709666	0.999622
H	-1.308133	1.489413	0.49108
Br	3.374888	0.0	0.0
