15

C	-0.621675	0.036532	-1.378602
C	0.0	0.0	0.0
Cl	-0.093407	1.490491	-2.240788
H	1.094519	0.0	0.0
H	-1.707689	0.049992	-1.322886
N	-0.261329	-1.149206	-2.235162
O	-1.033476	-1.372729	-3.16409
O	0.754507	-1.77052	-1.961567
N	-0.485533	-1.223666	0.716521
O	-0.135543	-1.336439	1.886215
O	-1.215219	-2.013644	0.11556
N	-0.523254	1.125373	0.779909
H	-0.161385	0.98518	1.719306
H	-0.044614	1.951646	0.434493
Br	3.439677	0.0	0.0
