15

C	-0.476016	-0.022436	-1.445744
C	0.0	0.0	0.0
Cl	-2.244532	-0.149265	-1.557226
H	1.091256	0.0	0.0
H	-0.033368	-0.848543	-1.990743
N	-0.0243	1.23514	-2.137944
O	0.949094	1.110256	-2.873732
O	-0.635457	2.275135	-1.907158
N	-0.407312	-1.376035	0.547833
O	-0.084703	-2.337076	-0.149946
O	-0.997168	-1.439632	1.616962
N	-0.472526	1.045618	0.811031
H	0.261699	1.706177	1.008992
H	-1.308079	1.497808	0.47728
Br	3.35827	0.0	0.0
