15

C	-0.461641	0.025595	-1.449208
C	0.0	0.0	0.0
Cl	-0.222096	-1.413013	-2.435808
H	1.091885	0.0	0.0
H	0.067088	0.848228	-1.924383
N	-1.922115	0.387584	-1.526483
O	-2.25382	1.19132	-2.391655
O	-2.673793	-0.165897	-0.727935
N	-0.445671	-1.228724	0.768498
O	-0.037554	-2.31283	0.368785
O	-1.15205	-1.058744	1.761837
N	-0.438516	1.221755	0.599031
H	-1.310823	1.077834	1.09175
H	0.265901	1.530979	1.255871
Br	3.382167	0.0	0.0
