20

C	0.0	0.0	0.0
C	-0.470246	0.001741	-1.456762
F	1.404254	0.0	0.0
H	-1.567033	0.04433	-1.375814
N	-0.491413	1.197128	0.63178
H	-0.320116	1.117366	1.631137
H	-1.517581	1.120465	0.517004
C	-0.416295	-1.259251	0.743884
H	-0.099751	-1.173558	1.789277
H	-1.509898	-1.313451	0.698307
H	0.042434	-2.156319	0.321144
C	-0.071628	-1.271081	-2.198994
H	1.002661	-1.461197	-2.105063
H	-0.304333	-1.170812	-3.26427
H	-0.61533	-2.142516	-1.828139
C	0.048754	1.232804	-2.194871
H	-0.212707	2.142267	-1.656694
H	-0.383801	1.279159	-3.199801
H	1.138348	1.19637	-2.291846
H	-3.231705	0.0	0.0
