20

C	0.0	0.0	0.0
C	-0.412971	0.026735	-1.473961
F	1.42796	0.0	0.0
H	0.213028	0.818828	-1.91367
N	-0.445034	1.185929	0.648955
H	-0.140154	2.004533	0.137948
H	-0.085494	1.228163	1.59394
C	-0.460305	-1.210479	0.779482
H	-0.027341	-2.123483	0.369839
H	-1.550863	-1.264538	0.759432
H	-0.132031	-1.117271	1.819318
C	-1.883457	0.390082	-1.671418
H	-2.076844	1.433263	-1.416279
H	-2.163161	0.240393	-2.720311
H	-2.596205	-0.16741	-1.048839
C	-0.051406	-1.278057	-2.1786
H	0.974863	-1.582114	-1.957382
H	-0.731581	-2.080534	-1.884566
H	-0.146113	-1.150388	-3.261045
H	-4.710857	0.0	0.0
