20

C	0.0	0.0	0.0
C	-0.385618	0.00904	-1.485426
F	1.429165	0.0	0.0
H	0.312781	-0.70021	-1.95098
N	-0.477424	1.151797	0.676253
H	-0.023572	1.988101	0.337036
H	-0.34395	1.073948	1.675504
C	-0.449511	-1.24544	0.729016
H	-1.537478	-1.241715	0.822862
H	0.006671	-1.264641	1.723974
H	-0.12605	-2.137277	0.188382
C	-0.139122	1.383045	-2.10792
H	-0.224121	1.318619	-3.19612
H	0.860554	1.762456	-1.870887
H	-0.892913	2.094766	-1.76102
C	-1.819426	-0.455303	-1.732364
H	-2.57331	0.008165	-1.078656
H	-2.101576	-0.24638	-2.770286
H	-1.918561	-1.534004	-1.583797
H	-4.538964	0.0	0.0
