20

C	0.0	0.0	0.0
C	-0.253832	0.001593	-1.536339
F	1.399916	0.0	0.0
H	0.37968	-0.828683	-1.878959
N	-0.51182	1.192489	0.615454
H	-0.396944	1.101834	1.622029
H	-1.528734	1.152944	0.454507
C	-0.457286	-1.277055	0.674747
H	-0.074568	-1.296338	1.701898
H	-1.552335	-1.276886	0.694064
H	-0.083214	-2.160152	0.147317
C	0.306304	1.285648	-2.15285
H	-0.271235	2.14905	-1.818822
H	0.246189	1.228889	-3.24541
H	1.34786	1.442695	-1.868846
C	-1.661819	-0.253656	-2.053784
H	-2.353956	0.546557	-1.798701
H	-1.608487	-0.363923	-3.146089
H	-2.121761	-1.142065	-1.624185
H	-3.618916	0.0	0.0
