20

C	0.0	0.0	0.0
C	-0.510957	-0.014318	-1.437799
F	1.429197	0.0	0.0
H	-1.605471	-0.046692	-1.306428
N	-0.400563	1.217847	0.640559
H	-0.272702	1.14071	1.641425
H	0.170722	1.979542	0.297528
C	-0.504558	-1.170208	0.808676
H	-0.14128	-1.089733	1.839044
H	-1.60245	-1.117047	0.789632
H	-0.153983	-2.117674	0.399688
C	-0.029991	-1.235718	-2.215533
H	-0.41557	-2.163873	-1.789909
H	1.062951	-1.289119	-2.231969
H	-0.385739	-1.18465	-3.249069
C	-0.147349	1.268386	-2.180772
H	0.933671	1.447319	-2.16778
H	-0.66307	2.125424	-1.743453
H	-0.463761	1.198533	-3.225779
H	-3.642143	0.0	0.0
