19

C	0.0	0.0	0.0
C	-0.590488	-0.001901	-1.392506
F	1.371175	0.0	0.0
H	-1.608744	-0.376844	-1.204876
C	-0.5619	1.02341	0.941278
H	-1.657193	0.875377	0.87295
H	-0.162331	0.850649	1.94
H	-0.271945	2.022598	0.607059
N	-0.28245	-1.390365	0.636268
O	0.250492	-1.574117	1.732649
O	-0.949203	-2.222323	0.040756
N	0.198734	-0.895351	-2.247657
H	-0.432505	-1.370434	-2.880773
H	0.849316	-0.351612	-2.801479
C	-0.764318	1.409912	-1.939721
H	-1.56099	1.896243	-1.379556
H	0.154385	2.005326	-1.894054
H	-1.077061	1.345482	-2.987781
F	-2.96892	0.0	0.0
