19

C	0.0	0.0	0.0
C	-0.521909	-0.136374	-1.441556
F	1.369437	0.0	0.0
H	-1.510814	-0.582062	-1.313428
C	-0.513438	1.161019	0.796795
H	-1.611648	1.040084	0.764982
H	-0.186705	2.084454	0.314983
H	-0.110686	1.120242	1.808115
N	-0.331979	-1.297346	0.765831
O	-0.366102	-1.245729	1.990905
O	-0.439784	-2.338163	0.12075
N	0.336469	-0.949382	-2.30701
H	1.284355	-0.593485	-2.244789
H	0.350086	-1.88588	-1.922706
C	-0.746736	1.22782	-2.075266
H	0.149036	1.862052	-2.047616
H	-1.016014	1.066584	-3.120948
H	-1.574174	1.712515	-1.559813
F	-2.834098	0.0	0.0
