19

C	0.0	0.0	0.0
C	-0.511049	0.049111	-1.482104
F	1.377471	0.0	0.0
H	0.415778	0.21643	-2.048095
C	-0.538134	1.066998	0.903382
H	-0.24209	2.045433	0.519149
H	-1.629819	0.939061	0.886897
H	-0.133191	0.943452	1.909427
N	-0.276191	-1.365003	0.666081
O	-1.079933	-1.433877	1.587476
O	0.39266	-2.310345	0.246224
N	-1.45648	1.115234	-1.771586
H	-1.082495	2.004534	-1.460838
H	-2.279483	0.872721	-1.172381
C	-1.177064	-1.243812	-1.950124
H	-1.477936	-1.092982	-2.988923
H	-0.524522	-2.113194	-1.882519
H	-2.074347	-1.362339	-1.335798
F	-3.0571	0.0	0.0
