15

C	-0.538091	-0.055308	-1.447161
C	0.0	0.0	0.0
Cl	-0.073493	1.490884	-2.234491
H	1.099947	0.0	0.0
C	0.022583	-1.135109	-2.264294
N	0.425797	-1.943824	-3.015079
C	-2.002779	-0.141312	-1.443998
N	-3.174697	-0.221075	-1.432122
N	-0.435385	-1.241838	0.723197
O	-0.468914	-1.197105	1.949928
O	-0.687264	-2.236352	0.048393
N	-0.527908	1.158641	0.681781
H	0.218303	1.847497	0.706183
H	-0.704592	0.88855	1.642833
Cl	3.171073	0.0	0.0
