15

C	-0.470381	0.035894	-1.483559
C	0.0	0.0	0.0
Cl	0.037636	-1.437839	-2.357791
H	1.090467	0.0	0.0
C	-1.928385	0.175313	-1.603712
N	-3.085464	0.352086	-1.710736
C	0.132891	1.210724	-2.120925
N	0.583275	2.155168	-2.655068
N	-0.544559	-1.268661	0.602082
O	0.229366	-2.185422	0.845293
O	-1.759733	-1.274132	0.811528
N	-0.452843	1.099406	0.770463
H	0.232028	1.839406	0.785912
H	-1.388975	1.420704	0.574212
Cl	3.229892	0.0	0.0
