13
Coordinates from ORCA-job run
  C   0.46328418808798     -0.64251471740151      0.43005162483040
  C   -0.22234163681106      0.47885849900442     -0.40206967689720
  Cl  -0.35073495140190     -0.78664374662214      2.01690688499696
  H   0.31636161955976      0.51459340989459     -1.35591325686382
  C   1.87435093879237     -0.31658019398148      0.64236910856605
  N   3.00605089728923     -0.03118878243906      0.78267536652371
  C   0.34316748430515     -1.90848890333476     -0.29454005271793
  N   0.28418404325983     -2.92060832750764     -0.88829732411023
  C   -0.03572248172358      1.77506632283788      0.27616545107296
  N   0.04485499945750      2.82477617420202      0.79813506039498
  N   -1.59088284962478      0.10646803683893     -0.66281935007205
  H   -2.18550012034660      0.31177274092279      0.13017855663920
  H   -1.94707213084391      0.59448948758596     -1.47384239236303
