13
Coordinates from ORCA-job run
  C   0.40995675287773     -0.65211182566253      0.46796414711331
  C   -0.17241345666158      0.48978400953978     -0.41327604981744
  Cl  -0.61870052832388     -0.86823460323556      1.91629932582410
  H   0.49411313049415      0.56754817611205     -1.27976821431280
  C   1.76934589405980     -0.31357151204180      0.89219061164362
  N   2.86232384558336     -0.01534481269705      1.20562712328223
  C   0.41959846041614     -1.89142842651140     -0.31053954172459
  N   0.46626901288048     -2.88014568062404     -0.94350150835071
  C   -0.10682314333768      1.76261850146272      0.32866674252718
  N   -0.11953764791709      2.79379729630339      0.89209952983881
  N   -1.48361138793269      0.10856121840488     -0.87708015757576
  H   -2.18657583228356      0.27427152746987     -0.16789843567091
  H   -1.73294509985518      0.62425613147969     -1.71078357277704
