13
Coordinates from ORCA-job run
  C   0.72583271453257     -0.64297089095736     -0.13590859011246
  C   -0.39844763760945      0.35848775200258     -0.53319666742538
  Cl  2.03542171423082     -0.58695356446785     -1.34873959398656
  H   -0.77498109763546      0.02307041027591     -1.50460462586343
  C   0.15941718790441     -1.99173234902100     -0.09572914581247
  N   -0.28812815890239     -3.07794317367987     -0.10056353401771
  C   1.25173178797374     -0.27280060223519      1.17876368296690
  N   1.63203173892264      0.06884242045851      2.23714770191334
  C   0.16987753714951      1.70859161816606     -0.68959760490658
  N   0.56080949017817      2.81418942391689     -0.76471301067315
  N   -1.44950117673834      0.25568427776982      0.45184157724023
  H   -2.35047166881052      0.48810236068065      0.05637593870556
  H   -1.27459243119569      0.85443231709092      1.24992387197171
