13
Coordinates from ORCA-job run
  C   0.44456743593090     -0.59196120893393      0.41136362793929
  C   -0.21889041218979      0.59471040227168     -0.39528129331088
  Cl  -0.36093991309990     -0.75905797895370      1.99643921371072
  H   0.34854866359033      0.65982591023071     -1.33174083184371
  C   1.86922765415383     -0.33477319282042      0.60520325014962
  N   3.01354411796768     -0.09081001688365      0.72216417049963
  C   0.24422247956237     -1.81609552564576     -0.36345743377121
  N   0.03753374937993     -2.75409541013946     -1.04118836750764
  C   0.00112123824283      1.83490340869131      0.35785981732991
  N   0.16869525366695      2.82279165749227      0.96954537279298
  N   -1.60646687271912      0.43556820229150     -0.71047167252392
  H   -2.17865329464919      0.34068132779773      0.11843028508404
  H   -1.76451009983681     -0.34168757539826     -1.33886613854882
