18

C	0.0	0.0	0.0
C	-0.244825	-0.15999	-1.542728
F	1.390106	0.0	0.0
H	0.25632	-1.096205	-1.797886
C	-0.564426	1.211921	0.688125
H	-0.22907	1.206486	1.729922
H	-1.661197	1.071939	0.611387
H	-0.216162	2.117096	0.192422
C	-0.450122	-1.232669	0.661732
N	-0.639766	-2.240428	1.233847
N	0.630435	0.858494	-2.229275
O	1.587406	0.445052	-2.885209
O	0.315664	2.04448	-2.13422
C	-1.612401	-0.08261	-2.181195
H	-2.318416	-0.714598	-1.637555
H	-2.027522	0.91627	-2.065829
H	-1.499688	-0.336101	-3.24511
F	-2.927682	0.0	0.0
