18

C	0.0	0.0	0.0
C	-0.248148	-0.212036	-1.536806
F	1.390215	0.0	0.0
H	0.146715	-1.206704	-1.753092
C	-0.598774	1.23045	0.620079
H	-1.692938	1.068436	0.541537
H	-0.270035	2.11503	0.075685
H	-0.281702	1.296512	1.66508
C	-0.441667	-1.217681	0.701459
N	-0.653449	-2.217777	1.278715
N	0.7341	0.680279	-2.263425
O	1.610829	0.133923	-2.933557
O	0.579509	1.897807	-2.184104
C	-1.610678	-0.011172	-2.149414
H	-1.61045	-0.457356	-3.149354
H	-2.388218	-0.387375	-1.454632
H	-1.822471	1.055982	-2.224016
F	-3.070379	0.0	0.0
