12
Coordinates from ORCA-job run
  C   -0.10414042034608      0.86363339381287      0.72705739131157
  C   0.24752744882134     -0.57832886216525      0.33427852818917
  F   0.94921224393864      1.34346732849074      1.47102727284536
  H   0.35868774163488     -1.16718365235429      1.25079516358124
  H   -1.00165656955152      0.86799154949756      1.34563481835951
  C   -0.31058257992519      1.70371534803330     -0.45734561736207
  N   -0.48457854816766      2.38172985650536     -1.40000397622031
  C   1.46656520890007     -0.64567325940840     -0.45714926678466
  N   2.46398175029697     -0.67100697283687     -1.07611254052937
  N   -0.91336907862805     -1.20819076200195     -0.41735061628038
  O   -0.64701425296566     -2.07303404489535     -1.23694060100715
  O   -2.02663294400775     -0.81811992267770     -0.08289055610292
