12
Coordinates from ORCA-job run
  C   -0.09351521987086      0.84847900397177      0.75082455132620
  C   0.23973783036422     -0.58697908113416      0.31940154421102
  F   0.96787545043108      1.29479908979136      1.50434108389176
  H   0.35279742710411     -1.20179292870567      1.21847381477460
  H   -0.98942037384308      0.84942350616481      1.37169394285759
  C   -0.28965213764227      1.71909100865200     -0.41310172163320
  N   -0.44855382621988      2.41322891133530     -1.34640137069622
  C   1.45242424620142     -0.64526462335243     -0.48303954566854
  N   2.44569540320603     -0.65925628686862     -1.10913369189939
  N   -0.92902225355692     -1.18984450924703     -0.44171310581475
  O   -2.03505205250949     -0.75083360232262     -0.14565985701548
  O   -0.67531449366436     -2.09005048828470     -1.22668564433361
