12
Coordinates from ORCA-job run
  C   0.29708352524093      1.01085459277427      0.03908074281665
  C   0.21784011177958     -0.48808990822544      0.36096862518239
  F   0.62964439558868      1.16430327523332     -1.28215817480796
  H   -0.13075573612761     -0.62846568663584      1.38720263313797
  H   1.09031952634797      1.45343324942969      0.65001172562025
  C   -0.96900648625024      1.69807530120129      0.32184273269102
  N   -1.95605775437063      2.27771424421538      0.58156596365179
  C   1.51232264531989     -1.12185871021702      0.15175279105938
  N   2.57918793039739     -1.59148642720459      0.01243336947877
  N   -0.83341280406055     -1.12180468083729     -0.53093554936960
  O   -1.98273286386036     -1.02626209288543     -0.11561469643961
  O   -0.45443249000506     -1.62641315684835     -1.57815016302105
