12
Coordinates from ORCA-job run
  C   0.24060123387279      1.02214089773673      0.09271496742523
  C   0.18514156370969     -0.49456016649405      0.30298350086038
  F   0.56253140642626      1.27037040670307     -1.21750254369105
  H   -0.24095999550674     -0.72388593390946      1.28578934361316
  H   1.04492594043078      1.41968958549041      0.72073963602564
  C   -1.00752122194952      1.69983475888602      0.46361109497851
  N   -1.95133780531981      2.28894379067312      0.83671773051392
  C   1.51629888009237     -1.07569686028757      0.18100109941882
  N   2.61475546187796     -1.48590421845248      0.12206575891022
  N   -0.75524267511798     -1.14758684835464     -0.70562369964111
  O   -1.75208784471823     -0.50392554757518     -0.99799176714181
  O   -0.45510494379757     -2.26941986441598     -1.08550512127192
