12
Coordinates from ORCA-job run
  C   0.27297718750141      1.00160256881249      0.18599259973057
  C   0.19448546782460     -0.52595196905709      0.31907947500807
  F   0.71972446028374      1.31558488678906     -1.07157267595235
  H   -0.24277897765449     -0.79155831755322      1.28475619179367
  H   0.99888495159940      1.37547044212617      0.91506124745084
  C   -1.02729950578030      1.63807906532706      0.43041688363479
  N   -2.04477722428134      2.17578219427449      0.66139178830210
  C   1.51423419066465     -1.11972187034119      0.15578523285278
  N   2.59721971184936     -1.56438371660721      0.06873850453131
  N   -0.75958870251256     -1.05594325039157     -0.73513449429509
  O   -0.27812467292065     -1.42219487425369     -1.79766294924891
  O   -1.94295688657381     -1.02576515912531     -0.41685180380776
