12
Coordinates from ORCA-job run
  C   -0.47089681986560      0.86654682422811      0.26452102442577
  C   0.31283978839288     -0.43902368748128      0.12177986017176
  F   -1.16052037388308      0.80616774156635      1.45251521973604
  H   0.96966617507993     -0.58663240097962      0.98122743858519
  H   -1.19089742995604      0.95295362740577     -0.55266464832895
  C   0.44900554882990      2.00804109795152      0.27297501883158
  N   1.19277427032481      2.91631966279728      0.28086469422506
  C   1.04717757081466     -0.48326097579367     -1.13460168675516
  N   1.63454972541978     -0.49943061130172     -2.15159345632859
  N   -0.68990640437937     -1.57851917681687      0.15020019857885
  O   -1.61862717782783     -1.49352157044682     -0.64265187218628
  O   -0.47416487295005     -2.47064053112905      0.95842820904473
