12
Coordinates from ORCA-job run
  C   -0.37357810266266      0.94400452102569      0.11249219826639
  C   0.19699436495808     -0.47168686661612      0.21008046545806
  F   -1.33310444557349      1.07099282038734      1.08894268698731
  H   0.59085897914813     -0.65731141103031      1.21124679011905
  H   -0.84768582959146      1.08162564656496     -0.86224436920979
  C   0.69063398347096      1.93102398873776      0.31911070557107
  N   1.54834063004763      2.71510644816957      0.48571487734887
  C   1.19925252454652     -0.71186341459461     -0.81839891228317
  N   2.00652217713986     -0.88548246570900     -1.65367090057241
  N   -0.95391619002498     -1.44247727845829      0.01640972152703
  O   -1.09134842017918     -2.29928705277035      0.87825458641308
  O   -1.63296967127941     -1.27364493570665     -0.98793784962550
