12
Coordinates from ORCA-job run
  C   -0.39392279540761      0.90863681803261      0.25078940086731
  C   0.20503164038400     -0.49408325980645      0.13803364061919
  F   -1.36157311186420      0.86784442274534      1.22667082095071
  H   0.59600729359672     -0.82209779644867      1.10311986466137
  H   -0.86505272407049      1.18244668906723     -0.69624400903256
  C   0.64841692416542      1.87346377839063      0.61376982985449
  N   1.48858633695216      2.63936718941021      0.90661824318844
  C   1.21895971797661     -0.55575479562913     -0.90517731060444
  N   2.03629881188831     -0.58553592489784     -1.74814547555138
  N   -0.92392430860236     -1.44668770451090     -0.21178731590275
  O   -1.04855924400368     -2.42738983755280      0.50823635953775
  O   -1.60026854101488     -1.14020957880023     -1.18488404858814
