12
Coordinates from ORCA-job run
  C   -0.44683958791022      0.87955142875728      0.26672611642099
  C   0.29856982689044     -0.44827290059730      0.12133550523860
  F   -1.13878407652375      0.83752710515092      1.45387412096582
  H   0.94968824965961     -0.61723707228118      0.98127203678960
  H   -1.16315195737221      0.98862775677273     -0.55094659260927
  C   0.50761809798511      1.99228135374471      0.27759447674753
  N   1.28108700281629      2.87530506861846      0.28649218004901
  C   1.03381065840648     -0.50883772861964     -1.13384800184719
  N   1.62300633975900     -0.53643542821252     -2.14961903531557
  N   -0.73613265987398     -1.55853802391288      0.14450055441413
  O   -1.65978637970609     -1.44542966205410     -0.65077478543676
  O   -0.54908551413068     -2.45754189736648      0.95239342458311
