12
Coordinates from ORCA-job run
  C   -0.38219103547577      0.94691776929069     -0.01496591069482
  C   0.15909042234571     -0.45541055594690      0.26903671498505
  F   -1.48941811382849      1.13134698689878      0.77843945723487
  H   0.38513114931979     -0.56994523465412      1.33096581302910
  H   -0.68702102971685      1.01735355013795     -1.06166715302781
  C   0.63753783804325      1.95178360149741      0.30129286206714
  N   1.45864070498375      2.74814219679062      0.56571580822926
  C   1.31240156408949     -0.75647507285430     -0.56704264015659
  N   2.24120715274067     -0.97662419472509     -1.25138809410094
  N   -0.95003537208207     -1.44453815141601     -0.04129636766002
  O   -1.22837266310971     -2.24198216617620      0.84311773689195
  O   -1.45697061730978     -1.34856872884284     -1.15120822679719
