12
Coordinates from ORCA-job run
  C   -0.11479695230467      0.97501688400776      0.54294214346542
  C   0.15401022698509     -0.53620411657852      0.47088486981996
  F   0.84100477609542      1.52703543934228      1.36015775039418
  H   0.06645632555560     -0.94715381571818      1.48008139893260
  H   -1.09778537469743      1.13907899279564      0.98901599412677
  C   -0.05706928887606      1.58312288469694     -0.79076843207394
  N   -0.02956038601131      2.06017392227092     -1.86322219970296
  C   1.45562008232658     -0.83762848362006     -0.10250985333288
  N   2.52504277309210     -1.06100676332507     -0.53290314374913
  N   -0.96957044914664     -1.16174030993589     -0.33436711167754
  O   -2.07989743766330     -1.02192415072566      0.16765340520661
  O   -0.69345429535537     -1.71777048321016     -1.38696482140908
