12
Coordinates from ORCA-job run
  C   -0.34830730231674      0.95546526816736      0.09321334618163
  C   0.17197316585959     -0.47718331788055      0.21915788378536
  F   -1.34966888542175      1.11422130665348      1.02162547009679
  H   0.51090461579935     -0.67273176937097      1.23843159025584
  H   -0.76977963096541      1.10605029350905     -0.90347209593920
  C   0.73473117849231      1.90930099369866      0.35093946676667
  N   1.60674155247393      2.66713546847896      0.55955369013933
  C   1.21464875750423     -0.75209727054561     -0.75921560280489
  N   2.05663537688022     -0.95406313373200     -1.55283815034693
  N   -0.99923793852526     -1.41126453698825     -0.02854289199054
  O   -1.62354595567638     -1.22288459669545     -1.06444779777457
  O   -1.20509493410408     -2.26094870529469      0.82659509163051
