12
Coordinates from ORCA-job run
  C   -0.14893033647801      0.90398374054585      0.63806306131579
  C   0.19603458379233     -0.57125562807543      0.37591873715214
  F   0.75550186378803      1.35251958474479      1.57536056031450
  H   0.29961736223423     -1.07346392648194      1.33964417072516
  H   -1.15225103227859      0.96528974218746      1.07063316942843
  C   -0.06605035726224      1.74740683616223     -0.55663764911351
  N   0.02236411838381      2.46549468937217     -1.48114897279616
  C   1.40789407531476     -0.72687551891610     -0.41670261519475
  N   2.38866998995128     -0.84516705879565     -1.05192127239659
  N   -0.95775852488873     -1.24636419818925     -0.32932058333598
  O   -1.40746514509369     -0.66376874747514     -1.30964470620501
  O   -1.33862659746320     -2.30879951507898      0.14575610010598
