12
Coordinates from ORCA-job run
  C   0.32936235896345      1.02939311987323      0.22245875577169
  C   0.15763842102725     -0.48850629176701      0.37014094239641
  F   1.12502631722102      1.33765086534720     -0.84428276142641
  H   -0.30848100847407     -0.71199148062821      1.33302216252590
  H   0.82368751047231      1.39305826677730      1.12970255008293
  C   -0.98212161100517      1.67820692210356      0.09480846820456
  N   -2.03903981812303      2.18520911676537      0.03337800835031
  C   1.44150470951818     -1.16860640949056      0.25327084821488
  N   2.48149359127067     -1.70861439739065      0.18048753344112
  N   -0.78793222861503     -1.04501593199064     -0.67757551867308
  O   -0.64158447004826     -0.62980464318437     -1.81887373157138
  O   -1.59955377220732     -1.86997913641521     -0.27653725731693
