12
Coordinates from ORCA-job run
  C   -0.05578580335991      0.87266081062485      0.70247324846313
  C   0.24649849490151     -0.59210001707069      0.34917077762011
  F   1.00277049075571      1.34872712863489      1.43636543723611
  H   0.33971445931007     -1.15567521723873      1.28125370060253
  H   -0.95688315567867      0.90970395636621      1.31795868063898
  C   -0.23803092928578      1.67856498715942     -0.50968148683020
  N   -0.40234060086717      2.31381018919806     -1.48331896172853
  C   1.44553952455889     -0.72644145770541     -0.46211200165249
  N   2.43650562054050     -0.81821997062959     -1.08527841707112
  N   -0.97288824435362     -1.15178764997433     -0.35870551410128
  O   -1.98971193628692     -1.15406770106108      0.32723855647062
  O   -0.85538792023461     -1.52517505830361     -1.51636401964784
