12
Coordinates from ORCA-job run
  C   -0.06320158989966      0.87541134743061      0.72112065957338
  C   0.24501621076191     -0.57834906032329      0.33385809834983
  F   1.02190854413831      1.34114421286296      1.42667152414069
  H   0.36939017704362     -1.16157799704102      1.25222296558144
  H   -0.94118897341496      0.90611301027570      1.36643965785173
  C   -0.28911278717708      1.70249566237404     -0.46900846057628
  N   -0.48244743460804      2.35772101070174     -1.42358063612922
  C   1.43931588008683     -0.68010233452965     -0.49118930549612
  N   2.42230062449409     -0.73208438445709     -1.13138180430246
  N   -0.95056278146445     -1.18876959869722     -0.37799720979646
  O   -2.04525783150981     -0.77344447075978     -0.01334361428193
  O   -0.72716003845076     -2.06855739783701     -1.19481187491459
