12
Coordinates from ORCA-job run
  C   -0.37040642962848      0.89012514818463      0.33676412588803
  C   0.25871561379239     -0.48125638479497      0.08561258160642
  F   -1.07299060947575      0.81278730027059      1.51597295691498
  H   0.88580833643772     -0.77465398479642      0.92975920252473
  H   -1.06821567173786      1.12584984311409     -0.47024352960986
  C   0.67484240921690      1.91311404974401      0.43828924040480
  N   1.51767858446010      2.72617769240909      0.52059655952110
  C   0.99578911089566     -0.50488224261234     -1.16978327946382
  N   1.58747864213595     -0.50379944889068     -2.18440441227484
  N   -0.86925395916574     -1.49521002488831      0.01734191112256
  O   -0.76585760279668     -2.47097647114993      0.74722080326240
  O   -1.77358842413422     -1.23727547658978     -0.76612615989651
