12
Coordinates from ORCA-job run
  C   0.24376712315782      0.95521167959837      0.37491338566841
  C   0.11690231070053     -0.57167118434794      0.27606430127505
  F   0.94875741173883      1.41365104458964     -0.70778290612670
  H   -0.51299880544571     -0.94373013529560      1.08793967639241
  H   0.80589328985923      1.19702192096789      1.28256995870263
  C   -1.06907609258830      1.61004534717965      0.43242266511212
  N   -2.09928329157839      2.16654196135768      0.51439674662794
  C   1.43262221005028     -1.19541903644069      0.30221193694566
  N   2.49781259827750     -1.68243806368020      0.38150789195142
  N   -0.60816626281793     -0.91568531174471     -1.01152682011700
  O   -1.83109332678170     -0.87843534712804     -0.93673602415090
  O   0.07586283542784     -1.15609287505606     -1.99598081228105
