12
Coordinates from ORCA-job run
  C   -0.09497807780009      0.85081797231716      0.72786385121970
  C   0.24154688554822     -0.59762698677577      0.34020480836675
  F   0.92957279749634      1.31751719680919      1.51389048048695
  H   0.30565105381388     -1.19012095544219      1.25657571471591
  H   -1.01787130418661      0.85576006570462      1.31126521079423
  C   -0.24602791282598      1.69103344716405     -0.46514320566832
  N   -0.38364019204940      2.34820315303435     -1.42832031869850
  C   1.47332023822296     -0.69212610314574     -0.42648613593757
  N   2.48967068047743     -0.76051617056129     -1.01062101951223
  N   -0.94090203932603     -1.14993578899536     -0.43324322704550
  O   -0.77298000804894     -1.48308059146002     -1.59688493176492
  O   -1.98336212132178     -1.18892523864901      0.21189877304349
