12
Coordinates from ORCA-job run
  C   -0.42366886528029      0.92622365204345      0.08066173139080
  C   0.25501644601629     -0.43681964673048      0.22488080209192
  F   -1.25316864484546      1.09181196503626      1.16446027708811
  H   0.78252341320564     -0.50184715331300      1.17846132860533
  H   -1.03056300095702      0.93822024961325     -0.82780077642298
  C   0.58433479909128      1.99000975996691      0.04775774774837
  N   1.39817310316585      2.83574146582754      0.01850703835584
  C   1.13544690267785     -0.71292713621556     -0.90138370648750
  N   1.84257109717992     -0.91488592582568     -1.81716307683339
  N   -0.83831353962120     -1.48963438283076      0.26810670532963
  O   -1.64711784773756     -1.45883278957210     -0.65007924879372
  O   -0.80523386289529     -2.26706005799984      1.21159117792760
