12
Coordinates from ORCA-job run
  C   0.23160827497166      0.96079692081547      0.36893119214799
  C   0.15475094065242     -0.56892830507399      0.26260100970345
  F   0.84931754930313      1.45352793352722     -0.75135461189052
  H   -0.40927465306230     -0.97093458798132      1.10795153897127
  H   0.84081278946110      1.21651192548809      1.24173381188180
  C   -1.09820513058763      1.56553587551269      0.51540545997996
  N   -2.14125259573952      2.08209385150062      0.66694410658836
  C   1.49128795667722     -1.14399529229774      0.20049227495203
  N   2.57622899301001     -1.59234449383810      0.20822744003231
  N   -0.63615714280545     -0.92894650651373     -0.98106891893129
  O   -0.00646860267945     -1.13651860067253     -2.00838382512512
  O   -1.85264837920117     -0.93679872046667     -0.83047947831025
