12
Coordinates from ORCA-job run
  C   -0.35045741702686      0.95877191270715      0.03005735840654
  C   0.12020081059975     -0.48044773092566      0.24533496374631
  F   -1.51260047741216      1.12477443574404      0.74558414464960
  H   0.24804499274255     -0.68624750097512      1.30979513201142
  H   -0.56691349473297      1.11782190595093     -1.02901672759630
  C   0.67055125241030      1.89916934990915      0.50173583112291
  N   1.49161201215189      2.64564814664620      0.88496029999918
  C   1.33334748744316     -0.76122153926217     -0.50910684608004
  N   2.31417559027031     -0.96822464545374     -1.12118789178884
  N   -0.98807352168739     -1.39968338632486     -0.23682206542227
  O   -1.36743315282258     -2.25219014355471      0.55368213213246
  O   -1.39345408193601     -1.19817080446122     -1.37401633118098
