12
Coordinates from ORCA-job run
  C   -0.11557960161353      0.87145414820989      0.69639292422661
  C   0.25232946938193     -0.58247864138175      0.36128219474961
  F   0.89482879294871      1.38654482913499      1.47089888584362
  H   0.32533751949794     -1.14079595702570      1.29828737226759
  H   -1.04168082388099      0.87814120897000      1.27475434641428
  C   -0.27678994475967      1.66745237266303     -0.52525303180324
  N   -0.42412429913989      2.29376847334505     -1.50735804377423
  C   1.48872754031974     -0.67635063963314     -0.39790244668523
  N   2.50868323134436     -0.73436591914823     -0.97677029079517
  N   -0.91596626669971     -1.18546708683616     -0.39555131444437
  O   -0.73750969436473     -1.55407930493130     -1.54694157932518
  O   -1.95925592303414     -1.22482348336668      0.24816098332571
