12
Coordinates from ORCA-job run
  C   0.27436559932277      1.01788405563415      0.07334986103897
  C   0.20596937375387     -0.48636032520986      0.37329494336271
  F   0.69912595407898      1.19579899015366     -1.21784579066002
  H   -0.20394436888631     -0.64521189019194      1.37382596489255
  H   1.00992157879247      1.47071164075537      0.74580587532358
  C   -1.02587493575759      1.67206630474433      0.26556095850398
  N   -2.04794846548022      2.23046917731059      0.41159166499242
  C   1.52337570927611     -1.09313727372570      0.24213790681293
  N   2.60190873535468     -1.55383686958441      0.18991430879141
  N   -0.77264797801470     -1.13006440663677     -0.59072737322417
  O   -0.31810539573810     -1.59531810991237     -1.62617155982846
  O   -1.94614580670196     -1.08200129333704     -0.23973676000592
