12
Coordinates from ORCA-job run
  C   -0.34341510455152      0.86821982437186      0.41325542872089
  C   0.31095390522997     -0.45673755753423      0.01867541014142
  F   -0.70738180939147      0.77126171312930      1.73556145484901
  H   1.15786530568919     -0.67414995815355      0.67239039261250
  H   -1.24360216406832      1.02518760940950     -0.18575115126712
  C   0.60388944004635      1.97210993498095      0.23038900855767
  N   1.36890140807689      2.85027320561185      0.08268820749569
  C   0.69623070866110     -0.46110031317185     -1.38537763251394
  N   1.00226043889459     -0.44439849521507     -2.51923598207874
  N   -0.70698269631326     -1.55743054492265      0.25714428053686
  O   -0.33652083287776     -2.49894688368640      0.94415152030155
  O   -1.80219859939576     -1.39528853481974     -0.26489093735581
