12
Coordinates from ORCA-job run
  C   0.23646110486536      1.01601526541587      0.15704030516856
  C   0.20214350769218     -0.50741836572722      0.34366350307987
  F   0.71357979206407      1.29922309882256     -1.09663343325145
  H   -0.25112949904406     -0.75223039152797      1.30750740161072
  H   0.92631510040646      1.43867311281409      0.89443137806032
  C   -1.08996383861715      1.61901578091907      0.33670128204947
  N   -2.12748662538022      2.14115596865575      0.50604021957190
  C   1.54345027954154     -1.06435775844111      0.23631307080050
  N   2.63866895065956     -1.48578728700482      0.20411665455497
  N   -0.70695778678853     -1.10596720369003     -0.71352517154234
  O   -0.18646305591250     -1.49511609107962     -1.74907392910137
  O   -1.89861792948672     -1.10220612915656     -0.42658128100114
