12
Coordinates from ORCA-job run
  C   -0.31044974916516      0.87802006931717      0.41918033573155
  C   0.29411980521372     -0.46773478912456      0.01615817858839
  F   -0.67587680040182      0.78740336712835      1.74148448886991
  H   1.13327141102829     -0.72020016947942      0.66725175780016
  H   -1.20517510527531      1.07153499648719     -0.17734107632155
  C   0.67662198807949      1.94732767650111      0.24079346835617
  N   1.47291012104052      2.79777394336546      0.09625209477281
  C   0.67685509845882     -0.47807512157445     -1.38861167308402
  N   0.98013917927661     -0.46680326863270     -2.52325391652052
  N   -0.76334132794136     -1.53185418388839      0.24914762945053
  O   -1.85280077696515     -1.32597444837851     -0.26939457870326
  O   -0.42627384334864     -2.49141807172126      0.92833329105981
