12
Coordinates from ORCA-job run
  C   -0.04384402499919      0.84679365549582      0.73440465132783
  C   0.24470318213980     -0.60626770007229      0.32597538113358
  F   1.02388001697105      1.28852934497566      1.47668241180089
  H   0.34003190966410     -1.20445846503497      1.23598694076345
  H   -0.93986170251162      0.86847845259924      1.35800506926984
  C   -0.22915701472395      1.69715132396266     -0.44652209860013
  N   -0.39543593804963      2.36804087273179     -1.39558182541462
  C   1.43655312364646     -0.72004472052241     -0.49883914584296
  N   2.42207274324698     -0.79755554728654     -1.13250473447781
  N   -0.98445046169331     -1.12993157939686     -0.39302826220242
  O   -0.87843942507545     -1.46018798094850     -1.56482378987186
  O   -1.99605240861523     -1.15054765650360      0.30024540211421
