12
Coordinates from ORCA-job run
  C   -0.38645957992457      0.94171497633044      0.08947819021975
  C   0.21536267743623     -0.45813135564113      0.22068414889942
  F   -1.29910371976060      1.09588224063943      1.10605626552272
  H   0.65836963535053     -0.59231847436482      1.20944244891047
  H   -0.91028706965612      1.02752574703393     -0.86546670115011
  C   0.66737324381008      1.95503231674011      0.19940684465155
  N   1.51733753520289      2.75988321222101      0.28917476850509
  C   1.17383548222777     -0.72628392446546     -0.84203753246924
  N   1.94657272968480     -0.92369836123609     -1.70425118173087
  N   -0.92416000543575     -1.45666979728021      0.12373821216552
  O   -1.65210042676861     -1.34437781767762     -0.85382210843152
  O   -1.00474050216662     -2.27655876229959      1.02759664490723
