12
Coordinates from ORCA-job run
  C   -0.05332269768385      0.86405859766058      0.71391291077888
  C   0.23154303082332     -0.60030333692975      0.34523006646378
  F   1.00091356593172      1.31338532708067      1.47062332380664
  H   0.29871981254319     -1.17848158933558      1.27055709943227
  H   -0.96322137562825      0.90717527015222      1.31589149484129
  C   -0.20466279104525      1.68894454459541     -0.48968457138360
  N   -0.34659525841949      2.33933885363761     -1.45676324565886
  C   1.44249266024825     -0.74369443255663     -0.44655457235940
  N   2.44297066693300     -0.84667265663353     -1.05256088463515
  N   -0.98401612004572     -1.12974047764270     -0.39219908458255
  O   -0.85224973476022     -1.48690031445043     -1.55342395639426
  O   -2.01257175889670     -1.12610978557786      0.27597141969096
