12
Coordinates from ORCA-job run
  C   0.27688267334495      0.98876528558297      0.23736939066485
  C   0.14774698613328     -0.53870649817976      0.32407715154602
  F   0.85613949238068      1.31791117867197     -0.96065905447871
  H   -0.39156801462897     -0.81447433300211      1.23366413503438
  H   0.93420448582384      1.32657441803997      1.04490467288513
  C   -1.02499185066958      1.65518991324278      0.36618751148288
  N   -2.04210340205716      2.22426156423771      0.50522284185697
  C   1.46218611112977     -1.16416912635799      0.27956909613487
  N   2.53434208833512     -1.64223048723885      0.29321064522914
  N   -0.70686595608872     -1.01831367504536     -0.83478280905364
  O   -1.91541612138167     -0.95970555199482     -0.63856965692171
  O   -0.12855649232154     -1.37510268795652     -1.85119392438018
