12
Coordinates from ORCA-job run
  C   -0.39689963145585      0.93823001867729      0.07659074042575
  C   0.24601054175338     -0.44238994144210      0.21850386138624
  F   -1.20502701004430      1.13190121678368      1.17220640906806
  H   0.79235726176204     -0.51340226460996      1.16096842742966
  H   -1.01695126409222      0.96382703131763     -0.82257461572187
  C   0.64094321281379      1.97257553806694      0.02776078014561
  N   1.47876682727852      2.79431029536758     -0.00220054037403
  C   1.09502357030397     -0.75212268336831     -0.92302585440109
  N   1.78465105562006     -0.97938197725836     -1.84634918526318
  N   -0.87479632330634     -1.46308833476351      0.29614639345023
  O   -1.70206949973077     -1.41864627784565     -0.60493609842113
  O   -0.84300874090228     -2.23181262092524      1.24690968227576
