12
Coordinates from ORCA-job run
  C   0.26755653082187      0.94921505838530      0.37322964482612
  C   0.12156315937891     -0.57543895069104      0.26646282186082
  F   0.93334784003620      1.40995350200054     -0.73314554651508
  H   -0.47944992531890     -0.94883991700553      1.09934126938428
  H   0.86806367459325      1.17799975564969      1.25940657434860
  C   -1.03506707202070      1.61645069178148      0.48869988097054
  N   -2.05520722202688      2.18261529874257      0.61736435407747
  C   1.43123939305986     -1.21175807972629      0.23518355145795
  N   2.49380779984256     -1.70968482218891      0.26849259737614
  N   -0.65662158429512     -0.90033898141623     -0.99483910613022
  O   -0.01401894279680     -1.14110636879953     -2.00674886870013
  O   -1.87521365127425     -0.84906718673206     -0.87244717295648
