12
Coordinates from ORCA-job run
  C   -0.09687727948108      0.96868559393537      0.55709830984807
  C   0.16071256959924     -0.54339168593800      0.46142224963513
  F   0.87956055646074      1.50533807043943      1.36004958395945
  H   0.09338904608943     -0.96577395010800      1.46742829840738
  H   -1.06908089842759      1.13346462317031      1.02594013445590
  C   -0.06331242443757      1.59211683783045     -0.77037390851847
  N   -0.05437018732939      2.08204480311014     -1.83732497351257
  C   1.44733649710264     -0.84451304646367     -0.14491059298143
  N   2.50511718052182     -1.06669654612921     -0.60386308464999
  N   -0.98426625548338     -1.15216849308875     -0.32621104933194
  O   -2.08250241195466     -1.00894279109764      0.20076826591436
  O   -0.73470639266018     -1.70116341566043     -1.38902323322590
