12
Coordinates from ORCA-job run
  C   0.22392428099356      0.98753026781821      0.29466123666486
  C   0.16708480756715     -0.54668615480812      0.30037139897060
  F   0.81636913969116      1.40550501011059     -0.86900657212743
  H   -0.37675124170818     -0.89388440444348      1.18241942356370
  H   0.84392464922882      1.31363952659870      1.13581209540364
  C   -1.11135908838280      1.58475791012986      0.42007694364169
  N   -2.15826141753486      2.09853008234013      0.55356308481674
  C   1.51067368507752     -1.10656378097927      0.25472251414683
  N   2.60286213285693     -1.53674143842128      0.27211869618529
  N   -0.63996815197088     -1.00638156721118     -0.89969691727438
  O   -0.02501890664876     -1.28210796570054     -1.91985629111553
  O   -1.85347988916966     -1.01759748543361     -0.72718561287600
