12
Coordinates from ORCA-job run
  C   -0.09893303324243      0.92294252171968      0.62033887753479
  C   0.21263544752897     -0.56321874377240      0.37879259575687
  F   0.86705237939559      1.38537242871756      1.48680137304917
  H   0.36991075889456     -1.04050122650345      1.34789570680555
  H   -1.07254351538916      1.00883450194873      1.11249395935344
  C   -0.08115159263343      1.73234527480398     -0.60032579550759
  N   -0.04086227765700      2.42427008047094     -1.54784022820600
  C   1.37105871212861     -0.75621910428223     -0.48248576917271
  N   2.30928775575219     -0.90612115489969     -1.17292749073988
  N   -0.99043718315999     -1.24180657590424     -0.23501030384511
  O   -1.49029345055764     -0.68193522529846     -1.20422104737571
  O   -1.35672400106026     -2.28296277700041      0.29548812234718
