12
Coordinates from ORCA-job run
  C   -0.06240543167416      0.97380331615104      0.55364050550973
  C   0.14172419659277     -0.54653140288778      0.46181352624938
  F   0.93422927353177      1.47798300442929      1.35270073059503
  H   0.06025197669689     -0.96321474888182      1.46921148737347
  H   -1.02707765395502      1.17376240757278      1.02436201181379
  C   -0.01041580363115      1.59202187413850     -0.77574589764386
  N   0.01513076765578      2.07758991169735     -1.84443510233337
  C   1.41719280812608     -0.89580699516844     -0.14253306478885
  N   2.46830876506086     -1.16064823170532     -0.59391360284744
  N   -1.02405208402765     -1.11712212807388     -0.32341915800215
  O   -2.11639467623607     -0.93662100082561      0.20446189250668
  O   -0.79449213814007     -1.67321600644611     -1.38714332843242
