12
Coordinates from ORCA-job run
  C   -0.05685080424224      0.87065022635248      0.70528163473155
  C   0.25680126605611     -0.58936146718884      0.34361538592627
  F   1.00463568643659      1.35349289874176      1.43112934199196
  H   0.37153399836455     -1.15337307117628      1.27303996367561
  H   -0.95226734428024      0.89713847706857      1.32959266305047
  C   -0.25764320275688      1.68008948843510     -0.50165495836758
  N   -0.43544598307599      2.31871742790715     -1.47063847399935
  C   1.44429526651665     -0.70795678121759     -0.48682036877816
  N   2.42562072543409     -0.78635650777840     -1.12689641161458
  N   -0.96632252638587     -1.16437340139249     -0.34642500161390
  O   -1.97325348280833     -1.17648204135113      0.35369194227877
  O   -0.86010359925845     -1.54118524840033     -1.50391571728106
