15

C	-0.232376	0.133391	-1.507736
C	0.0	0.0	0.0
F	-1.504239	0.537822	-1.839197
H	1.095696	0.0	0.0
N	0.728507	0.99896	-2.00517
H	1.630159	0.807246	-1.534288
H	0.824693	0.930064	-3.008006
N	-0.17426	-1.296132	-2.153363
O	0.839562	-1.578131	-2.786544
O	-1.150116	-2.020917	-1.990325
C	-0.525948	-1.180922	0.651572
N	-0.881029	-2.132507	1.244696
C	-0.445847	1.208278	0.670806
N	-0.772936	2.177599	1.250352
H	2.512648	0.0	0.0
