15

C	-0.252858	0.130047	-1.511494
C	0.0	0.0	0.0
F	-1.535681	0.503068	-1.782903
H	1.095669	0.0	0.0
N	0.650171	1.010851	-2.151307
H	0.397472	1.955496	-1.882588
H	1.581014	0.810113	-1.758107
N	-0.069738	-1.262531	-2.124606
O	1.064594	-1.561338	-2.474805
O	-1.070156	-1.972967	-2.180039
C	-0.562255	-1.159929	0.655741
N	-0.990414	-2.105886	1.209881
C	-0.408973	1.232974	0.644411
N	-0.65843	2.264827	1.151009
H	2.494469	0.0	0.0
