15

C	-0.265304	0.15182	-1.508931
C	0.0	0.0	0.0
F	-1.530479	0.591855	-1.760186
H	1.095781	0.0	0.0
N	0.670069	0.992842	-2.157994
H	1.594903	0.774328	-1.757895
H	0.443012	1.95011	-1.90836
N	-0.161069	-1.244062	-2.131072
O	0.965899	-1.626971	-2.414286
O	-1.206396	-1.872404	-2.260905
C	-0.560143	-1.172104	0.634954
N	-0.977081	-2.14065	1.157232
C	-0.400219	1.224252	0.666276
N	-0.634002	2.248468	1.195972
H	2.49626	0.0	0.0
