15

C	-0.192281	-0.058959	-1.50684
C	0.0	0.0	0.0
F	-0.07287	1.240434	-2.009808
H	1.097477	0.0	0.0
N	0.69976	-0.974218	-2.029116
H	1.625443	-0.814836	-1.596544
H	0.715038	-0.968982	-3.038772
N	-1.620954	-0.410545	-1.954284
O	-1.737004	-0.850596	-3.09509
O	-2.53726	-0.177787	-1.173006
C	-0.441636	-1.216946	0.653646
N	-0.738063	-2.206582	1.214289
C	-0.528289	1.189814	0.635016
N	-0.886198	2.147312	1.21598
H	2.528224	0.0	0.0
