12

C	-0.053031	-0.16521	-0.005302
C	-0.595154	-0.264526	-1.423611
Cl	1.655296	0.358789	0.049719
H	-1.600836	-0.694651	-1.300022
H	-0.111287	-1.134558	0.489978
H	-0.663567	0.560739	0.528395
C	0.202446	-1.193851	-2.235661
N	0.805875	-1.954762	-2.895371
N	-0.636666	1.054147	-2.04774
H	-1.392369	1.532779	-1.551475
H	-0.962898	0.940877	-3.002097
Cl	-3.260703	1.160138	-0.07324
