12

C	-0.01851	-0.179168	0.00228
C	-0.520885	-0.319999	-1.427361
Cl	1.70688	0.280634	0.089661
H	-1.546856	-0.703063	-1.316384
H	-0.615595	0.592647	0.484323
H	-0.130404	-1.122838	0.536411
C	0.262389	-1.315404	-2.171777
N	0.857343	-2.126803	-2.776754
N	-0.489633	0.970251	-2.108607
H	-1.243954	1.497867	-1.662536
H	-0.783465	0.827381	-3.069428
Cl	-3.173561	1.259158	-0.234165
