16

C	-0.3668	0.117679	-1.471365
C	0.0	0.0	0.0
F	-1.764772	0.197024	-1.618677
H	1.097209	0.0	0.0
H	0.033692	1.071686	-1.830864
C	0.158176	-1.024561	-2.306063
H	-0.070734	-0.860158	-3.361809
H	-0.300952	-1.963623	-1.989353
H	1.240934	-1.09188	-2.171521
C	-0.495163	-1.258502	0.553588
N	-0.931963	-2.251761	1.004018
C	-0.501018	1.186039	0.823597
H	-0.175215	1.090556	1.860767
H	-0.071051	2.106779	0.421394
H	-1.590606	1.256631	0.793807
Cl	3.367327	0.0	0.0
