16

C	-0.366458	0.009979	-1.476176
C	0.0	0.0	0.0
F	-1.764492	0.07678	-1.629399
H	1.097167	0.0	0.0
H	0.032764	0.936005	-1.903867
C	0.160164	-1.188741	-2.227052
H	-0.072547	-1.101763	-3.291507
H	-0.29498	-2.103697	-1.84151
H	1.243775	-1.242675	-2.090751
C	-0.494008	-1.215555	0.643438
N	-0.92384	-2.177876	1.162356
C	-0.501529	1.242986	0.735359
H	-0.176936	1.222956	1.777181
H	-0.071044	2.13195	0.267817
H	-1.591078	1.311046	0.699373
Cl	3.372014	0.0	0.0
