15
Coordinates from ORCA-job run
  C   0.85253217742863      0.31877924365592     -0.26800410898808
  C   -0.54452061645847     -0.27199887124424     -0.57177839048034
  Cl  1.46247947898337      1.07499528219616     -1.83236615431576
  H   -0.45384822667023     -0.86659292080325     -1.48578208586588
  N   0.79443361668849      1.22226457419215      0.82001857295176
  H   0.18714686102924      2.00768734562701      0.61186006454682
  H   1.71177627326630      1.56160695495130      1.08079426024454
  C   1.78714662387310     -0.76804337461221      0.03959610019990
  N   2.51994556375039     -1.65115259693024      0.29072512999070
  C   -1.46266013020863      0.83714220098647     -0.83695669551598
  N   -2.19949952210433      1.73859263997986     -0.99072893567841
  C   -1.06643795836658     -1.13913673184459      0.57776597384137
  H   -2.06195849936589     -1.51277914973576      0.33260341133868
  H   -0.40619257376437     -1.99354772339106      0.73484586174541
  H   -1.12034306808104     -0.55781687302754      1.49740699598528
