15
Coordinates from ORCA-job run
  C   0.81536197939261      0.42784908305405     -0.33995403051637
  C   -0.53998160366222     -0.25933049297679     -0.60936162959566
  Cl  1.31912840445562      1.31151811149324     -1.80986620456826
  H   -0.39995331926578     -0.91241577590646     -1.47793771153135
  N   0.68776506459283      1.38398554558180      0.73119752558033
  H   1.52686877590458      1.94813981887045      0.80104802564714
  H   0.55110990802067      0.90413774580885      1.61423752525158
  C   1.83185305216608     -0.61496138424869     -0.09523038442956
  N   2.61811942105361     -1.44762291799348      0.17174319540047
  C   -1.54119059588464      0.74942620766591     -0.96033349154255
  N   -2.39392522374586      1.50868110761437     -1.23237415753928
  C   -1.02040398469027     -1.09160149203389      0.58476499399224
  H   -1.26030440128247     -0.45340072635638      1.43681226834772
  H   -0.26623048248965     -1.82600536708570      0.87491145965289
  H   -1.93021699456511     -1.62739946348728      0.31034261585067
