15
Coordinates from ORCA-job run
  C   0.81153109288411      0.39829885846200     -0.38217406013968
  C   -0.56549068798508     -0.26931359793617     -0.58139724805187
  Cl  1.28215434239699      1.21919945278017     -1.89852975515370
  H   -0.46785102233329     -0.95552314297819     -1.42999586592968
  N   0.73969463198485      1.39374527089323      0.65808665730336
  H   1.59156535540528      1.94272293849527      0.67892396764244
  H   0.62536498563016      0.94763246780945      1.56176168043522
  C   1.81493889236352     -0.65653013187620     -0.13435099731816
  N   2.59466166144736     -1.49442575191802      0.13542416298702
  C   -1.55802444141891      0.74707209334010     -0.93484477885538
  N   -2.40503343456506      1.51368577102072     -1.20410538950722
  C   -1.02134775927863     -1.04875700524525      0.65714093577986
  H   -0.27293445816889     -1.78904495906587      0.94716671153305
  H   -1.95117209008910     -1.57348853910783      0.43315290347479
  H   -1.21805706827330     -0.37627372467341      1.49374107579997
