15
Coordinates from ORCA-job run
  C   0.87599662753443      0.38796240112528     -0.07624363503258
  C   -0.45078126559644     -0.40187246339586     -0.28713987274111
  Cl  0.56690926104240      2.12218290989991     -0.40592191488190
  H   -0.18162192651092     -1.45730657034016     -0.14537251317210
  N   1.45515135757000      0.28770101210297      1.23733556579264
  H   0.83212989149546      0.66197208232549      1.94146274303889
  H   1.70021441702415     -0.67153763477335      1.45533443174173
  C   1.86237061675431     -0.10087120936201     -1.04959758935148
  N   2.63803276387174     -0.55250307141021     -1.80764205828503
  C   -0.92329309193975     -0.25515970250102     -1.66406809117951
  N   -1.32986403087848     -0.13614143528641     -2.75930912493002
  C   -1.55140034809461     -0.03157243720397      0.70751670868378
  H   -2.43592544539092     -0.63976635355435      0.51336869821965
  H   -1.82812109237695      1.01813606329261      0.61108168780868
  H   -1.22979773450441     -0.22922359091894      1.73119496428838
