15
Coordinates from ORCA-job run
  C   0.86769825061646      0.36690642663745     -0.19065398827378
  C   -0.44642218283549     -0.47064517088696     -0.16453546718641
  Cl  0.52307938460067      1.94638849247361     -0.96424442802677
  H   -0.15591682206848     -1.44723586521794      0.24571758276972
  N   1.46250272031123      0.62830521129437      1.09332492001508
  H   1.72734444289337     -0.23456018529505      1.55465933320040
  H   0.84013440914991      1.16700257949106      1.68185588185998
  C   1.85245830640102     -0.34853299774554     -1.01386555763586
  N   2.62733502189911     -0.97813363929582     -1.63299234150360
  C   -0.93722026191406     -0.69814709103903     -1.52401772699788
  N   -1.35732171484029     -0.87644262695617     -2.60603784759524
  C   -1.54167918269377      0.13246787555371      0.71553186992342
  H   -2.41833581968140     -0.51660382720592      0.70066043258165
  H   -1.20488125516110      0.21337897354189      1.75017633354837
  H   -1.83677529667716      1.11685184465032      0.35242100332092
