15
Coordinates from ORCA-job run
  C   0.83887421993003      0.28457721262769     -0.25079109785633
  C   -0.65941863448188     -0.05165154324183     -0.42443178560327
  Cl  1.76034149356899     -0.56202872590111     -1.53286996730776
  H   -0.90605203755137      0.26622135186885     -1.44329273151942
  N   1.03975454212638      1.69911980225532     -0.43916587397061
  H   2.02841054841515      1.92101235239062     -0.40090275224820
  H   0.56293570925886      2.21851971568252      0.29183512208834
  C   1.32427047642233     -0.22834523996462      1.04416053662987
  N   1.69771258968021     -0.58016018032298      2.10229797543201
  C   -1.41918554993486      0.78363145456330      0.50917842981598
  N   -2.00172571081104      1.45488808938808      1.27718970085750
  C   -0.99812170460216     -1.52847536266894     -0.21931580152908
  H   -0.75529669074152     -1.84639065731882      0.79617292919063
  H   -2.06567572589619     -1.68404397516043     -0.38192390175113
  H   -0.44682352538296     -2.14587429419765     -0.92814078222853
