15
Coordinates from ORCA-job run
  C   0.70587943902255      0.50141711683052      0.10693350480194
  C   -0.44844653268603     -0.40158520627872     -0.38718863132991
  Cl  0.10067124273354      2.15038167452192      0.43295843942478
  H   0.00374885998250     -1.38801411609546     -0.56095638747299
  N   1.22469784094593     -0.03572694592358      1.34453763761134
  H   1.68146395190457     -0.92436642632300      1.16171026693819
  H   1.91287759382984      0.59863085496530      1.73506132900020
  C   1.72741500958809      0.61325185221555     -0.95129002530333
  N   2.58687649034430      0.62906208298352     -1.75374665919641
  C   -0.94831538202296      0.07812983841656     -1.67617829523445
  N   -1.38352011579505      0.45278875383471     -2.70036340474694
  C   -1.58272285662990     -0.54085507443311      0.62975042489607
  H   -2.29783839167545     -1.28377368330464      0.27246400469973
  H   -1.17980521218792     -0.85681831241947      1.59065921621435
  H   -2.10398193735402      0.40747759100989      0.75664857969744
