15
Coordinates from ORCA-job run
  C   0.86339323056996      0.32265948346991     -0.22710050252141
  C   -0.52296492434995     -0.25390553974417     -0.59940582925042
  Cl  1.53367949648103      1.11926498457380     -1.74662623340471
  H   -0.39983426133148     -0.82373019717856     -1.52526243557651
  N   0.76739480205037      1.19581030549446      0.88230260360712
  H   1.67489538759167      1.52480477753474      1.18682729822646
  H   0.16908279851796      1.98821901045543      0.67527964974302
  C   1.78278243668065     -0.77600276556274      0.08415494183863
  N   2.50324243592887     -1.66948108975064      0.33440041607724
  C   -1.42775458794206      0.86542192568390     -0.86728140788818
  N   -2.15894948402628      1.77165184738759     -1.01911428196020
  C   -1.09097562106287     -1.14964266421471      0.50561837428908
  H   -1.18396024490617     -0.59152659246209      1.43650333981675
  H   -2.07505602829845     -1.51684941740838      0.20971291266200
  H   -0.43697543590325     -2.00769406827854      0.66899115434112
