15
Coordinates from ORCA-job run
  C   0.80131471729035      0.39185702433032     -0.04105453634719
  C   -0.46562998155332     -0.43045473919313     -0.37351140405511
  Cl  0.33524213767384      2.16388338032127      0.05626134540029
  H   -0.09934046262671     -1.44858836476738     -0.55142968583809
  N   1.40288708164393     -0.10138833648436      1.14943665405761
  H   2.31539881885503      0.31292562478887      1.29709451954301
  H   0.82233744597086      0.09616179685177      1.95511634747085
  C   1.75962955354338      0.28232425741354     -1.14530267804261
  N   2.53455795112514      0.16697361382877     -2.02061441443101
  C   -1.07649951768349      0.04836862285942     -1.61382659693961
  N   -1.60241377437853      0.40918352857467     -2.59952185171962
  C   -1.48685855720604     -0.45914994757676      0.76540000037417
  H   -1.07450912199380     -0.97477081460495      1.63386512529012
  H   -1.79233977883664      0.55033303771289      1.04251425349706
  H   -2.37277651182400     -1.00865868405497      0.44457292174014
