15
Coordinates from ORCA-job run
  C   0.90682978114400      0.27262180545077     -0.24190503326775
  C   -0.61410432846519     -0.03861635750175     -0.35894048294749
  Cl  1.71579247039571     -0.56104871818418     -1.61298809644426
  H   -0.91041772831353      0.29913054858060     -1.35980601662972
  N   1.26478268630883      1.66293289149104     -0.30881457829234
  H   0.91622024683888      2.16213456512841      0.50242232838097
  H   0.89707503701303      2.08402452355362     -1.15453486026899
  C   1.42065834429068     -0.28710233338000      1.01427900912676
  N   1.78580803720486     -0.73274036024631      2.03801129997471
  C   -1.30895066961451      0.79787935831313      0.62275201380225
  N   -1.84062875409857      1.46955285458632      1.42651517842672
  C   -0.98521913272408     -1.51088768884730     -0.17497385971881
  H   -0.70533979016987     -1.85699769063105      0.82160247686496
  H   -2.06279601296577     -1.63690727129623     -0.29224947456645
  H   -0.48071018684447     -2.12497612701707     -0.92036990444055
