15
Coordinates from ORCA-job run
  C   0.82635733348324      0.40515580368905     -0.34180085859508
  C   -0.54626082683984     -0.24806290338807     -0.60842436957913
  Cl  1.35238094520647      1.26966617321340     -1.81526013861060
  H   -0.42288423206014     -0.90834932260460     -1.47405678920940
  N   0.72350121900123      1.36852367229092      0.72555023860905
  H   1.57728950854373      1.91062933596554      0.79384875866104
  H   0.57377711309952      0.89583400755421      1.61034075380608
  C   1.81573500337740     -0.66249322222822     -0.09295629799385
  N   2.58108490695713     -1.51334822451425      0.17772064904595
  C   -1.52118512943597      0.78453036988717     -0.96409421793225
  N   -2.35440353684843      1.56432337092606     -1.23831946767615
  C   -1.04812323625479     -1.06238969604211      0.58926249698589
  H   -1.97073127214738     -1.57672855998432      0.31665645846916
  H   -0.31273877197268     -1.81392767720123      0.88354978111215
  H   -1.27279902410949     -0.41436312756355      1.43798300290713
