15
Coordinates from ORCA-job run
  C   0.82098129282532      0.44085813018984     -0.30788622123019
  C   -0.53179882947710     -0.22903694004895     -0.62812322613169
  Cl  1.34768988108296      1.39129577871697     -1.72724152004233
  H   -0.38094905485858     -0.84118924113320     -1.52426901363819
  N   0.68033164228967      1.34588117542668      0.80526445367883
  H   0.52719634135104      0.82513633114693      1.66208361582090
  H   1.52121776521628      1.90116838880362      0.91552411556117
  C   1.83225704217026     -0.61465667483421     -0.09817463977522
  N   2.61655929402975     -1.45759606173082      0.14114423432457
  C   -1.52566394944606      0.79755269138222     -0.94682959549989
  N   -2.37263282939495      1.56978842846161     -1.19943882276686
  C   -1.03101992968619     -1.11474417025626      0.51883294262155
  H   -1.28494488470771     -0.51634467112227      1.39535978892494
  H   -0.28130653052428     -1.86185621217854      0.78727822655305
  H   -1.93591725087040     -1.63725695282362      0.20547566159936
