15
Coordinates from ORCA-job run
  C   0.91676971673306      0.28372970735933     -0.18552003444364
  C   -0.59770875628656     -0.01572843148998     -0.38696118820240
  Cl  1.78450298513754     -0.46987903885088     -1.56707448718050
  H   -0.84934853736239      0.37949447718927     -1.37895588239267
  N   1.27800695106400      1.67448374309410     -0.15466407493039
  H   0.95089695944632      2.14496320368410     -0.99077387115074
  H   0.89154194644400      2.12688987644376      0.66664554386632
  C   1.37514033386997     -0.35112495388405      1.05643485755747
  N   1.69419237180707     -0.85949984539068      2.06616033155084
  C   -1.33484149994310      0.76552489813994      0.60920397123872
  N   -1.90136792012926      1.39242423722399      1.42524621227644
  C   -0.97721914643254     -1.49495859696346     -0.30443033867929
  H   -0.74508076625528     -1.89772927459032      0.68297969155431
  H   -2.04788015305322     -1.61143686544872     -0.47986579687478
  H   -0.43760448503960     -2.06715313651642     -1.05842493418971
