15
Coordinates from ORCA-job run
  C   0.82974068155990      0.28936430815383     -0.27585386166988
  C   -0.66711529941468     -0.07047499699354     -0.40806434830985
  Cl  1.73398551331270     -0.57616957923082     -1.55769456113860
  H   -0.94032989180913      0.21987795340773     -1.42836467614703
  N   1.00740194512109      1.70133430194649     -0.50256198569840
  H   1.99345468011964      1.93717703428633     -0.49167414322526
  H   0.53926042959993      2.23252951408951      0.22555178322320
  C   1.35051508861375     -0.18555681026699      1.01996917648310
  N   1.75175526300001     -0.50554181235862      2.07803014224915
  C   -1.41886715875727      0.77648618323697      0.52152207869073
  N   -1.99871859787369      1.45592315414230      1.28451362712782
  C   -0.98137159698170     -1.54615748817467     -0.16077886106789
  H   -0.71206388232811     -1.83654212006300      0.85622185033100
  H   -2.05007471116083     -1.71921364001899     -0.29583105512649
  H   -0.43757246300162     -2.17303600215652     -0.86698516572159
