15
Coordinates from ORCA-job run
  C   0.83798582791651      0.30808118661894     -0.22936920668759
  C   -0.65098458308504     -0.05038960910859     -0.43462313932698
  Cl  1.79206944993300     -0.48101290426711     -1.52482947318505
  H   -0.88915009065765      0.29362130247567     -1.44698518301530
  N   1.01469728458022      1.73097682883360     -0.37071151268082
  H   0.51374322510927      2.21921767499616      0.36544353332010
  H   1.99776016897275      1.97109354461974     -0.30786539864756
  C   1.31552531133749     -0.23724937329194      1.05535021284451
  N   1.67803496044145     -0.61831700483524      2.10707993279319
  C   -1.44142020056425      0.74128121397641      0.51139756049519
  N   -2.05357835064809      1.37682668904441      1.28682733024108
  C   -0.96466185370825     -1.53893367706906     -0.27963170489940
  H   -0.72731233293181     -1.88414702579160      0.72813498693228
  H   -0.39444546819818     -2.12366629057971     -1.00088506505643
  H   -2.02726334849739     -1.70838255562166     -0.45933287312723
