15
Coordinates from ORCA-job run
  C   0.92283310872743      0.38488218081246     -0.28171464513696
  C   -0.46230048766033     -0.23552507871488     -0.63542721650527
  Cl  1.52692488316190      1.19573538522258     -1.76914963952288
  H   -0.33782829313118     -0.83289937302495     -1.54465053714181
  N   0.94140733976411      1.34153883333400      0.78591633052573
  H   0.26368883975348      2.07882866016570      0.62770888156535
  H   0.79012521378151      0.90211065272464      1.68507324625336
  C   1.84548582157948     -0.70988906946423      0.04383080837925
  N   2.54586209671283     -1.61815607251546      0.29724359045926
  C   -1.39093990695975      0.85794195210746     -0.92216639907762
  N   -2.15449770599177      1.73420436825256     -1.09014219156939
  C   -1.01340169300891     -1.11052706183564      0.49385723627048
  H   -0.33830762528255     -1.94294376241509      0.69892131542632
  H   -1.98332187601034     -1.51756436452940      0.20435003728591
  H   -1.15572971543589     -0.52873725011977      1.40634918278827
