15
Coordinates from ORCA-job run
  C   0.66116024831428      0.56438624699102     -0.07253794775576
  C   -0.37275050063571     -0.57913896873629     -0.19525737597776
  Cl  -0.05322140851829      2.10278283283360     -0.63288129589001
  H   0.14170456554316     -1.48035588607150      0.16640143563637
  N   1.02372504958274      0.72162027376476      1.31819971241534
  H   1.54533868249394     -0.09425731810358      1.62517342066936
  H   1.61783495960344      1.53593966052061      1.42998451700353
  C   1.81604829875956      0.27570535886605     -0.94353783762919
  N   2.78088728559152      0.00240593142896     -1.55797061264861
  C   -0.70748294521481     -0.80849664920083     -1.60127347369733
  N   -1.01045486583215     -1.00192408986606     -2.71901061712831
  C   -1.63056267804642     -0.34796734251766      0.64384059289056
  H   -1.35227943409096     -0.14190492099568      1.67605203552659
  H   -2.25779754093819     -1.24017391356371      0.60687728184158
  H   -2.20314971661210      0.49337878465032      0.25494016474363
