15
Coordinates from ORCA-job run
  C   0.83174513338884      0.28378460553375     -0.27593250232277
  C   -0.66615922773869     -0.07164351741826     -0.40943054588742
  Cl  1.73676665970819     -0.59552764134913     -1.54746734340040
  H   -0.93510178950215      0.21013036697433     -1.43325209835079
  N   1.01499247792667      1.69332102020400     -0.51406368852543
  H   2.00211272846803      1.92498934900145     -0.50459709882620
  H   0.54905606647718      2.23193573438632      0.21008270314383
  C   1.34624466169197     -0.18199249859333      1.02562098159912
  N   1.73945868383277     -0.49548388821706      2.08861427980056
  C   -1.41697189650066      0.78683284113102      0.51021806330233
  N   -1.99571235369057      1.47715947328472      1.26408029701648
  C   -0.98655010335144     -1.54395783305079     -0.14932469438540
  H   -2.05552783620527     -1.71428251205321     -0.28620688132093
  H   -0.44275830453913     -2.17965617682390     -0.84775311607332
  H   -0.72159489996573     -1.82560932300993      0.87141164423033
