15
Coordinates from ORCA-job run
  C   0.77323640202352      0.44567018487990      0.03430545576566
  C   -0.42816568129126     -0.40352836106175     -0.44194220283482
  Cl  0.18431050823738      2.15190622655129      0.36533026690445
  H   0.00999450379994     -1.36012357450235     -0.75085770650660
  N   1.38770732834346     -0.16901541993387      1.15990069848076
  H   0.78081453403334     -0.12699175246422      1.96933581980160
  H   2.26573545637708      0.28143006552632      1.38860672430771
  C   1.75514761036067      0.55635636530891     -1.04886704218818
  N   2.55170244798070      0.61776808465586     -1.91013095466506
  C   -1.05147309116887      0.20390435008684     -1.61817646382455
  N   -1.58822258277590      0.66442493100978     -2.55524533033163
  C   -1.46366536302857     -0.65978306540312      0.65496649926307
  H   -1.03101700209759     -1.26250886343640      1.45476655466544
  H   -2.30286638335425     -1.21779141161053      0.23773693181162
  H   -1.84423868743964      0.27828224039333      1.06027074935055
