15
Coordinates from ORCA-job run
  C   0.77398909665056      0.43839850943557     -0.07898725910171
  C   -0.42294710343893     -0.51137342013222     -0.31499419703557
  Cl  0.18272404512127      2.16880019505049     -0.23737539944156
  H   0.01714571747683     -1.51557110779836     -0.33477495160250
  N   1.37623595287836      0.15926213929107      1.17887998376515
  H   2.25171027983736      0.65834026089068      1.28328544908471
  H   0.76059297988372      0.42185387018970      1.93870961631952
  C   1.76707208857351      0.24905164471174     -1.14108687819601
  N   2.56982081894997      0.07395100731507     -1.98046855840068
  C   -1.02524852798220     -0.26169410328848     -1.62500470598539
  N   -1.54372706659771     -0.08408496653796     -2.66337663032160
  C   -1.47673937966444     -0.45041947442883      0.79252078278436
  H   -2.30721044281777     -1.11027547661339      0.53816978901743
  H   -1.86610643327982      0.56162536915062      0.90722715134747
  H   -1.05731202559070     -0.79686444723569      1.73827580776638
