15
Coordinates from ORCA-job run
  C   0.84173403976535      0.46277941850550      0.02750686764089
  C   -0.41588634836964     -0.36394681819518     -0.37630011914785
  Cl  0.39427424132742      2.19771563754524      0.07285670642646
  H   -0.06261958519809     -1.40068570203160     -0.45961523687891
  N   1.42243217542554      0.12616021298385      1.30045896586117
  H   0.76810302900130      0.28756842481627      2.05526772471860
  H   1.74493256083759     -0.83481391115285      1.31096592035218
  C   1.86819405604113      0.27568347046711     -1.00717244280091
  N   2.68157756875744      0.06158004186644     -1.82744231603834
  C   -0.89408414684842      0.03888840251060     -1.69914306411918
  N   -1.30540974771591      0.35466017833366     -2.75277913714563
  C   -1.54628887306949     -0.30513649067403      0.65167454188549
  H   -2.37894894603296     -0.92239687736063      0.31139782473399
  H   -1.21378366056584     -0.69608827907810      1.61461027302367
  H   -1.90522636335543      0.71603229146371      0.77971349148837
