15
Coordinates from ORCA-job run
  C   0.86183200069026      0.38166846620232     -0.18834845883893
  C   -0.44390477199901     -0.46863865358865     -0.17276828641815
  Cl  0.49049870203797      1.98553433202361     -0.89699814246464
  H   -0.13861969272796     -1.45522880788099      0.20135357709119
  N   1.47433426822372      0.60045919071503      1.09513172976677
  H   1.75513518749385     -0.27611498745903      1.51913117299159
  H   0.85686354291248      1.11060516350304      1.71338005725069
  C   1.83934276488013     -0.29168051569655     -1.05445425011320
  N   2.60635782716280     -0.88629801553385     -1.71647659906545
  C   -0.95162628214162     -0.65722622226629     -1.53194160411302
  N   -1.38599169407813     -0.80562738301843     -2.61291817517717
  C   -1.53343062839481      0.09394671496961      0.74081316982579
  H   -1.18276251599061      0.14840556763125      1.77261641348401
  H   -2.40208211195892     -0.56567045438038      0.71873311230052
  H   -1.84594659611015      1.08486560477934      0.41174628347998
