15
Coordinates from ORCA-job run
  C   0.83763986085970      0.33603702777080     -0.10282834043309
  C   -0.63942878351455     -0.02695340386762     -0.37616141985269
  Cl  1.83870019681528     -0.54276778641161     -1.38100365192134
  H   -0.84824224549204      0.30556611247264     -1.40102584453727
  N   1.01630720171397      1.73751422021120     -0.12757184181250
  H   0.73761285077905      2.13401183911689     -1.01695177857861
  H   1.96699342491432      2.00965333970907      0.08850198774519
  C   1.27230259691823     -0.19824080486568      1.19053403630650
  N   1.60460449371735     -0.63358643924002      2.22984721545097
  C   -1.49129456620889      0.74304566812245      0.53500471576762
  N   -2.21837077258276      1.30727162497995      1.26423438698610
  C   -0.95401385543043     -1.51918145209084     -0.25007584072567
  H   -0.74056318604484     -1.87129109059976      0.76082781317242
  H   -2.01345470576647     -1.68305503000608     -0.45205186136550
  H   -0.36879251067791     -2.09902382530140     -0.96227957620213
