15
Coordinates from ORCA-job run
  C   0.83425560907588      0.31507887909948     -0.22837962872262
  C   -0.64976694140791     -0.06246550482885     -0.43581457630098
  Cl  1.80269993733758     -0.47351834727514     -1.51265986074086
  H   -0.88923237895378      0.27216981870110     -1.45102725739262
  N   0.99463585472501      1.73901907274472     -0.38157924436198
  H   0.49053303406274      2.22696309562495      0.35281855489572
  H   1.97530124280144      1.98983487961672     -0.32203308004844
  C   1.31271416139954     -0.21269038738578      1.06327850484004
  N   1.67911403029567     -0.57745513997938      2.11944686721492
  C   -1.45145856322124      0.72769628316066      0.50219906500301
  N   -2.07199488667731      1.37161710512673      1.26388420378055
  C   -0.94615016847461     -1.55337667975672     -0.27107018541869
  H   -0.70782257258678     -1.88843978999824      0.73998681071467
  H   -0.36665619349994     -2.13661096473069     -0.98627783698900
  H   -2.00617216487628     -1.73682232011955     -0.45277233647373
