15
Coordinates from ORCA-job run
  C   0.91416398382274      0.29333069718843     -0.18383483308271
  C   -0.59534819110200     -0.02808902335767     -0.39070104405716
  Cl  1.79974025248061     -0.46811740424674     -1.54997646504795
  H   -0.84506645947652      0.34983404980462     -1.38986830531958
  N   1.25760953061225      1.68858055172819     -0.16915637011166
  H   0.86362264301590      2.14628006698293      0.64578895627074
  H   0.92712984039576      2.14507081160699     -1.01191028303939
  C   1.37245668593113     -0.32048206263376      1.06849336300816
  N   1.68963963993931     -0.81706381026183      2.08483766203456
  C   -1.34810707237882      0.75790685282446      0.58980324933216
  N   -1.92407011450087      1.39100589599908      1.39434595294375
  C   -0.95656584696138     -1.51075154240130     -0.28962444474862
  H   -0.40842875125980     -2.08601422122066     -1.03519374418048
  H   -2.02541214977322     -1.64278994619546     -0.46541740159699
  H   -0.72136399074509     -1.89770091581727      0.70341370759517
