15
Coordinates from ORCA-job run
  C   0.81784905044675      0.39916696622023     -0.36757538876380
  C   -0.55562783764676     -0.26848699694448     -0.59095824810617
  Cl  1.31322353555042      1.22316324318113     -1.87457739078296
  H   -0.44363195440843     -0.95330081199860     -1.43890406550557
  N   0.72826901296269      1.39252780156684      0.67284354438272
  H   0.59704075500620      0.94581169439931      1.57383615071586
  H   1.57892833812095      1.94242287021161      0.70959062090082
  C   1.81730944391546     -0.65591145654821     -0.10569726037348
  N   2.59258901554049     -1.49446095136892      0.17486552441240
  C   -1.54241273764427      0.74814774489112     -0.95915939759150
  N   -2.38474458244169      1.51485540559895     -1.24243378940175
  C   -1.03147776604000     -1.05010974588902      0.63871186361980
  H   -1.95635728757030     -1.57627984041299      0.39814862438941
  H   -1.24389929444569     -0.37894636163603      1.47251040520625
  H   -0.28705769134581     -1.78959956127093      0.94079880689797
