15
Coordinates from ORCA-job run
  C   0.91196135341881      0.34869876667476     -0.35417364290251
  C   -0.50048433307210     -0.26326590291126     -0.59655536445065
  Cl  1.44742518385954      1.06185490275267     -1.91650355386991
  H   -0.43547856614299     -0.91601455948537     -1.47337563479146
  N   1.00527737973981      1.36264406982185      0.65446171473233
  H   0.33114877069203      2.10250496151491      0.49335087299315
  H   0.90158903733667      0.97739829422714      1.58453604055103
  C   1.83249880246251     -0.74408058209091     -0.01639997881055
  N   2.52669759508389     -1.64684522831221      0.27133694015921
  C   -1.42460358095863      0.82964287082881     -0.89963685570421
  N   -2.17018885046335      1.71912503363127     -1.07923728465741
  C   -1.00527737030609     -1.05813957487883      0.61101908379637
  H   -1.09379957092071     -0.41879689408022      1.49125339098803
  H   -1.99384016865571     -1.46638771319377      0.39566493739494
  H   -0.33192568207369     -1.88733844449885      0.83425933457165
