15
Coordinates from ORCA-job run
  C   0.84566617000304      0.31427468831502     -0.10370460569537
  C   -0.64083916805425     -0.01033508976925     -0.37419577831101
  Cl  1.82142082993384     -0.58649755656939     -1.38489640935627
  H   -0.84393175061143      0.33168802682243     -1.39710317724140
  N   1.05940443817604      1.71143952135212     -0.12635118126496
  H   0.79147219104164      2.11474734273304     -1.01609803281783
  H   2.01751910056650      1.95796588223385      0.08824745419290
  C   1.26879286146075     -0.23152451792354      1.18871451457985
  N   1.59197087364799     -0.67113238737297      2.22909297981110
  C   -1.47047025444575      0.77767408678507      0.54210965350660
  N   -2.18105869873362      1.35941600270087      1.27367467476482
  C   -0.99270069361349     -1.49456782063961     -0.25316569958841
  H   -0.78458444025256     -1.85619454332684      0.75549977763277
  H   -0.42498386826596     -2.08608873169958     -0.96993236943964
  H   -2.05667759085275     -1.63086490364121     -0.45189180077316
