15
Coordinates from ORCA-job run
  C   0.86079191029919      0.32408822386979     -0.23473528648728
  C   -0.52747961781777     -0.25539029389657     -0.59570040003625
  Cl  1.52035983761681      1.11628558460971     -1.76035036434128
  H   -0.41110440291697     -0.82403293835082     -1.52313440206195
  N   0.77078757530523      1.20076111912677      0.87280074271937
  H   0.17143683245105      1.99269616527844      0.66639215079718
  H   1.68017726986109      1.53054109502949      1.17086098983802
  C   1.78352048286242     -0.77148050755830      0.07723944386629
  N   2.50506858331318     -1.66117172495371      0.33747907090644
  C   -1.43620742478457      0.86244183241178     -0.85649657994215
  N   -2.16893804111458      1.76716026201508     -1.00933128033451
  C   -1.08380603928494     -1.15329194530311      0.51336013627525
  H   -2.07382484189263     -1.51485313978238      0.23060853726846
  H   -1.16040839572554     -0.59875184868506      1.44786821331648
  H   -0.43137372817198     -2.01500188381109      0.66313902821593
