15
Coordinates from ORCA-job run
  C   0.82910868993953      0.40872814015990     -0.32973765598609
  C   -0.53810888236863     -0.24729374630621     -0.61613346906845
  Cl  1.37165539737608      1.27993706800705     -1.79315740572926
  H   -0.40204348975450     -0.90427582676314     -1.48236106606595
  N   0.70993302036391      1.36801363385712      0.73973312455099
  H   0.55303750731033      0.89136599032319      1.62118809507763
  H   1.56065448061889      1.91344195711315      0.81929798024705
  C   1.81828572941203     -0.65698627064202     -0.07196331125956
  N   2.58263168665262     -1.50659528171797      0.20512786808386
  C   -1.51134431659959      0.78391681598266     -0.98016628613107
  N   -2.34272631468509      1.56234325131468     -1.26388314369986
  C   -1.05234780829543     -1.06751011592334      0.57227787657651
  H   -1.28797117217562     -0.42364016467599      1.42124729594065
  H   -0.31893576630190     -1.81907765407605      0.87159563401178
  H   -1.97082876149263     -1.58236779665304      0.28693446345176
