15
Coordinates from ORCA-job run
  C   0.82565086127713      0.31714998624024     -0.26012937810172
  C   -0.65783587818766     -0.08545640947024     -0.41897101153928
  Cl  1.77408220279870     -0.50774638862766     -1.53711018496532
  H   -0.92362250894174      0.20583199111851     -1.44105612598128
  N   0.96478348350139      1.73591448799102     -0.46949700165729
  H   1.94319593890504      2.00061035638683     -0.43876607705713
  H   0.46807146862463      2.24538369664578      0.25547527712483
  C   1.34009726781476     -0.15767157393966      1.03810357045995
  N   1.72898057506896     -0.48296295507475      2.09925154067675
  C   -1.44883271133868      0.73022555795410      0.50613709269619
  N   -2.06094145007781      1.38707907414595      1.26359241450779
  C   -0.93173517172309     -1.57230661141535     -0.18998797994308
  H   -0.36192598220012     -2.17580175042868     -0.89576003144969
  H   -1.99310421662055     -1.77500920859213     -0.33925919863858
  H   -0.66586387890096     -1.86524025293396      0.82697709386786
