15
Coordinates from ORCA-job run
  C   0.90534420528833      0.29659675900889     -0.21888671925429
  C   -0.60504547773284     -0.04842793629429     -0.37282249224955
  Cl  1.76274469353247     -0.50246537705166     -1.58146472134243
  H   -0.88681161122786      0.29310440787036     -1.37662249210110
  N   1.23225421139482      1.69525760609408     -0.26219153532364
  H   0.85660179947876      2.17642719928160      0.54789108034206
  H   0.87176408464743      2.11856607269020     -1.10993819626762
  C   1.40497696254038     -0.26665592700519      1.04131638057652
  N   1.75643796683990     -0.71754534930208      2.06755061895908
  C   -1.34060009227675      0.76121941334827      0.60168209759636
  N   -1.90549145160175      1.41353353644748      1.39875897151637
  C   -0.94547212569268     -1.53083562298373     -0.21276453342213
  H   -0.41290537789218     -2.12432653642284     -0.95533528994771
  H   -2.01742493213260     -1.68008202625462     -0.35202738207138
  H   -0.67637285516542     -1.88236621942646      0.78485421298947
