15
Coordinates from ORCA-job run
  C   0.75198573348484      0.47721764296245     -0.07011974334817
  C   -0.42580209154767     -0.48397866393729     -0.35337144928999
  Cl  0.09473388104728      2.18816764342597      0.02979451656973
  H   0.04532153910825     -1.45772762462249     -0.53336577870885
  N   1.44333615255930      0.06761830654900      1.10293409728470
  H   2.30675371564590      0.58469179594182      1.21811785835916
  H   0.86984836352429      0.20555148805691      1.92598110510153
  C   1.67919200033278      0.46314675844840     -1.20574200349703
  N   2.42952268249137      0.42584572349173     -2.10889394789497
  C   -1.12444721565635     -0.09182455187184     -1.57766815580353
  N   -1.71891825663259      0.19626088123292     -2.54818322221125
  C   -1.40236845794535     -0.61069097500079      0.81757987277536
  H   -0.90877645538609     -1.06250002610050      1.67926490142063
  H   -1.81269945753738      0.36177329057136      1.09160314494054
  H   -2.22868213348858     -1.26255168914765      0.53106880430215
