15
Coordinates from ORCA-job run
  C   0.91622208444077      0.35455221328672     -0.32836935941613
  C   -0.49612834478565     -0.23782860107720     -0.61688084565856
  Cl  1.48128164492495      1.12350522233514     -1.85321735559925
  H   -0.42142807457433     -0.85390806603247     -1.51902175567056
  N   0.99948615596269      1.32838014028800      0.71999451191798
  H   0.33175036109616      2.07776329762927      0.57708682511545
  H   0.87882476142627      0.90802913337098      1.63271085562062
  C   1.82607353278490     -0.75457833519665     -0.01563968118303
  N   2.53926963621011     -1.64340449564991      0.26904865623898
  C   -1.40913444130184      0.87305321439267     -0.88534114736450
  N   -2.14278957832110      1.77793423810435     -1.03470425300410
  C   -1.02173009894455     -1.08012581844721      0.54920721240863
  H   -2.00925295041416     -1.47339045700519      0.30343659176632
  H   -0.35574697359778     -1.92186992367735      0.74622025302471
  H   -1.11869771490644     -0.47811176232116      1.45446949180343
