16

C	0.0	0.0	0.0
C	-0.403647	-0.005943	-1.516915
Br	1.952222	0.0	0.0
H	0.414724	0.410789	-2.109365
C	-0.322303	1.328686	0.563428
N	-0.498679	2.352025	1.116222
N	-0.602308	-1.095073	0.687916
H	-1.627668	-0.968897	0.544117
H	-0.425678	-1.002479	1.683702
N	-1.618324	0.638097	-1.726732
H	-1.934517	0.534774	-2.683926
H	-2.390247	0.345166	-1.024701
N	-0.35288	-1.509095	-1.959582
O	0.754837	-1.958449	-2.257902
O	-1.411043	-2.121597	-2.03318
H	-3.254517	0.0	0.0
