16

C	0.0	0.0	0.0
C	-0.287413	0.009741	-1.577113
Br	1.951297	0.0	0.0
H	0.151326	0.937194	-1.974401
C	-0.485578	1.24905	0.576413
N	-0.558351	2.39136	0.90252
N	-0.193792	-1.255082	0.736625
H	0.532076	-1.340046	1.425021
H	-1.115365	-1.233171	1.152579
N	-1.618844	-0.109824	-2.075924
H	-1.620961	-0.102948	-3.082682
H	-2.02073	-0.983861	-1.723081
N	0.544879	-1.073728	-2.283101
O	0.226423	-2.242654	-2.091423
O	1.383655	-0.697152	-3.10765
H	-1.876321	0.0	0.0
