16

C	0.0	0.0	0.0
C	-0.4774	-0.049852	-1.455668
Br	2.043065	0.0	0.0
H	-1.583834	0.087412	-1.288248
C	-0.313039	1.258881	0.691959
N	-0.454542	2.225041	1.345995
N	-0.539101	-1.071875	0.745822
H	-1.575221	-0.825516	0.72856
H	-0.439154	-1.902189	0.167462
N	-0.185121	-1.308091	-2.045342
H	-0.802284	-1.473661	-2.825248
H	0.77078	-1.324689	-2.37554
N	0.025448	1.113831	-2.275447
O	-0.248725	2.243176	-1.874279
O	0.654778	0.867461	-3.308872
H	-2.860888	0.0	0.0
