16

C	0.0	0.0	0.0
C	-0.538595	0.104158	-1.452185
Br	1.959139	0.0	0.0
H	-1.636914	0.044396	-1.27646
C	-0.371096	1.216839	0.742193
N	-0.599395	2.210436	1.326644
N	-0.551907	-1.135264	0.664245
H	-1.591706	-0.918602	0.61447
H	-0.377167	-1.949619	0.082351
N	-0.055793	-0.881508	-2.365617
H	0.898897	-1.152483	-2.167738
H	-0.667553	-1.684135	-2.403391
N	-0.319344	1.453656	-2.092994
O	0.820577	1.917314	-2.122552
O	-1.304749	1.978624	-2.607085
H	-2.911236	0.0	0.0
