16

C	0.0	0.0	0.0
C	-0.420499	0.112412	-1.504504
Br	1.948829	0.0	0.0
H	0.369288	0.629689	-2.05656
C	-0.32042	1.287251	0.653923
N	-0.503875	2.284671	1.25098
N	-0.579852	-1.144718	0.622774
H	-1.602905	-1.051596	0.48815
H	-0.397541	-1.107944	1.621548
N	-1.662586	0.712092	-1.631415
H	-1.985864	0.750038	-2.590006
H	-2.440266	0.36271	-0.94545
N	-0.28959	-1.334145	-2.102281
O	0.787132	-1.610072	-2.63862
O	-1.26841	-2.068773	-2.063417
H	-3.330506	0.0	0.0
