16

C	0.0	0.0	0.0
C	-0.536794	0.24243	-1.434019
Br	1.951387	0.0	0.0
H	-1.609352	0.460124	-1.236077
C	-0.31287	1.133282	0.903626
N	-0.485034	1.951279	1.732384
N	-0.605416	-1.218558	0.425309
H	-0.418682	-1.344557	1.417057
H	-1.650904	-0.954274	0.342863
N	-0.421884	-0.85795	-2.329704
H	-1.060558	-1.569284	-1.994046
H	0.518261	-1.238646	-2.297975
N	0.099595	1.456052	-2.02897
O	-0.20097	2.537911	-1.522869
O	0.888168	1.307984	-2.960506
H	-2.89879	0.0	0.0
