16

C	0.0	0.0	0.0
C	-0.385802	0.095956	-1.515917
Br	2.011301	0.0	0.0
H	0.456196	0.500841	-2.080716
C	-0.278715	1.295509	0.650529
N	-0.455287	2.277855	1.273877
N	-0.622061	-1.118333	0.613039
H	-1.651795	-0.944614	0.474462
H	-0.444812	-1.09559	1.613319
N	-1.562292	0.819786	-1.697834
H	-2.341043	0.482822	-1.038294
H	-1.867984	0.785243	-2.663061
N	-0.418673	-1.38021	-2.04062
O	0.667172	-1.938795	-2.185492
O	-1.509143	-1.860863	-2.326783
H	-3.177821	0.0	0.0
