18

C	-0.333078	-0.094505	-1.479622
C	0.0	0.0	0.0
F	0.051339	1.070114	-2.087889
H	1.097095	0.0	0.0
C	0.338888	-1.254632	-2.159209
H	1.408801	-1.14211	-1.956101
H	0.143744	-1.221229	-3.233299
H	-0.013085	-2.200118	-1.752003
N	-1.851841	-0.150298	-1.671612
O	-2.374084	-1.264024	-1.6413
O	-2.454512	0.915151	-1.785564
C	-0.451903	-1.18284	0.70868
N	-0.784291	-2.132343	1.318519
C	-0.474073	1.284069	0.672086
H	-0.044661	1.325249	1.675766
H	-1.562609	1.353281	0.742933
H	-0.096502	2.137967	0.109644
H	2.691151	0.0	0.0
