18

C	-0.499805	-0.006834	-1.441964
C	0.0	0.0	0.0
F	-0.01866	-1.120874	-2.066345
H	1.095881	0.0	0.0
C	-2.000201	0.025089	-1.640962
H	-2.429578	0.924066	-1.203484
H	-2.429443	-0.86152	-1.171593
H	-2.220106	0.000724	-2.710188
N	0.0749	1.187693	-2.196582
O	-0.383316	2.286588	-1.883048
O	0.891601	0.978631	-3.078287
C	-0.471908	-1.230784	0.614853
N	-0.872407	-2.211583	1.127109
C	-0.393451	1.204446	0.854888
H	-1.473908	1.371602	0.909125
H	0.092105	2.102343	0.473209
H	-0.011235	1.027619	1.862544
H	2.687041	0.0	0.0
