18

C	-0.427946	0.153209	-1.447612
C	0.0	0.0	0.0
F	-1.767026	0.480253	-1.554362
H	1.093812	0.0	0.0
C	0.411196	1.162926	-2.187782
H	0.233176	1.091778	-3.262774
H	0.126816	2.161472	-1.851147
H	1.464856	0.982951	-1.950986
N	-0.295493	-1.197959	-2.145716
O	-1.301698	-1.89718	-2.219047
O	0.820585	-1.49096	-2.560514
C	-0.538119	-1.197009	0.620308
N	-0.986821	-2.148011	1.147883
C	-0.366609	1.238704	0.824749
H	0.203175	2.095728	0.460838
H	-0.057682	1.068282	1.858241
H	-1.435369	1.460511	0.799419
H	2.698294	0.0	0.0
