18

C	-0.333672	-0.042929	-1.482249
C	0.0	0.0	0.0
F	0.045309	1.144843	-2.047987
H	1.097041	0.0	0.0
C	0.342723	-1.17645	-2.201723
H	0.146244	-1.107365	-3.274493
H	1.412499	-1.066984	-1.992899
H	-0.005266	-2.137003	-1.827935
N	-1.852383	-0.098067	-1.677102
O	-2.460573	0.9688	-1.737333
O	-2.370011	-1.214318	-1.700157
C	-0.451473	-1.206996	0.667585
N	-0.782506	-2.176345	1.246409
C	-0.473694	1.259928	0.716862
H	-0.096404	2.132983	0.184077
H	-0.043259	1.265899	1.72067
H	-1.562181	1.327077	0.791672
H	2.688189	0.0	0.0
