17
Coordinates from ORCA-job run
  C   -0.34039037591206     -0.67785309432628      0.34557884742155
  C   0.90489046860125     -0.07613284257076     -0.32452502976243
  Br  0.10027199025262     -2.44905841467949      1.03063828279172
  H   1.12111722008374     -0.76125541349582     -1.15381398216898
  N   -0.76758743524523      0.14167007238165      1.56258056421780
  O   0.05346109017102      0.91869052585749      2.03900352783355
  O   -1.90468564392856     -0.04929303502699      1.97610978730676
  C   -1.52410799320179     -0.78522048818885     -0.59490508618927
  H   -1.88868682370712      0.20971959368688     -0.85878078965718
  H   -2.33547843405408     -1.32937249038222     -0.11743608582069
  H   -1.22159768311733     -1.31362141644294     -1.50067972567557
  C   2.09408159151465     -0.09339435269130      0.53171030392955
  N   3.09962485754527     -0.08714464982750      1.13771885679650
  C   0.68190098529250      1.32787697971726     -0.90497637848877
  H   -0.11048025930175      1.31993949877269     -1.65397902590738
  H   1.59999343386412      1.65880767122203     -1.39335400739029
  H   0.43867301114275      2.04364185599415     -0.12089005923687
