17
Coordinates from ORCA-job run
  C   -0.42180158478179     -0.41753346288201      0.40551395080572
  C   0.60019422256445      0.27765577199777     -0.51677674272725
  Br  0.45431475577270     -1.22504884676562      1.92642233636671
  H   0.01028960522092      0.67671173687794     -1.35029783868838
  N   -1.36551441963555      0.69875375928444      0.87196442139581
  O   -1.47212952215641      0.96544106057405      2.05851264285763
  O   -1.95096660206055      1.25830677244120     -0.05290500224477
  C   -1.26036594960737     -1.45856217400974     -0.31331060202034
  H   -2.01571599105167     -1.86493772405460      0.36151686894070
  H   -1.75344860864340     -1.00000337175071     -1.17228218484672
  H   -0.62019385308669     -2.27388396076806     -0.65152072671289
  C   1.51611564478426     -0.72162913487655     -1.06503759129923
  N   2.25926899077314     -1.50472697335027     -1.52743321412208
  C   1.36292295589796      1.42951575124620      0.14147690796405
  H   2.03540783504497      1.88330423238704     -0.58824109704209
  H   0.66867778055253      2.19859698377756      0.48523244252032
  H   1.95294474041253      1.07703957987137      0.98716542885282
