13
Coordinates from ORCA-job run
  C   0.98324957068003     -0.54149939605871     -0.04260296186717
  C   -0.48452745596159     -0.25032977170436     -0.44249407763787
  Br  1.13767885085340     -2.41252615558243      0.47591270057195
  H   -0.74630138070465     -0.92004047930598     -1.26269952584649
  H   1.63867026207698     -0.40544779801437     -0.90480181048692
  C   1.39656953481743      0.31359207769333      1.05848001730903
  N   1.67852206051746      1.02266799028964      1.95249211629117
  N   -0.43188408849399      1.13764656062858     -1.05625551365822
  O   0.09562964378315      1.20374542832962     -2.16388414537324
  O   -0.85710307549652      2.07244741564608     -0.38979582904738
  N   -1.48017224876120     -0.28311375272177      0.56293341254989
  H   -1.68352495348113     -1.23016180668506      0.84878812805793
  H   -1.24880671982937      0.29301968748544      1.36192748913732
