13
Coordinates from ORCA-job run
  C   1.04427597434174     -0.51289116486679      0.09924498935747
  C   -0.36462488819493     -0.23671625685806     -0.42081582538979
  Br  1.15814754265194     -2.38852392692035      0.63645492192415
  H   -0.54866992907621     -0.89313257265005     -1.28585583221297
  H   1.76780572846407     -0.39019296984129     -0.70465255135323
  C   1.39056069679791      0.35277615102266      1.21642606971211
  N   1.70104180749696      1.06166460839051      2.09982862498808
  N   -0.38414212198764      1.15948797994886     -1.02502429221552
  O   0.66684327609591      1.57950194141923     -1.49912597959932
  O   -1.46966499758810      1.72467205950846     -1.05653256444320
  N   -1.33093769262539     -0.26984826896970      0.63181226077438
  H   -1.39268919998737     -1.20165636799624      1.02079264378308
  H   -2.23794619638890      0.01585878781277      0.28744753467476
