13
Coordinates from ORCA-job run
  C   0.98277413562115     -0.63417617553365     -0.04267492629350
  C   -0.45104631896950     -0.20420703859238     -0.34454857408216
  Br  0.96537962986498     -2.49169535036180      0.56514379151063
  H   -0.84899163679811     -0.86030328448232     -1.13466556012702
  H   1.57297028147879     -0.62700253718197     -0.95730804635404
  C   1.60528708565212      0.21852101351577      0.95862106643226
  N   2.11031562444972      0.92237080210863      1.75165446815316
  N   -0.40890657551229      1.16419756763838     -1.00846529685893
  O   0.59016164415101      1.43674634725959     -1.66667497646511
  O   -1.41231375890429      1.85630408056169     -0.89461212834963
  N   -1.22936754043306     -0.08657729961564      0.84853247781089
  H   -2.14102265658204      0.29759181849127      0.63828954721756
  H   -1.33523991401848     -0.99176994380758      1.28770815740589
