11
Coordinates from ORCA-job run
  C   0.15524776965117     -0.09184136686267      0.28615966256115
  C   -1.11646358762589      0.47515998563382     -0.30971700208414
  F   -0.17519164594384     -0.59013762912382      1.56495246253807
  H   -1.53944411031095      1.22064843774501      0.36270519642937
  H   -0.90833211108926      0.92599571086994     -1.27934460489113
  H   -1.83972462028668     -0.33437282852925     -0.43128489449710
  N   0.72170084878242     -1.08693923344233     -0.54515066435344
  H   0.04620418800781     -1.81463312790668     -0.74261162777344
  H   1.54961416512779     -1.49292877700943     -0.12779980188087
  C   1.16118332947764      0.96743668888074      0.51870891777611
  N   1.94520577420980      1.82061213974466      0.70238235617542
