11
Coordinates from ORCA-job run
  C   0.15304294614132     -0.09301832573896      0.37301320176249
  C   -1.21474366598755      0.32499517916188     -0.12186338527788
  F   0.07280227492156     -0.35257788295654      1.73260881824277
  H   -1.17839326743328      0.61290312468750     -1.17422062089613
  H   -1.57257822790520      1.17192691301118      0.46322574048696
  H   -1.89163940618094     -0.52009904472168      0.00640127416539
  N   0.57913511138607     -1.30126158351876     -0.26358601872560
  H   1.54403750725089     -1.51320010036189     -0.04143085280048
  H   0.47403368845253     -1.24154425531538     -1.26766566444425
  C   1.12772135300201      1.02498253165435      0.23297333120372
  N   1.90658168635259      1.88689344409832      0.06054417628301
