11
Coordinates from ORCA-job run
  C   0.07912649185136     -0.13797812582333      0.38145341740526
  C   -1.14803138404293      0.44432689132779     -0.28571866312585
  F   -0.25164370107522     -0.50345179606142      1.67745677818907
  H   -1.53220559397008      1.27045210570615      0.31226308667269
  H   -0.91143473025122      0.81246523186398     -1.28587224054031
  H   -1.90091906797571     -0.34163768482824     -0.35050351160154
  N   0.51502785079548     -1.32188674319494     -0.29322201869194
  H   0.59125189400807     -1.16793328721812     -1.28968400590749
  H   1.40685722248315     -1.64095074569366      0.06472659692283
  C   1.14549467166877      0.89396331701719      0.51350932316726
  N   2.00547634650834      1.69263083690460      0.55659123751004
