11
Coordinates from ORCA-job run
  C   0.15185840891821     -0.07364610617351      0.29278174859219
  C   -1.11433427238190      0.44952187080849     -0.35287971034286
  F   -0.19414666455217     -0.49785513559674      1.59414189636444
  H   -1.55002280137277      1.23170549196514      0.26773701747417
  H   -1.83188813690413     -0.36997518316704     -0.43482768639995
  H   -0.89562133782792      0.84248284871848     -1.34505176480871
  N   0.73531587601404     -1.11256296107608     -0.47016706250209
  H   0.06611089105922     -1.85376453046786     -0.63530645500309
  H   1.55797408925673     -1.48945152615683     -0.01643697787704
  C   1.14864146078766      1.00358886289315      0.47748113884373
  N   1.92611248700303      1.86995636825278      0.62352785565922
