11
Coordinates from ORCA-job run
  C   0.14809535480384     -0.07185412816496      0.37939895858047
  C   -1.21641123815889      0.29982832179204     -0.15944176520481
  F   0.04793792426632     -0.26375061701080      1.74899429908511
  H   -1.16565418488702      0.53279137654016     -1.22480449109663
  H   -1.59648394992309      1.17055797855249      0.37454368314826
  H   -1.88373181956899     -0.54745083761862      0.00131835176124
  N   0.60283584789158     -1.30407203738911     -0.18757200823233
  H   1.56601058671742     -1.49003169934411      0.06298278498667
  H   0.51497761399066     -1.29695302101531     -1.19484091557543
  C   1.10800851697493      1.05296635824189      0.19983516972583
  N   1.87541534789324      1.91896830541631     -0.00141406717837
