15
Coordinates from ORCA-job run
  C   0.76884047230978     -0.28033167125662      0.25831606945182
  C   -0.53923081413448      0.48020832011489     -0.02568111768784
  F   0.48810470768089     -1.35683829435798      1.07160352450954
  H   -0.29095457222882      1.32332239458083     -0.68306214015731
  C   1.71900133742374      0.58480100787575      1.00534973701870
  N   2.51141659321054      1.28620160722259      1.51624155992886
  N   1.30856304058775     -0.80484785141864     -0.96140614734601
  H   2.15124284615215     -1.33303645625818     -0.76353811052280
  H   1.54088103033926     -0.05660412846432     -1.60389559744814
  C   -1.06100130198720      1.03459727072664      1.22561381071082
  N   -1.51184457126057      1.46575743788754      2.22008565108642
  C   -1.58047611224434     -0.42179757919017     -0.69537289720680
  H   -2.48942006795079      0.14905894054299     -0.89062773830639
  H   -1.19002724715320     -0.81440410422873     -1.63261352623921
  H   -1.82609534074470     -1.25708689377657     -0.04001307779166
