15
Coordinates from ORCA-job run
  C   0.82814631750921     -0.14678975435911     -0.45928397992807
  C   -0.66637776936823      0.22772904651112     -0.44727776872183
  F   1.35438071549334      0.36840982034084     -1.65639499709892
  H   -1.07060338680000     -0.08859343577882     -1.41443901203323
  C   0.97638419911141     -1.61340321962772     -0.54175662532839
  N   1.07873104269234     -2.78024364077162     -0.61728150704514
  N   1.49445090822768      0.33299496275220      0.68661834603837
  H   1.43173455221918      1.34312152402454      0.74728520193235
  H   2.46455874774199      0.04572608781564      0.70528039952984
  C   -0.76278215170837      1.68720831929078     -0.37143284051441
  N   -0.82001698391263      2.85478029798301     -0.26112434538387
  C   -1.43402041268859     -0.43460620831060      0.69849717027214
  H   -1.00415030731042     -0.14690872229221      1.65733282320445
  H   -1.38843463119082     -1.52076228643109      0.60268504876851
  H   -2.48100084001608     -0.12966279114700      0.67029208630821
