15
Coordinates from ORCA-job run
  C   0.78857944138700     -0.23250552048352      0.24596999358008
  C   -0.56484805577591      0.45039547912600     -0.02273509031970
  F   0.58639906055556     -1.30086094632959      1.09264346962754
  H   -0.37652889950587      1.29066676663032     -0.70314457120476
  C   1.70835344583567      0.70158890498009      0.94691320146711
  N   2.47350317560405      1.45754646720236      1.42016011308405
  N   1.32607701344561     -0.75923944445806     -0.97363206669361
  H   2.20120911512565     -1.23537541805767     -0.78437035352195
  H   1.50174823652134     -0.01640287228973     -1.64006772359389
  C   -1.08667084162278      1.00293004021615      1.22933464517174
  N   -1.53625558204753      1.43047358426560      2.22591917867417
  C   -1.57101049428114     -0.52046006416502     -0.64832530057891
  H   -1.75380908893628     -1.35450020003800      0.02880471261617
  H   -1.18309168942815     -0.91001897120991     -1.58788351287474
  H   -2.51465483687720     -0.00423780538901     -0.83058669543329
