15
Coordinates from ORCA-job run
  C   0.43239104062273     -0.91242875560469     -0.43435158368264
  C   -0.37740282807744      0.33144708983930     -0.10040295846923
  F   0.57628933839228     -1.72970483813075      0.63292648054354
  H   -0.60597342510175      0.81240208330877     -1.06002604237966
  H   0.00918612736347     -1.47843480920254     -1.26915671993797
  N   1.80732292729610     -0.48336821509107     -0.89296530443774
  O   2.78690823707069     -0.91906364549394     -0.31140055291315
  O   1.79952335518871      0.29561712006440     -1.84438212002273
  N   0.42012523918545      1.17439929674214      0.78225011160680
  H   -0.17720376583022      1.71544376081325      1.39249503403699
  H   0.98549278490250      1.82038176612136      0.24599471629434
  C   -1.67104815810811     -0.08272202131211      0.58427358505639
  H   -1.45026570833116     -0.51481606780692      1.56118739534642
  H   -2.21973422684190     -0.82008366118630     -0.00576103457848
  H   -2.31661093773133      0.78793089693909      0.72031899353711
