15
Coordinates from ORCA-job run
  C   0.48545029708653     -0.90739326058105     -0.32656194345872
  C   -0.33628486794329      0.35272267397478     -0.14631566491017
  F   0.71725752458890     -1.50141760506013      0.87596615826485
  H   -0.45783856182614      0.77927889310878     -1.14573262297364
  H   0.03157946766392     -1.63212201864008     -1.00536199695511
  N   1.81150131318727     -0.53795396247776     -0.94350352103877
  O   2.82731644666200     -0.68632958497133     -0.28495229868036
  O   1.72321022039671     -0.10786739287731     -2.08878549145817
  N   0.46897660516379      1.28228199390199      0.63232276759848
  H   0.05127069955756      2.20334193766381      0.62549486052761
  H   0.53163406222087      0.97135695774593      1.59445495504888
  C   -1.70428264022390      0.00618161345592      0.43951332363950
  H   -2.30167390818997      0.91441167916257      0.54439000254988
  H   -1.59339397333691     -0.44683362480138      1.42703049772463
  H   -2.25672268500735     -0.68965829960473     -0.19895902587890
