15
Coordinates from ORCA-job run
  C   0.98358998222054     -0.07640057382202     -0.51727604537170
  C   -0.41928514357859      0.36426927684278     -0.15815358141977
  F   1.31943007753237      0.41003913312253     -1.74782865703346
  H   -1.07105271144715     -0.00501471374303     -0.96480647311825
  H   1.72700790841184      0.23508349801449      0.21540906812914
  N   1.03398890636005     -1.57521414959222     -0.58753609687823
  O   0.52514651366771     -2.10380675973824     -1.56976183698095
  O   1.53268573323387     -2.14703600163196      0.37983855872108
  N   -0.36298003169384      1.81914182599484     -0.06531976887844
  H   -0.22593898365434      2.22042699118902     -0.98498187579080
  H   -1.23916399448147      2.17271713240090      0.29826006382243
  C   -0.86074124253331     -0.22391081356009      1.17184075852145
  H   -0.16716193183767      0.06481718397892      1.96423530594140
  H   -0.92423118197948     -1.31209672319245      1.13629935987394
  H   -1.85229390022052      0.15598469373654      1.42978122046217
