15
Coordinates from ORCA-job run
  C   0.94352312332988     -0.10245880278054     -0.58361135489168
  C   -0.42850939429445      0.35975798524916     -0.14203472026823
  F   1.19025538609577      0.32938043281094     -1.85466148502491
  H   -1.13845707770381     -0.03895987681896     -0.88293345818981
  H   1.73913063012095      0.23621723152452      0.07900349036854
  N   0.98518149240536     -1.60314013987249     -0.59293568028422
  O   1.55304586770333     -2.13693926356853      0.35769651668270
  O   0.40299659644542     -2.16917224245896     -1.51170587328938
  N   -0.36403663007284      1.81698003598774     -0.11413780875892
  H   -0.28579766637154      2.17801402705735     -1.05716473127132
  H   -1.21523683819089      2.18897133284034      0.28843994585791
  C   -0.77354266000831     -0.17083327325164      1.23982549774315
  H   -0.84272519596671     -1.25911440885744      1.25425457053474
  H   -0.02340257037288      0.14659829041633      1.96703332299646
  H   -1.74242506311929      0.22569867172219      1.55293176779497
