15
Coordinates from ORCA-job run
  C   0.49310026943096     -0.50585281794453     -1.01908033533871
  C   -0.52029205541844      0.41859288495849     -0.35961891581526
  F   -0.12825002915824     -1.57591547518857     -1.57617845743517
  H   -1.30672111100518      0.51388186749702     -1.11684779155603
  H   1.09502775417100      0.01581308129105     -1.76377249894928
  N   1.45659989355270     -1.02272227388229      0.02363619002514
  O   1.39608260361001     -2.19883019252857      0.34911663673781
  O   2.20339533414634     -0.16832419396250      0.49677616621991
  N   0.07557517101949      1.73766862778988     -0.19654653410400
  H   0.80171905311823      1.70672426807401      0.50911988599073
  H   -0.63283698461581      2.39280286616840      0.11008076424093
  C   -1.11833480233728     -0.21563606596458      0.89533816269910
  H   -1.95798950033100      0.38688958361365      1.24845127754388
  H   -1.48116209364105     -1.22791732014607      0.70087145330911
  H   -0.37691350254172     -0.26017483977539      1.69765399643184
