15
Coordinates from ORCA-job run
  C   0.46445771353106     -0.52519430614003     -1.02269607642258
  C   -0.52113131220606      0.42250223669341     -0.35402765715907
  F   -0.18428177232590     -1.59196991237905     -1.55428626395313
  H   -1.32167378912590      0.52003510410581     -1.09605985965536
  H   1.05886480209886     -0.02158328102706     -1.78562951293903
  N   1.44091814840108     -1.04460522471636      0.00642244109503
  O   1.36934109826188     -2.21578732647981      0.34713711590387
  O   2.21005337353984     -0.19623609416340      0.45409721646690
  N   0.09781539197065      1.73411355013957     -0.21963971091636
  H   -0.59345249424649      2.40352883518822      0.09513221241519
  H   0.83904006890689      1.69968776959482      0.47002525075199
  C   -1.10265411723373     -0.18712671549198      0.92073035631967
  H   -1.48669613287394     -1.19515112402242      0.74589271856639
  H   -0.34527750816588     -0.23504683158767      1.70779726021375
  H   -1.92432347053237      0.43383332028595      1.28410450931271
