15
Coordinates from ORCA-job run
  C   0.99931397284746     -0.03801292314729     -0.35959326338375
  C   -0.46369411007160      0.36738647808999     -0.24904785463373
  F   1.54714170444769      0.50755896097488     -1.48482888806183
  H   -0.93449940656957      0.03305120545855     -1.18017482020784
  H   1.59770902976957      0.24679616836888      0.50736289656197
  N   1.10360290592793     -1.53067995105931     -0.47534597680105
  O   0.77824391212559     -2.02539310548200     -1.54905177936451
  O   1.44424836690285     -2.13372901372185      0.54042926582568
  N   -0.61680857845825      1.81094778950734     -0.17005334757447
  H   -0.14072793897083      2.26338125602161     -0.94071151552711
  H   -0.22800493763097      2.16410323807724      0.69711931136895
  C   -1.13856170519925     -0.29764461490258      0.93924616028762
  H   -1.17545208113361     -1.38288854302887      0.83848523093003
  H   -2.15803157906973      0.08087586338502      1.01563859727588
  H   -0.61347955491726     -0.06375280854163      1.87052598330416
