15
Coordinates from ORCA-job run
  C   0.45634401313116     -0.44056472298728     -0.98530613169020
  C   -0.59088141338771      0.43013102457900     -0.27648924695072
  F   -0.13551872257728     -1.51408847862916     -1.57012422839338
  H   -1.37539326001288      0.55680276510204     -1.03147708552732
  H   1.03300696627113      0.11036439986330     -1.73084796843613
  N   1.45634329667652     -0.94519539988616      0.02077324189035
  O   2.23285835221477     -0.08878628483440      0.44225201936509
  O   1.38968616736839     -2.11112428922297      0.38164571487266
  N   -0.13324933467298      1.74997968265635      0.11186147908880
  H   0.14493311399518      2.29252625971905     -0.69699103041807
  H   0.67002918093143      1.67713078128376      0.72467972373766
  C   -1.17673212610975     -0.30010217372234      0.92310891430010
  H   -1.49048884067893     -1.31184281084263      0.66167811300515
  H   -0.44467549630502     -0.36592675718761      1.73293659430022
  H   -2.03526189684402      0.25969600410906      1.29329989085580
