15
Coordinates from ORCA-job run
  C   0.43923608188439     -0.84774191264831     -0.54429290942847
  C   -0.37187294188934      0.34681985571515     -0.06444470120711
  F   0.54579024661269     -1.80613390019983      0.40312800748156
  H   -0.56792147608843      0.95839221360028     -0.95428828761440
  H   0.03722546591594     -1.28829936823751     -1.46123446387851
  N   1.82986940923620     -0.37422957831733     -0.89948453728861
  O   2.78886617947144     -0.90031668532944     -0.35989028404114
  O   1.85594282483088      0.53187027623670     -1.73031589634181
  N   0.40507419941960      1.05076905147660      0.94859077680865
  H   -0.20530929112029      1.50250577784109      1.61579482913129
  H   0.98603207025470      1.76267270676480      0.52428759564844
  C   -1.68825048751603     -0.14408554554563      0.51848554577329
  H   -2.22529112427053     -0.78392888397189     -0.18514919173148
  H   -2.33056901598369      0.70624538848508      0.75861487750892
  H   -1.49982214075751     -0.71253939586975      1.43019863917939
