15
Coordinates from ORCA-job run
  C   0.46418478886273     -0.79213983602155     -0.45913945519834
  C   -0.43043117167850      0.37894162444863     -0.05803467913570
  F   0.73203663549114     -1.57753591041985      0.61783865681609
  H   -0.59034012521926      0.97153449960267     -0.96368175132867
  H   0.05731241077504     -1.40533645629496     -1.26557039161809
  N   1.76462746780401     -0.23858114837492     -0.97728092020872
  O   2.75909893780315     -0.31435712932685     -0.26846603523735
  O   1.68022744185403      0.30600641969962     -2.07465947995517
  N   0.16733949017189      1.24195950330846      0.94480319917786
  H   0.48086963812403      0.69515104950797      1.73799553564171
  H   0.96176485708889      1.75170812460271      0.57894368706336
  C   -1.76284494562945     -0.15810680306114      0.44684236472311
  H   -1.61906722593426     -0.74550347642072      1.35619365154258
  H   -2.41768515254573      0.68094050356199      0.68061857330686
  H   -2.24909304696772     -0.79268096481206     -0.29840295558954
