15
Coordinates from ORCA-job run
  C   0.99297041263447     -0.18227229103947     -0.47034151618082
  C   -0.35577866549537      0.42815308635433     -0.15393775460983
  F   1.46457015139620      0.32410950974180     -1.64701955375869
  H   -1.00263846822572      0.20161031205204     -1.01547807921355
  H   1.72707103637397     -0.02068542923862      0.31812301871428
  N   0.84263167536401     -1.66632178278958     -0.63725768015301
  O   0.32561393814353     -2.05914223416075     -1.67727213862068
  O   1.20027579200326     -2.35858874208227      0.31351690866045
  N   -0.10825187238106      1.85283947492714      0.03861235662395
  H   -0.95148960173210      2.30425812125385      0.37054058965151
  H   0.14486302724088      2.28273354066067     -0.84279384204279
  C   -0.95129271276838     -0.17038682129945      1.10980696124454
  H   -1.89430646941041      0.32964296140691      1.34372677886452
  H   -1.16225911049416     -1.23449949934077      0.99762905152011
  H   -0.27197913264913     -0.03045020644586      1.95314489930002
