15
Coordinates from ORCA-job run
  C   0.95239560502096     -0.12852229942469     -0.45401329692558
  C   -0.45029580574151      0.40852743553608     -0.20590664929853
  F   1.43568663689330      0.36620264072263     -1.63121766973024
  H   -1.03707042494767      0.11963564083349     -1.08490389964127
  H   1.65557520667490      0.09939953046509      0.34871175668254
  N   0.90856768450124     -1.62423819832637     -0.56723402958891
  O   0.43591128744413     -2.08628353218177     -1.60007734004599
  O   1.29024856241058     -2.25652499122773      0.41577314121640
  N   -0.46356451888100      1.85988913726587     -0.12353544083759
  H   -0.02701974601987      2.26751424382263     -0.94120766735020
  H   0.04021285626510      2.17546250196775      0.69777343427930
  C   -1.06450800800030     -0.19421609483255      1.04677882774559
  H   -0.43319981793627     -0.00945951553130      1.92143390014089
  H   -1.20808905410993     -1.27167029270185      0.95866448646798
  H   -2.03385046357365      0.27428379361272      1.21796044688562
