15
Coordinates from ORCA-job run
  C   0.46873244663493     -0.53265956396275     -1.01688905696689
  C   -0.51619077170439      0.42349438631941     -0.35935841636972
  F   -0.18202131238556     -1.59829235842492     -1.54798135939942
  H   -1.31108719046214      0.52213791355032     -1.10731340888234
  H   1.07098799648611     -0.03536207481276     -1.77785479404289
  N   1.43544004544883     -1.05264165589834      0.02132837860695
  O   2.20467796345155     -0.20590227608657      0.47192545791538
  O   1.35620733427120     -2.22238635662078      0.36537788023092
  N   0.10863720656627      1.73227998152376     -0.22649543790113
  H   -0.58155369529389      2.40760544367231      0.07770019653420
  H   0.84379486327834      1.69801993440380      0.46955757659859
  C   -1.11007672722512     -0.17742372746555      0.91386688095427
  H   -0.35886797939407     -0.22471986588642      1.70689546687450
  H   -1.93182193476010      0.44861447015437      1.26821600260461
  H   -1.49685824491196     -1.18476425046588      0.74102463324298
