12

C	-0.367559	-0.094407	-1.449313
C	0.0	0.0	0.0
Br	-2.291642	-0.16736	-1.837683
H	1.095855	0.0	0.0
H	0.076166	-0.959066	-1.937453
H	-0.351639	0.938049	0.432055
N	0.161628	1.104454	-2.192428
O	0.666753	0.884664	-3.288949
O	0.025798	2.202641	-1.666762
C	-0.497991	-1.14081	0.739313
N	-0.869092	-2.0739	1.350891
H	2.656924	0.0	0.0
