12

C	-0.425842	-0.077708	-1.440874
C	0.0	0.0	0.0
Br	0.086549	-1.769147	-2.233732
H	1.092605	0.0	0.0
H	0.019899	0.710394	-2.044742
H	-0.368094	-0.86218	0.559535
N	-1.917089	0.063131	-1.609789
O	-2.301184	0.944898	-2.378111
O	-2.63956	-0.684406	-0.959568
C	-0.48874	1.23154	0.597458
N	-0.882287	2.231436	1.074744
H	2.682335	0.0	0.0
