12

C	-0.566205	0.076828	-1.392608
C	0.0	0.0	0.0
Br	0.35505	1.404524	-2.502914
H	1.091197	0.0	0.0
H	-1.617419	0.349464	-1.462141
H	-0.294492	-0.948359	0.458653
N	-0.470212	-1.251306	-2.095175
O	-1.283259	-1.439975	-3.002109
O	0.397486	-2.037987	-1.73357
C	-0.510857	1.101498	0.795878
N	-0.912396	2.002392	1.435715
H	2.656345	0.0	0.0
