12

C	-0.431577	-0.030454	-1.441094
C	0.0	0.0	0.0
Br	0.085413	-1.688171	-2.298789
H	1.091808	0.0	0.0
H	0.003682	0.78222	-2.018949
H	-0.366657	-0.880211	0.532199
N	-1.924816	0.104912	-1.595415
O	-2.636761	-0.664886	-0.960842
O	-2.321009	1.00251	-2.338186
C	-0.486075	1.212424	0.637744
N	-0.859587	2.204639	1.146704
H	2.682645	0.0	0.0
