14

C	0.0	0.0	0.0
C	-0.603648	0.250561	-1.361701
F	1.356296	0.0	0.0
H	-0.298723	1.265832	-1.634614
H	-1.693654	0.243078	-1.221189
C	-0.442919	0.985301	0.998566
N	-0.673721	1.838184	1.77188
N	-0.361591	-1.393844	0.540469
O	0.12744	-1.659504	1.634567
O	-1.040075	-2.133395	-0.157632
N	-0.088173	-0.701031	-2.343528
H	-0.737483	-1.473303	-2.401083
H	-0.060692	-0.25273	-3.248409
Br	-3.899241	0.0	0.0
