14

C	0.0	0.0	0.0
C	-0.641626	0.137573	-1.355161
F	1.356534	0.0	0.0
H	-1.723436	0.087901	-1.173049
H	-0.417032	1.14916	-1.707082
C	-0.448324	1.03826	0.940549
N	-0.706934	1.933643	1.653809
N	-0.350989	-1.365438	0.631461
O	0.199786	-1.580626	1.708456
O	-1.093145	-2.120666	0.024116
N	-0.134115	-0.876893	-2.271241
H	-0.870609	-1.546936	-2.45125
H	0.123299	-0.450344	-3.147904
Br	-3.926591	0.0	0.0
