14

C	0.0	0.0	0.0
C	-0.573119	0.260031	-1.376173
F	1.356417	0.0	0.0
H	-1.664037	0.209934	-1.269972
H	-0.298747	1.294291	-1.60732
C	-0.441563	1.002428	0.981785
N	-0.671414	1.879777	1.727308
N	-0.373705	-1.383114	0.542666
O	-0.819621	-2.207644	-0.242078
O	-0.106018	-1.570118	1.724788
N	0.016635	-0.628657	-2.37715
H	-0.009842	-0.155045	-3.269743
H	-0.57067	-1.448857	-2.451726
Br	-3.808456	0.0	0.0
