18

C	-0.346905	0.026694	-1.482575
C	0.0	0.0	0.0
F	-0.218258	-1.240327	-2.007494
H	1.097164	0.0	0.0
N	-1.837723	0.334698	-1.694348
O	-2.159553	0.973516	-2.695788
O	-2.62356	-0.132656	-0.874312
C	0.510784	0.975679	-2.27344
H	0.320538	0.837004	-3.336576
H	0.2944	2.011473	-2.011383
H	1.553504	0.754873	-2.030897
C	-0.486429	-1.202373	0.667554
N	-0.843975	-2.159294	1.246616
C	-0.427228	1.266024	0.749209
H	-1.512584	1.358114	0.817462
H	-0.009741	2.149517	0.262717
H	-0.011104	1.227996	1.756887
Cl	3.34365	0.0	0.0
