18

C	-0.494388	-0.029886	-1.446947
C	0.0	0.0	0.0
F	-0.150346	1.146106	-2.047174
H	1.095534	0.0	0.0
N	0.223245	-1.133094	-2.218317
O	0.786343	-0.834294	-3.260869
O	0.105234	-2.258372	-1.744272
C	-1.976468	-0.258672	-1.643699
H	-2.531887	0.546026	-1.159523
H	-2.19797	-0.241649	-2.713481
H	-2.277747	-1.215741	-1.220101
C	-0.513177	-1.130582	0.765401
N	-0.983664	-1.966006	1.444781
C	-0.413809	1.305862	0.695478
H	-1.498618	1.412987	0.781452
H	0.017667	1.309314	1.697333
H	-0.000247	2.152073	0.148491
Cl	3.280443	0.0	0.0
