18

C	-0.494648	0.062459	-1.446012
C	0.0	0.0	0.0
F	-0.011653	1.205767	-2.011733
H	1.095463	0.0	0.0
N	0.09311	-1.094946	-2.247602
O	0.869849	-0.838718	-3.154112
O	-0.32105	-2.207372	-1.929395
C	-1.99347	0.022813	-1.641397
H	-2.433592	0.913273	-1.190027
H	-2.216961	0.030088	-2.710877
H	-2.419427	-0.870244	-1.187298
C	-0.514702	-1.170188	0.700581
N	-0.98916	-2.060649	1.302839
C	-0.403939	1.267357	0.770446
H	0.089993	1.245404	1.742641
H	-0.04537	2.145176	0.233364
H	-1.48321	1.340473	0.926386
Cl	3.28557	0.0	0.0
