18

C	-0.494719	0.036597	-1.446725
C	0.0	0.0	0.0
F	-0.143968	1.236195	-1.994346
H	1.095528	0.0	0.0
N	0.217089	-1.035525	-2.266395
O	0.083369	-2.181697	-1.849544
O	0.795193	-0.691346	-3.286683
C	-1.978504	-0.175175	-1.652742
H	-2.199604	-0.111765	-2.720905
H	-2.285588	-1.148116	-1.269794
H	-2.529744	0.612198	-1.135055
C	-0.513345	-1.165035	0.712261
N	-0.994968	-2.035183	1.337712
C	-0.413349	1.272573	0.754522
H	-0.002512	2.143078	0.244876
H	0.021481	1.231689	1.754151
H	-1.497956	1.374266	0.848703
Cl	3.280385	0.0	0.0
