18

C	-0.449286	-0.096697	-1.459916
C	0.0	0.0	0.0
F	-1.785853	-0.408952	-1.531353
H	1.094384	0.0	0.0
N	-0.331389	1.296283	-2.067936
O	0.79381	1.650271	-2.398472
O	-1.354598	1.968994	-2.14653
C	0.363061	-1.07086	-2.269626
H	0.055507	-1.038281	-3.317737
H	0.183937	-2.07275	-1.875631
H	1.422662	-0.832443	-2.16686
C	-0.443706	-1.222555	0.668329
N	-0.817838	-2.189829	1.220392
C	-0.519475	1.236295	0.735562
H	-1.604739	1.327969	0.655781
H	-0.047691	2.131084	0.32623
H	-0.239129	1.168548	1.787525
Cl	3.315071	0.0	0.0
