18

C	-0.459273	-0.09981	-1.455294
C	0.0	0.0	0.0
F	-1.806837	-0.354139	-1.515578
H	1.094247	0.0	0.0
N	-0.274814	1.274584	-2.08651
O	0.874713	1.581319	-2.377957
O	-1.270536	1.978905	-2.224943
C	0.303256	-1.122158	-2.255065
H	1.373158	-0.934453	-2.156821
H	-0.003757	-1.083589	-3.302678
H	0.071172	-2.109997	-1.851837
C	-0.45242	-1.213198	0.67875
N	-0.839972	-2.171213	1.236861
C	-0.512579	1.246643	0.723543
H	-0.235489	1.187444	1.776887
H	-0.033089	2.133973	0.307138
H	-1.59697	1.345204	0.640107
Cl	3.309351	0.0	0.0
