18

C	-0.434843	-0.007089	-1.465869
C	0.0	0.0	0.0
F	-1.798481	-0.136523	-1.558281
H	1.094349	0.0	0.0
N	-0.110755	1.366385	-2.046384
O	-1.036599	2.164175	-2.164422
O	1.06461	1.569422	-2.322983
C	0.248961	-1.066948	-2.287521
H	-0.089263	-2.042429	-1.934071
H	-0.020532	-0.956232	-3.340113
H	1.328223	-0.984162	-2.156185
C	-0.483376	-1.246847	0.587975
N	-0.908189	-2.241274	1.048326
C	-0.509807	1.211666	0.782699
H	-1.591095	1.327352	0.685731
H	-0.014493	2.114346	0.422776
H	-0.252104	1.092376	1.835554
Cl	3.343664	0.0	0.0
