13

C	0.0	0.0	0.0
C	-0.191703	0.001247	-1.547249
F	1.408362	0.0	0.0
H	0.187355	-0.975011	-1.872511
H	0.518181	0.744237	-1.923991
C	-0.391222	1.293798	0.594424
N	-0.500417	2.373002	1.041429
N	-0.494424	-1.080664	0.759605
H	-1.509681	-0.92421	0.840524
H	-0.362763	-1.938024	0.233699
C	-1.449794	0.25486	-2.248224
N	-2.21546	0.483599	-3.110876
Cl	-3.341671	0.0	0.0
