13

C	0.0	0.0	0.0
C	-0.44333	-0.09746	-1.471551
F	1.384251	0.0	0.0
H	-0.031417	0.739488	-2.042242
H	-1.540803	-0.048658	-1.471521
C	-0.391676	1.334106	0.520735
N	-0.565035	2.425563	0.914009
N	-0.47856	-1.016866	0.872609
H	-0.300791	-1.92099	0.445842
H	-1.49466	-0.888853	0.931431
C	0.022781	-1.352683	-2.049956
N	0.432547	-2.360473	-2.491331
Cl	-3.471048	0.0	0.0
