13

C	0.0	0.0	0.0
C	-0.48759	0.277336	-1.421015
F	1.378831	0.0	0.0
H	-1.585909	0.250609	-1.415886
H	-0.161685	1.276222	-1.720997
C	-0.347696	1.161921	0.871903
N	-0.540641	2.097921	1.554169
N	-0.488853	-1.254356	0.450427
H	-0.22923	-1.398389	1.419908
H	-1.513245	-1.212295	0.39569
C	0.058907	-0.701678	-2.355933
N	0.478287	-1.46314	-3.144726
Cl	-3.504987	0.0	0.0
