13

C	0.0	0.0	0.0
C	-0.489167	-0.901354	-1.127993
F	1.381748	0.0	0.0
H	-1.583185	-0.812726	-1.178576
H	-0.22918	-1.92569	-0.846001
C	-0.338241	1.431888	-0.265516
N	-0.488753	2.590785	-0.383824
N	-0.492513	-0.495047	1.239504
H	-0.285213	0.177541	1.9699
H	-1.515281	-0.535786	1.145946
C	0.13675	-0.572868	-2.403129
N	0.647468	-0.307242	-3.426045
Cl	-3.501042	0.0	0.0
