13

C	0.0	0.0	0.0
C	-0.44807	0.269647	-1.433898
F	1.37674	0.0	0.0
H	-1.543461	0.297354	-1.458305
H	-0.086215	-0.577242	-2.023588
C	-0.365336	1.128637	0.904335
N	-0.57615	2.029264	1.628038
N	-0.462947	-1.282674	0.412181
H	-1.488205	-1.240998	0.397611
H	-0.164591	-1.44356	1.368898
C	0.134321	1.503883	-1.950282
N	0.615196	2.484712	-2.379708
Cl	-3.443532	0.0	0.0
