13

C	0.0	0.0	0.0
C	-0.448098	-0.003795	-1.472145
F	1.384187	0.0	0.0
H	-0.054117	0.87736	-1.98657
H	-1.545956	0.027899	-1.461947
C	-0.390287	1.294453	0.610416
N	-0.553162	2.356187	1.082442
N	-0.473752	-1.072492	0.806337
H	-1.489595	-0.954146	0.878293
H	-0.296876	-1.94781	0.322614
C	0.036296	-1.207037	-2.138353
N	0.457875	-2.178674	-2.644253
Cl	-3.474274	0.0	0.0
