12

C	-0.578251	0.046422	-1.392584
C	0.0	0.0	0.0
F	-0.067537	-1.039997	-2.12522
H	1.089411	0.0	0.0
H	-0.369044	0.851927	0.57344
H	-0.341924	-0.925656	0.474006
N	-2.008302	0.002914	-1.365544
H	-2.299025	-0.801985	-0.823336
H	-2.369453	-0.087266	-2.307847
C	-0.190218	1.263112	-2.143768
N	0.042857	2.230468	-2.765459
Br	3.704044	0.0	0.0
