12

C	-0.365608	-0.055762	-1.4697
C	0.0	0.0	0.0
F	-0.249452	1.257344	-1.994915
H	1.092368	0.0	0.0
H	-0.403369	0.901114	0.459075
H	-0.357483	-0.890583	0.518136
N	0.475175	-0.975486	-2.133688
H	1.441707	-0.835262	-1.842262
H	0.390529	-0.897342	-3.138579
C	-1.787585	-0.412477	-1.711975
N	-2.916241	-0.686189	-1.883258
Br	3.638514	0.0	0.0
