12

C	-0.575002	0.002743	-1.393043
C	0.0	0.0	0.0
F	-0.124294	-1.099685	-2.098214
H	1.089796	0.0	0.0
H	-0.344572	0.883134	0.54596
H	-0.366435	-0.898999	0.499983
N	-2.015739	-0.101624	-1.354405
H	-2.387587	0.576116	-0.701569
H	-2.406522	0.083213	-2.270447
C	-0.145102	1.199855	-2.169891
N	0.093495	2.199731	-2.737872
Br	3.698266	0.0	0.0
