12

C	-0.395063	0.168734	-1.450861
C	0.0	0.0	0.0
F	-1.724426	0.618876	-1.552737
H	1.091709	0.0	0.0
H	-0.352601	0.879936	0.540393
H	-0.408185	-0.90789	0.441195
N	0.452822	1.137789	-2.060907
H	0.435358	1.076209	-3.069947
H	1.408442	1.03681	-1.724617
C	-0.413335	-1.136122	-2.172107
N	-0.415818	-2.161195	-2.745385
Br	3.607879	0.0	0.0
