12

C	-0.38759	0.165921	-1.453082
C	0.0	0.0	0.0
F	-1.724902	0.584539	-1.568109
H	1.091717	0.0	0.0
H	-0.408101	-0.9086	0.439226
H	-0.355409	0.880486	0.537604
N	0.445117	1.157607	-2.049987
H	0.437498	1.100042	-3.059398
H	1.400353	1.065393	-1.71062
C	-0.360572	-1.135781	-2.180446
N	-0.304512	-2.155698	-2.761699
Br	3.611955	0.0	0.0
