18
Coordinates from ORCA-job run
  C   0.93825960573718     -0.01370838416858     -0.04128155344970
  C   -0.51131273618355     -0.00691330808147     -0.52187253602473
  F   1.60558790131813     -1.00479790857364     -0.84843793633297
  H   -0.46501897282241      0.17026360026252     -1.60476966571698
  N   1.56401869969128      1.24710672255313     -0.24551010943914
  H   1.40967468999115      1.54704004454730     -1.20021581186102
  H   2.56501362331608      1.15307202613083     -0.11175473049648
  N   1.04515420296951     -0.39232666688456      1.32977093369498
  H   1.93903495680043     -0.11104371081437      1.71260977542102
  H   0.96231267198988     -1.39739075474252      1.40936107921265
  C   -1.30591402933706      1.11107219513235      0.14536353210866
  H   -0.89069210743067      2.09389084853211     -0.07894284874827
  H   -1.28567469517827      0.97892965534651      1.22859677474997
  H   -2.34594607824988      1.08845838892858     -0.19178395224046
  C   -1.17265832743517     -1.36252255146620     -0.28927731060951
  H   -2.15751668456109     -1.38503401589645     -0.76168733885294
  H   -0.57689633649488     -2.17474504770026     -0.70871104695900
  H   -1.31842638412064     -1.54035113310527      0.77954274554393
