18
Coordinates from ORCA-job run
  C   0.91163786733533      0.22464770047196      0.02897698182474
  C   -0.53506670263741      0.19081209761876     -0.45963712655535
  F   1.31169790330269      1.60740870644412     -0.05273066541327
  H   -0.52291388884966      0.65833332058646     -1.45336819350983
  N   1.02911359891100     -0.20706460054666      1.38319557323779
  H   1.98513732756978     -0.46051303782946      1.59887116518618
  H   0.74665711766912      0.54198580904291      2.00161585838961
  N   1.76377209288043     -0.55334536077853     -0.80280408854406
  H   2.73189874660712     -0.35019286548825     -0.57864801910051
  H   1.61328723762853     -0.29528795692747     -1.77031772930177
  C   -1.43954381757466      1.02104513551314      0.44654272603872
  H   -1.04875497523183      2.03021227317971      0.58587347298010
  H   -1.54894260397917      0.54184462383767      1.42316572580524
  H   -2.43748507379044      1.10061443967654      0.00899958444438
  C   -1.04283597912910     -1.24279057106654     -0.57470825286648
  H   -2.08672321597020     -1.24861236701154     -0.90031908597925
  H   -0.97590334221252     -1.73443310482278      0.39747727465322
  H   -0.45503229252902     -1.82566424190005     -1.28418520128946
