18
Coordinates from ORCA-job run
  C   0.86669063390335     -0.07629137206074      0.17008282347200
  C   -0.54202046492670      0.13915034405149     -0.38442285128834
  F   0.78196556671298     -1.04666723639001      1.19362272353545
  H   -0.40666586475965      0.74494627059093     -1.28895224241714
  N   1.72653467628658     -0.67264950383979     -0.82454148062870
  H   2.09643859678791      0.05941297810937     -1.41806952594200
  H   2.49574766840261     -1.13957202812822     -0.35879440167053
  N   1.41781803924294      1.13577624004065      0.69154372070633
  H   2.35639308768839      0.95598971062153      1.03023110269980
  H   0.86365522271665      1.47837810248232      1.46658954482880
  C   -1.43539310630914      0.90631716555705      0.58897159767003
  H   -1.11128047117482      1.94077673644617      0.72162313642820
  H   -1.45416864469488      0.40958508863742      1.56326406747050
  H   -2.46089340460899      0.93428104310351      0.21371475310093
  C   -1.17590844414911     -1.19361587727911     -0.77078591506421
  H   -0.50643897999826     -1.76904656702549     -1.40913090107223
  H   -1.39570923985185     -1.78492609423513      0.12044931637259
  H   -2.11376487126801     -1.02184500068196     -1.30539546820148
