18
Coordinates from ORCA-job run
  C   0.91655844981057     -0.11737213635921      0.28403531239715
  C   -0.47674710285763      0.09790766977944     -0.32879430480638
  F   0.74517747872879     -0.94768846475896      1.39422900248871
  H   -0.33015511926850      0.74376368390587     -1.20713491073904
  N   1.77114558467448     -0.78615867875600     -0.64122937283316
  H   2.73614704665449     -0.63453232149410     -0.37730270750244
  H   1.61622028789864     -0.48637907306069     -1.59291943482217
  N   1.57040407558693      1.05358442108915      0.83533353693923
  H   1.62711069900760      1.78039913780110      0.13210231168999
  H   1.05266264210744      1.40757884878838      1.63006589369427
  C   -1.40805955639680      0.81568838451351      0.64467097117847
  H   -1.49025479345571      0.24966284895957      1.57520858729101
  H   -2.40801683737327      0.90371991728759      0.21386178977175
  H   -1.06447803317594      1.82511371952491      0.88013024227563
  C   -1.09397477087344     -1.22497762926053     -0.78151716934791
  H   -1.24271892277633     -1.87809663097780      0.08034833197944
  H   -0.45709377006753     -1.75465512387338     -1.48995150710262
  H   -2.06492735822379     -1.04855857310886     -1.25213657255192
