18
Coordinates from ORCA-job run
  C   0.84287549403753      0.27466060081685      0.35081416911757
  C   -0.67636681456023      0.13600427080254      0.32948891906797
  F   1.12380348994861      1.57429569774065      0.83487224486859
  H   -0.97862992378525      0.41498487082114      1.34423162276999
  N   1.43510004027511     -0.60730471829319      1.33056606440702
  H   1.67669572866831     -1.48455511486506      0.88746418645483
  H   2.27913599353145     -0.17492888060338      1.68621617428189
  N   1.41328531996541      0.09594561004956     -0.94542391994519
  H   2.41707408526758      0.22652653895702     -0.89459242856355
  H   1.03617334083151      0.76830865506577     -1.60192006766917
  C   -1.09355511405634     -1.30753320057381      0.07063494287113
  H   -0.71617203083227     -1.96979821940820      0.85152551194791
  H   -0.71563836094987     -1.64986273751071     -0.89569095360207
  H   -2.18349456987028     -1.39026273158174      0.06091628199533
  C   -1.33003405784439      1.09367534061380     -0.66404209518888
  H   -0.94709342893127      2.10968271510659     -0.54828421206329
  H   -2.41005648019337      1.12209928211631     -0.50092098306172
  H   -1.17210271150223      0.76806202074587     -1.69685545768836
