18
Coordinates from ORCA-job run
  C   0.93917702911143      0.30215358116444      0.24650116851511
  C   -0.58652213927946      0.16710392255884      0.33766915512688
  F   1.21286962419348      1.63347026481836      0.64512706290903
  H   -0.83501851607994      0.48400011176673      1.35875848177318
  N   1.71218804813818     -0.50823187534302      1.14798250260596
  H   1.39515723283736     -0.37313454341805      2.09959824005153
  H   1.62123566994093     -1.48309141415996      0.89692556427631
  N   1.41966453609756      0.03976756801761     -1.06245782973008
  H   2.42675357727327      0.14906396687106     -1.06133664621413
  H   1.01652657095151      0.68228093451332     -1.73071893182006
  C   -1.04022736437638     -1.27582272722714      0.13928320034228
  H   -0.65114951904259     -1.93693587768921      0.91661992633910
  H   -0.70391464026548     -1.64931916075303     -0.83025479240385
  H   -2.13085965627687     -1.33908377413113      0.17380824496009
  C   -1.30399574505147      1.10253385223531     -0.63496724555242
  H   -0.90958234111196      2.11776308991929     -0.57134010916645
  H   -1.21051336002419      0.74729265078967     -1.66572042831547
  H   -2.37178900703535      1.13918943006693     -0.40547756369702
