18
Coordinates from ORCA-job run
  C   0.96792384609152      0.30982369226397     -0.01635340832219
  C   -0.50423162763105      0.19711447880652     -0.44111503034781
  F   1.26395794087589      1.69355564594275     -0.05891926475942
  H   -0.54817258554926      0.59012237372674     -1.46616824320668
  N   1.31105163233370     -0.09174669876512      1.32001709918437
  H   1.14018679208662     -1.08063421846536      1.44073574966454
  H   0.78048331150850      0.43583663615577      1.99979230096177
  N   1.80468405316190     -0.42267866765739     -0.89773658962259
  H   1.67649973894014     -0.11103239227319     -1.85201354783138
  H   2.76836788032588     -0.28029777740556     -0.62037526028280
  C   -1.41179642554943      1.06032534362149      0.43027808933094
  H   -2.43263284642867      1.04487798039387      0.04089240337721
  H   -1.45310848285936      0.67668498662057      1.45428332792242
  H   -1.07155508001547      2.09540773845585      0.45961744490756
  C   -0.97564875009719     -1.25420182597994     -0.45203804858645
  H   -0.32595166382614     -1.88277625008459     -1.06086302114634
  H   -1.99386170831679     -1.31915442505852     -0.84417806980808
  H   -0.99319602505080     -1.66222662029785      0.56314406856493
