18
Coordinates from ORCA-job run
  C   1.00668152574767     -0.06068469798721     -0.12623563718524
  C   -0.48167086685922     -0.02069985275818     -0.50514352859638
  F   1.55826305426201     -1.11718741156302     -0.89025306027937
  H   -0.50807172556863      0.19993613713419     -1.58112718670280
  N   1.63690746296362      1.17476062213503     -0.42631688456427
  H   2.62423677404984      1.09266266294481     -0.21578022882200
  H   1.51645449466059      1.40801903268826     -1.40370065022593
  N   1.34234023881927     -0.38468498385015      1.23289679753535
  H   0.99304592913207      0.32943100331587      1.85715454519209
  H   0.96176557363630     -1.28501071046451      1.49080798952615
  C   -1.22106054861174      1.08656065457494      0.24048105478932
  H   -2.25356808803050      1.15651198986011     -0.11134836730528
  H   -0.73880786998273      2.05428226263891      0.10326563492715
  H   -1.25841258136475      0.87178760241559      1.31279835319312
  C   -1.15692250983410     -1.37159866925679     -0.28778117533503
  H   -2.18243724765478     -1.34431053973679     -0.66400001333452
  H   -1.21230645935058     -1.61564334886159      0.77751064765486
  H   -0.62443715601434     -2.17213175322946     -0.80122829046720
