18
Coordinates from ORCA-job run
  C   0.89322309270108      0.07044464026322      0.14619588004600
  C   -0.54009231130438      0.17820216474153     -0.37720424601812
  F   0.83476976767718     -0.81480040843113      1.28911943413346
  H   -0.47194812983690      0.85016103977316     -1.23840713465418
  N   1.76643513183876     -0.48953988647791     -0.82818638438289
  H   2.72207017301098     -0.47568056236852     -0.49032581380631
  H   1.51482766907210     -1.45582061969502     -0.98724486354883
  N   1.39457725447422      1.33462945953096      0.56570227430015
  H   2.36959421162965      1.25348490677589      0.83091507599847
  H   0.88301485527005      1.64370360574833      1.38122853932732
  C   -1.47332943212069      0.79307575944095      0.66416890248392
  H   -2.49830803822547      0.80709113548481      0.28642646237689
  H   -1.46062724561289      0.20916749425578      1.58710037721239
  H   -1.20550252288920      1.82676050270725      0.89391263390019
  C   -1.07179409955318     -1.17667094463957     -0.84096313924946
  H   -0.51438919001036     -1.56366801591791     -1.69685509548501
  H   -1.02925683652417     -1.90669109451288     -0.02968416331092
  H   -2.11326434959679     -1.08184917667896     -1.15689873932308
