18
Coordinates from ORCA-job run
  C   0.96782043930631      0.32873992620949      0.00095068690064
  C   -0.44804726570352     -0.29294849875409      0.07958665967379
  F   0.80981242117816      1.50519616162173     -0.72932297563566
  H   -0.32951035520844     -1.22327239809105      0.65275832730976
  N   1.54333732805580      0.70990613189894      1.26354402185091
  H   0.88206954787818      1.25216537842286      1.80166734198045
  H   1.80887149562715     -0.10388122332066      1.80292163391460
  N   1.94682090981551     -0.45809427544028     -0.70010806844725
  H   2.24095763056783     -1.25232408077230     -0.14704296848044
  H   1.56962369526802     -0.79387194798659     -1.57515548262767
  C   -1.00316117428887     -0.63739362206408     -1.30310668853132
  H   -2.01852922430504     -1.03138854603899     -1.21679323679067
  H   -1.03840077009558      0.25523012961922     -1.93114561659794
  H   -0.41112737735077     -1.39879300226809     -1.81559385703161
  C   -1.43420706984410      0.61387879895578      0.81680501650921
  H   -1.49620709956249      1.58669850533859      0.32452460288466
  H   -2.43222604244819      0.16935053616680      0.81555783011106
  H   -1.15889708889000      0.77080202650272      1.86195277300747
