12

C	0.0	0.0	0.0
C	-0.535527	0.331707	-1.369706
F	1.411666	0.0	0.0
H	-0.139652	-0.368524	-2.105935
H	-1.628357	0.273985	-1.325069
H	-0.219632	1.34426	-1.636564
N	-0.500769	0.876174	0.976034
H	-0.575102	1.83173	0.666354
H	-0.048774	0.781808	1.872443
C	-0.31645	-1.401826	0.382737
N	-0.452714	-2.528576	0.680196
Br	-4.103559	0.0	0.0
