12

C	0.0	0.0	0.0
C	-0.466647	0.270779	-1.412557
F	1.386474	0.0	0.0
H	-1.552987	0.185001	-1.461316
H	0.005254	-0.440101	-2.093017
H	-0.158838	1.286524	-1.66855
N	-0.493854	0.991409	0.896124
H	-0.327201	0.702238	1.85402
H	-1.509069	1.027538	0.763482
C	-0.326789	-1.402448	0.407954
N	-0.505219	-2.520101	0.721692
Br	-3.780096	0.0	0.0
