12

C	0.0	0.0	0.0
C	-0.507856	0.328025	-1.383242
F	1.411596	0.0	0.0
H	-0.209576	1.350027	-1.633331
H	-0.06598	-0.356027	-2.11
H	-1.600803	0.246437	-1.380828
N	-0.518219	0.874305	0.961706
H	-0.500387	1.845275	0.699601
H	-0.199566	0.694815	1.899045
C	-0.313422	-1.402058	0.381883
N	-0.452738	-2.531113	0.666992
Br	-4.11726	0.0	0.0
