12

C	0.0	0.0	0.0
C	-0.463355	0.308409	-1.407682
F	1.38658	0.0	0.0
H	0.022733	-0.37547	-2.105692
H	-1.548043	0.206535	-1.465166
H	-0.170318	1.336083	-1.631022
N	-0.496216	0.965553	0.923186
H	-1.509716	1.018322	0.774351
H	-0.354073	0.636285	1.871486
C	-0.322341	-1.415148	0.36631
N	-0.496696	-2.542599	0.645524
Br	-3.767938	0.0	0.0
