12

C	0.0	0.0	0.0
C	-0.441838	-0.342673	-1.408243
F	1.386423	0.0	0.0
H	-0.027689	-1.310695	-1.6957
H	-1.528236	-0.362884	-1.46372
H	-0.04339	0.435914	-2.061587
N	-0.488248	1.284437	0.380397
H	-0.274392	1.461634	1.355534
H	-1.50549	1.250882	0.288532
C	-0.332254	-1.095406	0.963253
N	-0.49937	-1.972618	1.726856
Br	-3.799974	0.0	0.0
