19

C	-0.55299	0.01958	-1.424329
C	0.0	0.0	0.0
Br	0.404643	1.429391	-2.390852
H	1.0889	0.0	0.0
N	-0.167734	-1.268561	-2.157173
O	-0.848809	-1.570171	-3.133666
O	0.802612	-1.879373	-1.738253
C	-2.036842	0.269046	-1.577081
H	-2.288796	1.234683	-1.138609
H	-2.591293	-0.524884	-1.077158
H	-2.299944	0.281171	-2.632341
N	-0.434728	-1.241662	0.723596
O	-1.237641	-2.006145	0.179866
O	0.02133	-1.398532	1.84942
C	-0.457083	1.181633	0.847771
H	-1.527792	1.139632	1.067645
H	0.102364	1.159674	1.782354
H	-0.225671	2.116002	0.336176
Br	3.468715	0.0	0.0
