19

C	-0.639422	0.034456	-1.398402
C	0.0	0.0	0.0
Br	0.267799	1.383763	-2.458557
H	1.092936	0.0	0.0
N	-0.445166	-1.327836	-2.084031
O	-1.310066	-2.156451	-1.798418
O	0.509499	-1.511377	-2.81986
C	-2.12914	0.3311	-1.381122
H	-2.632736	-0.339446	-0.685017
H	-2.551243	0.20074	-2.378331
H	-2.288178	1.362307	-1.070298
N	-0.419163	-1.275251	0.684556
O	-1.438779	-1.259493	1.38101
O	0.285828	-2.260484	0.491273
C	-0.409085	1.185194	0.859545
H	-0.093984	2.105595	0.366097
H	0.138215	1.116351	1.801453
H	-1.476067	1.213104	1.073644
Br	3.485421	0.0	0.0
