19

C	-0.589946	0.004191	-1.418882
C	0.0	0.0	0.0
Br	0.034896	1.5917	-2.361682
H	1.092716	0.0	0.0
N	-0.033043	-1.193441	-2.207743
O	1.152849	-1.185605	-2.485611
O	-0.842325	-2.082235	-2.474406
C	-2.103339	-0.027123	-1.461171
H	-2.448514	-0.0781	-2.493029
H	-2.495796	0.879714	-1.002818
H	-2.48192	-0.897153	-0.924098
N	-0.423858	-1.300772	0.633088
O	-1.306052	-1.279093	1.495395
O	0.133697	-2.317876	0.227595
C	-0.454714	1.159569	0.865575
H	-1.535459	1.201003	0.997335
H	0.008727	1.048132	1.846817
H	-0.089568	2.090179	0.431955
Br	3.467161	0.0	0.0
