19

C	-0.415237	0.027989	-1.473726
C	0.0	0.0	0.0
Br	0.202953	-1.591313	-2.34885
H	1.091498	0.0	0.0
N	-1.944613	0.11019	-1.614727
O	-2.594467	-0.884646	-1.903711
O	-2.41493	1.225678	-1.388791
C	0.212496	1.22209	-2.172288
H	-0.00688	1.186944	-3.240851
H	1.293381	1.174433	-2.013335
H	-0.184869	2.149245	-1.760481
N	-0.500934	-1.248086	0.655715
O	0.309376	-2.1098	0.978744
O	-1.72075	-1.307924	0.844831
C	-0.460927	1.180212	0.842428
H	-1.543895	1.277186	0.877131
H	-0.074873	1.02928	1.853486
H	-0.015322	2.099305	0.463358
Br	3.476805	0.0	0.0
