17

C	-0.496788	0.031532	-1.433654
C	0.0	0.0	0.0
F	-0.213788	-1.237922	-2.002903
H	1.10096	0.0	0.0
H	-0.337555	0.921335	0.492563
C	-2.000943	0.197992	-1.541593
H	-2.298398	1.188521	-1.185973
H	-2.491189	-0.556728	-0.925458
H	-2.319468	0.086946	-2.582468
C	0.287233	1.0495	-2.236094
H	1.355643	0.853669	-2.113082
H	0.00972	0.992361	-3.293533
H	0.079305	2.059999	-1.871916
N	-0.578492	-1.153277	0.716324
H	-0.153996	-1.153655	1.639295
H	-0.192034	-1.97125	0.254642
H	3.177044	0.0	0.0
