17

C	-0.518254	0.083001	-1.428771
C	0.0	0.0	0.0
F	-0.302133	-1.183516	-2.019775
H	1.093729	0.0	0.0
H	-0.359316	-0.940769	0.439544
C	-2.013417	0.324331	-1.495326
H	-2.542045	-0.479314	-0.973061
H	-2.350018	0.3379	-2.53614
H	-2.25425	1.275654	-1.021531
C	0.275976	1.093928	-2.225756
H	1.334936	0.836978	-2.161179
H	-0.050663	1.105378	-3.270669
H	0.137635	2.08501	-1.789557
N	-0.417126	1.192455	0.761914
H	-1.138011	0.952434	1.431094
H	0.394738	1.504505	1.283983
H	3.104441	0.0	0.0
