17

C	-0.443881	0.032222	-1.459954
C	0.0	0.0	0.0
F	-0.098953	-1.228144	-2.004296
H	1.094437	0.0	0.0
H	-0.375177	-0.925969	0.451602
C	-1.953456	0.140888	-1.650942
H	-2.340369	1.109061	-1.316621
H	-2.199715	0.027531	-2.710392
H	-2.456144	-0.654997	-1.088961
C	0.328146	1.079273	-2.243735
H	1.400046	0.917267	-2.078682
H	0.093379	1.005833	-3.31038
H	0.071121	2.086429	-1.898002
N	-0.399593	1.158975	0.803616
H	0.313113	1.873894	0.70999
H	-1.291475	1.544602	0.518077
H	3.122488	0.0	0.0
