14

C	-0.518079	-0.03425	-1.405319
C	0.0	0.0	0.0
F	0.119313	0.813056	-2.240457
H	1.08879	0.0	0.0
H	-0.315282	-0.871556	0.564966
N	-0.29386	-1.45769	-1.99493
O	-0.288954	-2.402103	-1.21917
O	-0.199607	-1.508648	-3.212002
C	-1.973223	0.167837	-1.523083
N	-3.142132	0.264396	-1.596824
N	-0.442259	1.183571	0.695822
O	-0.379365	1.156045	1.932718
O	-0.728953	2.190323	0.024846
H	2.499695	0.0	0.0
