14

C	-0.629847	-0.009445	-1.359253
C	0.0	0.0	0.0
F	-0.204582	1.102712	-2.042928
H	1.089765	0.0	0.0
H	-0.249209	0.935226	0.5002
N	-0.19345	-1.183207	-2.236109
O	-0.96295	-1.476123	-3.150393
O	0.916838	-1.645014	-2.024631
C	-2.101269	0.010157	-1.332099
N	-3.267236	0.127243	-1.256965
N	-0.483831	-1.093069	0.788556
O	-0.294961	-1.041089	2.012638
O	-0.955841	-2.082275	0.185784
H	2.469287	0.0	0.0
