14

C	-0.512997	0.035894	-1.409035
C	0.0	0.0	0.0
F	0.163747	0.894851	-2.210356
H	1.08892	0.0	0.0
H	-0.303532	-0.905897	0.518622
N	-0.309788	-1.35456	-2.066936
O	-0.560679	-1.390236	-3.265484
O	0.072199	-2.28665	-1.372562
C	-1.95825	0.305271	-1.526092
N	-3.118969	0.473362	-1.591431
N	-0.456236	1.145157	0.749088
O	-0.414743	1.052428	1.983541
O	-0.742191	2.184851	0.129368
H	2.501212	0.0	0.0
