14

C	-0.458837	-0.025843	-1.426195
C	0.0	0.0	0.0
F	0.150862	-0.959287	-2.182081
H	1.089051	0.0	0.0
H	-0.310506	0.909458	0.507895
N	-1.985215	-0.28515	-1.537354
O	-2.678233	0.412248	-0.80683
O	-2.365396	-1.112459	-2.347449
C	-0.265306	1.300253	-2.04122
N	-0.138265	2.35538	-2.541479
N	-0.481547	-1.130061	0.758347
O	-0.838582	-2.147566	0.141449
O	-0.410302	-1.0406	1.988885
H	2.514955	0.0	0.0
