14

C	-0.570577	-0.053111	-1.382451
C	0.0	0.0	0.0
F	-0.17307	1.077618	-2.052642
H	1.100647	0.0	0.0
H	-0.255417	0.956964	0.455557
N	-0.02202	-1.212889	-2.230361
O	0.907663	-1.865224	-1.786856
O	-0.541796	-1.31469	-3.340224
C	-2.039985	-0.118845	-1.450499
N	-3.213555	-0.061934	-1.478403
N	-0.511132	-1.057274	0.822584
O	-0.315518	-0.967329	2.04279
O	-1.023912	-2.047733	0.260023
H	2.458772	0.0	0.0
