14

C	-0.491888	0.155334	-1.410791
C	0.0	0.0	0.0
F	0.144153	1.119224	-2.10278
H	1.102427	0.0	0.0
H	-0.310096	-0.948636	0.429934
N	-0.194254	-1.182869	-2.138285
O	0.478526	-1.128592	-3.155007
O	-0.694981	-2.17937	-1.631418
C	-1.948317	0.337961	-1.540977
N	-3.113427	0.437826	-1.659918
N	-0.460163	1.066534	0.847414
O	-0.373146	0.879015	2.069945
O	-0.787288	2.146184	0.320762
H	2.481867	0.0	0.0
