14

C	-0.563386	0.041675	-1.385206
C	0.0	0.0	0.0
F	-0.183304	1.226654	-1.965231
H	1.107448	0.0	0.0
H	-0.254083	0.923308	0.520537
N	0.013121	-1.041634	-2.314891
O	0.921011	-1.741422	-1.89911
O	-0.467177	-1.038776	-3.446693
C	-2.030056	-0.047689	-1.472428
N	-3.20413	-0.013333	-1.51438
N	-0.506296	-1.112933	0.745248
O	-1.014325	-2.064539	0.114873
O	-0.308118	-1.109162	1.969202
H	2.446832	0.0	0.0
