14

C	-0.450362	-0.123295	-1.415633
C	0.0	0.0	0.0
F	-1.825026	-0.108822	-1.556783
H	1.090273	0.0	0.0
H	-0.337623	0.93463	0.436064
N	-0.00637	1.149075	-2.175042
O	0.053912	2.188021	-1.52975
O	0.160302	1.035708	-3.384616
C	0.076032	-1.273565	-2.157474
N	0.458551	-2.159727	-2.825744
N	-0.468271	-1.087526	0.821878
O	-0.581551	-2.212873	0.309125
O	-0.623547	-0.849927	2.027612
H	2.508121	0.0	0.0
