15

C	-0.558651	-0.041411	-1.420806
C	0.0	0.0	0.0
Cl	-0.074192	1.480535	-2.269813
H	1.097332	0.0	0.0
H	-0.38997	0.911728	0.471443
C	0.016991	-1.160642	-2.170843
N	0.421677	-2.065869	-2.799221
C	-2.077654	-0.138383	-1.467053
H	-2.446955	-0.166569	-2.494615
H	-2.373752	-1.047638	-0.941856
H	-2.503822	0.730984	-0.960532
N	-0.433056	-1.227846	0.691131
H	-1.018695	-1.01419	1.486319
H	0.415777	-1.658461	1.039298
F	2.652256	0.0	0.0
