15

C	-0.288254	0.025641	-1.509067
C	0.0	0.0	0.0
Cl	0.065194	-1.608851	-2.198093
H	1.093022	0.0	0.0
H	-0.354062	0.962518	0.391815
C	-1.68874	0.314961	-1.822522
N	-2.811791	0.602432	-2.025773
C	0.69121	1.015049	-2.135553
H	0.676693	0.961776	-3.225878
H	1.675692	0.760976	-1.7158
H	0.427525	2.029576	-1.820723
N	-0.652984	-1.109789	0.68977
H	-1.01367	-0.786992	1.575456
H	0.062923	-1.795861	0.896441
F	2.727614	0.0	0.0
