15

C	-0.567536	-0.098954	-1.414303
C	0.0	0.0	0.0
Cl	-0.057088	1.365054	-2.341744
H	1.097418	0.0	0.0
H	-0.388498	0.930313	0.434792
C	-0.02028	-1.269486	-2.106867
N	0.368449	-2.221301	-2.675275
C	-2.08862	-0.16736	-1.444265
H	-2.465766	-0.244804	-2.466352
H	-2.492454	0.738275	-0.984476
H	-2.398555	-1.038716	-0.86539
N	-0.437031	-1.194878	0.747716
H	-0.96078	-0.933754	1.572681
H	0.418118	-1.643949	1.057057
F	2.655376	0.0	0.0
