15

C	-0.290956	0.049033	-1.502917
C	0.0	0.0	0.0
Cl	0.054069	-1.581391	-2.21816
H	1.100182	0.0	0.0
H	-0.362291	0.952185	0.408317
C	-1.688167	0.347697	-1.82312
N	-2.799477	0.6348	-2.081841
C	0.69652	1.037957	-2.118846
H	0.680868	0.99841	-3.209015
H	0.435899	2.050528	-1.792015
H	1.679686	0.773135	-1.701934
N	-0.683915	-1.104318	0.676655
H	-0.730106	-0.873606	1.662083
H	-0.070051	-1.90951	0.611475
F	2.736836	0.0	0.0
