15

C	-0.266274	-0.084628	-1.499784
C	0.0	0.0	0.0
Cl	-2.020074	-0.455814	-1.877947
H	1.09469	0.0	0.0
H	-0.432852	0.916243	0.416931
C	-0.005267	1.218116	-2.117712
N	0.189006	2.269201	-2.60649
C	0.635908	-1.154853	-2.094793
H	0.581299	-1.17911	-3.18515
H	1.644054	-0.914998	-1.729458
H	0.330631	-2.115286	-1.678869
N	-0.416815	-1.230334	0.665698
H	0.338648	-1.505263	1.279956
H	-1.253599	-1.093159	1.215168
F	2.687845	0.0	0.0
