15

C	-0.555368	-0.002127	-1.424715
C	0.0	0.0	0.0
Cl	0.191029	1.349795	-2.36089
H	1.098244	0.0	0.0
H	-0.370694	-0.918965	0.476172
C	-0.196725	-1.249834	-2.102792
N	-0.015362	-2.275826	-2.644836
C	-2.065588	0.184845	-1.481849
H	-2.298759	1.107065	-0.951733
H	-2.551591	-0.655882	-0.9784
H	-2.422267	0.239784	-2.512191
N	-0.468458	1.20315	0.708093
H	-0.907202	0.942955	1.58037
H	0.372154	1.718	0.945522
F	2.654599	0.0	0.0
