15

C	-0.558585	0.000622	-1.421035
C	0.0	0.0	0.0
Cl	-0.070348	1.544111	-2.225511
H	1.097428	0.0	0.0
H	-0.388936	0.897503	0.498371
C	0.014336	-1.09975	-2.201183
N	0.416893	-2.011384	-2.822289
C	-2.078436	-0.092515	-1.469959
H	-2.502925	0.761908	-0.937386
H	-2.448128	-0.088739	-2.497604
H	-2.375204	-1.017287	-0.972812
N	-0.435244	-1.246042	0.653184
H	-1.019973	-1.058419	1.453537
H	0.409107	-1.695681	0.98587
F	2.653942	0.0	0.0
