15

C	-0.20113	-0.023087	-1.518988
C	0.0	0.0	0.0
Cl	-1.93581	-0.431198	-1.980319
H	1.09537	0.0	0.0
H	-0.36814	-0.955979	0.38906
C	0.033314	1.312652	-2.0723
N	0.210324	2.390828	-2.504988
C	0.764559	-1.032507	-2.121479
H	0.486637	-2.032408	-1.778147
H	1.747832	-0.774688	-1.694038
H	0.756291	-1.010158	-3.212687
N	-0.572314	1.112491	0.727415
H	0.017388	1.924045	0.589872
H	-1.503151	1.332634	0.390453
F	2.706592	0.0	0.0
