16

C	0.0	0.0	0.0
C	-0.54615	0.08483	-1.442886
Br	1.967132	0.0	0.0
H	-1.645433	0.109349	-1.254456
N	-0.576107	1.044091	0.763135
H	-1.619742	0.8722	0.612151
H	-0.380895	0.891965	1.748277
C	-0.312535	-1.371056	0.476855
N	-0.505489	-2.463869	0.864748
N	-0.193389	-0.96324	-2.343842
H	0.791207	-1.186409	-2.283194
H	-0.747052	-1.779212	-2.122177
N	-0.146994	1.395661	-2.045787
O	-0.890143	2.358006	-1.869697
O	0.900764	1.416776	-2.695954
H	-2.914858	0.0	0.0
