16

C	0.0	0.0	0.0
C	-0.545694	0.072311	-1.442514
Br	1.978062	0.0	0.0
H	-1.646021	0.093316	-1.252851
N	-0.582093	1.038906	0.758944
H	-1.629001	0.858108	0.598985
H	-0.391395	0.884059	1.744948
C	-0.300033	-1.370865	0.483293
N	-0.487692	-2.462902	0.881345
N	-0.19194	-0.978266	-2.339586
H	0.796786	-1.193649	-2.288829
H	-0.737031	-1.798011	-2.106949
N	-0.161267	1.381092	-2.056186
O	0.885202	1.408448	-2.708901
O	-0.914852	2.337526	-1.887039
H	-2.895592	0.0	0.0
