16

C	0.0	0.0	0.0
C	-0.549654	0.071043	-1.443009
Br	1.967746	0.0	0.0
H	-1.648089	0.120049	-1.251997
N	-0.56584	1.054543	0.757359
H	-1.609536	0.892129	0.614032
H	-0.365921	0.90863	1.742977
C	-0.313882	-1.364332	0.494849
N	-0.503212	-2.454097	0.896971
N	-0.226473	-1.002492	-2.323579
H	0.750811	-1.259993	-2.258284
H	-0.810427	-1.796275	-2.092811
N	-0.128128	1.362779	-2.071513
O	0.902222	1.346739	-2.747971
O	-0.836919	2.348917	-1.886449
H	-2.913437	0.0	0.0
