16

C	0.0	0.0	0.0
C	-0.376052	0.146148	-1.496606
Br	2.018005	0.0	0.0
H	-1.469209	0.304835	-1.39937
N	-0.385079	1.135759	0.78171
H	-0.552516	0.874356	1.741695
H	0.289461	1.879013	0.695094
C	-0.658398	-1.220616	0.488553
N	-0.61568	-2.33335	0.915009
N	-0.097696	-1.004402	-2.29069
H	0.71685	-1.492638	-1.938325
H	-0.894	-1.625869	-2.241939
N	0.155517	1.385224	-2.168128
O	0.566908	2.321865	-1.477179
O	0.052663	1.433456	-3.392188
H	-2.426684	0.0	0.0
