16

C	0.0	0.0	0.0
C	-0.576176	-0.089079	-1.406274
Cl	1.790833	0.0	0.0
H	-1.679424	-0.123186	-1.144876
H	-0.314908	0.958488	0.412925
C	-0.477691	-1.129631	0.892173
H	-1.572665	-1.067745	0.850784
H	-0.106949	-0.989642	1.911414
H	-0.105294	-2.088056	0.519539
C	-0.146069	-1.308035	-2.079904
N	0.229563	-2.261743	-2.656702
C	-0.246235	1.134483	-2.260077
H	-0.650908	2.024873	-1.771798
H	-0.701678	1.05327	-3.250159
H	0.833841	1.256717	-2.384598
F	-2.876552	0.0	0.0
