16

C	0.0	0.0	0.0
C	-0.492632	0.060671	-1.478991
Cl	1.794259	0.0	0.0
H	0.393911	0.181436	-2.113763
H	-0.291566	0.921193	0.499751
C	-0.502267	-1.167922	0.820779
H	-1.596984	-1.049291	0.790874
H	-0.170972	-2.123155	0.406395
H	-0.119579	-1.084364	1.842098
C	-1.272029	1.285229	-1.703142
N	-1.75394	2.297781	-2.052915
C	-1.277291	-1.163207	-1.95795
H	-0.674145	-2.070636	-1.863146
H	-1.535996	-1.034812	-3.013652
H	-2.180091	-1.187336	-1.340397
F	-2.834512	0.0	0.0
