16

C	0.0	0.0	0.0
C	-0.614068	-0.088885	-1.389082
Cl	1.790905	0.0	0.0
H	-1.715323	-0.125485	-1.085845
H	-0.310961	0.960381	0.413064
C	-0.492887	-1.115345	0.902268
H	-1.586502	-1.021854	0.869417
H	-0.10936	-0.985921	1.918102
H	-0.160115	-2.086609	0.524951
C	-0.223914	-1.311091	-2.076152
N	0.077685	-2.28562	-2.662097
C	-0.340807	1.142178	-2.249161
H	-0.767655	2.01691	-1.75136
H	-0.819823	1.044425	-3.226607
H	0.730554	1.304879	-2.401273
F	-2.908716	0.0	0.0
