16

C	0.0	0.0	0.0
C	-0.508851	-0.011115	-1.471585
Cl	1.793992	0.0	0.0
H	0.369113	0.11285	-2.120093
H	-0.292074	0.941319	0.459678
C	-0.479374	-1.135919	0.883798
H	-0.138059	-2.103415	0.508366
H	-0.078382	-0.999446	1.892633
H	-1.574241	-1.040844	0.86877
C	-1.318469	1.188928	-1.732297
N	-1.755329	2.204456	-2.133283
C	-1.252532	-1.279546	-1.892291
H	-2.142082	-1.320393	-1.260428
H	-0.610461	-2.158618	-1.783473
H	-1.54052	-1.196264	-2.944741
F	-2.797785	0.0	0.0
