16

C	-0.410697	0.053472	-1.464351
C	0.0	0.0	0.0
F	0.179606	-0.923661	-2.152413
H	1.095142	0.0	0.0
N	-1.916767	-0.118686	-1.616895
O	-2.318405	-1.20921	-2.005664
O	-2.593281	0.844872	-1.277056
N	-0.106477	1.350456	-2.185352
O	0.525594	2.201528	-1.57695
O	-0.506815	1.396359	-3.344294
N	-0.356516	-1.264926	0.618174
H	-1.275452	-1.605567	0.368103
H	0.351422	-1.949087	0.389498
C	-0.538143	1.120429	0.770985
N	-0.957455	2.008151	1.415565
Cl	3.156635	0.0	0.0
