16

C	-0.410651	0.017705	-1.458822
C	0.0	0.0	0.0
F	0.170653	-0.987158	-2.104631
H	1.099086	0.0	0.0
N	-1.915908	-0.130656	-1.629657
O	-2.334484	-1.137813	-2.17581
O	-2.571488	0.803861	-1.179522
N	-0.074763	1.297089	-2.208084
O	-0.200741	1.224056	-3.426098
O	0.271854	2.269878	-1.552391
N	-0.48253	-1.285948	0.529792
H	0.325208	-1.891673	0.625984
H	-0.877633	-1.149851	1.451085
C	-0.506498	1.109415	0.794245
N	-0.933933	1.892703	1.55935
Cl	3.193525	0.0	0.0
