16

C	-0.380227	-0.015212	-1.482769
C	0.0	0.0	0.0
F	0.23037	0.956886	-2.156667
H	1.095253	0.0	0.0
N	-0.048382	-1.320636	-2.189657
O	-0.531081	-1.427834	-3.314582
O	0.696569	-2.110791	-1.625098
N	-1.877696	0.149507	-1.687583
O	-2.276035	1.175611	-2.215686
O	-2.560099	-0.774718	-1.250441
N	-0.464058	-1.083461	0.829436
H	0.132226	-1.885362	0.678278
H	-1.42917	-1.321112	0.641923
C	-0.465274	1.287957	0.529614
N	-0.866849	2.312775	0.939836
Cl	3.195656	0.0	0.0
