16

C	-0.442307	-0.014198	-1.453136
C	0.0	0.0	0.0
F	-0.243457	1.161492	-2.050392
H	1.100173	0.0	0.0
N	0.268157	-1.081593	-2.26779
O	0.325268	-0.868865	-3.472284
O	0.675434	-2.063929	-1.664347
N	-1.92767	-0.347777	-1.568505
O	-2.678345	0.573188	-1.275166
O	-2.237156	-1.480459	-1.910986
N	-0.569626	-1.157274	0.70134
H	-0.622119	-0.935711	1.687878
H	0.096305	-1.914691	0.596545
C	-0.465726	1.238861	0.619737
N	-0.799548	2.217106	1.177078
Cl	3.21209	0.0	0.0
