16

C	-0.450992	0.001825	-1.447055
C	0.0	0.0	0.0
F	0.156502	0.947919	-2.159096
H	1.095731	0.0	0.0
N	-0.179157	-1.350062	-2.096461
O	-1.112481	-2.141919	-2.131113
O	0.956588	-1.506789	-2.512591
N	-1.954935	0.208784	-1.620036
O	-2.668641	-0.025357	-0.651763
O	-2.317987	0.581058	-2.728652
N	-0.403314	-1.21378	0.673748
H	-1.31374	-1.12985	1.100702
H	0.298988	-1.448319	1.361689
C	-0.437965	1.258261	0.621648
N	-0.781759	2.25837	1.134063
Cl	3.190665	0.0	0.0
