16

C	-0.474927	-0.030739	-1.437433
C	0.0	0.0	0.0
F	0.103553	0.912496	-2.177004
H	1.095754	0.0	0.0
N	-0.20002	-1.388075	-2.07395
O	0.919297	-1.529106	-2.538948
O	-1.116543	-2.200013	-2.051423
N	-1.985404	0.152788	-1.584598
O	-2.676936	-0.047789	-0.5927
O	-2.375393	0.476718	-2.699113
N	-0.393338	-1.197653	0.709862
H	0.321715	-1.415199	1.390891
H	-1.295277	-1.101103	1.151937
C	-0.431839	1.270871	0.601441
N	-0.766358	2.275881	1.11042
Cl	3.189193	0.0	0.0
