16

C	-0.383859	0.071471	-1.471668
C	0.0	0.0	0.0
F	0.139797	-0.956937	-2.138127
H	1.095254	0.0	0.0
N	-1.897154	0.00675	-1.646572
O	-2.501947	1.06303	-1.502885
O	-2.380569	-1.104826	-1.840008
N	0.023303	1.340383	-2.197049
O	0.486511	2.255678	-1.533603
O	-0.164552	1.311516	-3.40837
N	-0.368342	-1.277169	0.595146
H	-1.227678	-1.656036	0.220153
H	0.386802	-1.929971	0.428371
C	-0.561927	1.105281	0.773317
N	-1.015336	1.966893	1.429651
Cl	3.172299	0.0	0.0
