16

C	-0.578851	0.021591	-1.397234
C	0.0	0.0	0.0
F	-1.922934	0.077381	-1.376879
H	1.090763	0.0	0.0
N	-0.108495	1.179102	-2.254302
O	0.691559	1.964185	-1.763361
O	-0.605574	1.217069	-3.375981
N	-0.174651	-1.223461	-2.166986
O	1.002213	-1.261552	-2.489805
O	-1.048559	-2.045494	-2.391493
N	-0.410909	-1.257403	0.608481
H	0.305442	-1.543293	1.263065
H	-1.300095	-1.178473	1.083062
C	-0.480066	1.187589	0.722242
N	-0.919619	2.068089	1.364026
Cl	3.22003	0.0	0.0
