16

C	-0.529426	-0.051696	-1.42488
C	0.0	0.0	0.0
F	-1.875368	-0.160741	-1.444873
H	1.091594	0.0	0.0
N	-0.148328	1.17627	-2.231592
O	1.003345	1.187017	-2.644677
O	-1.012761	2.031597	-2.369738
N	-0.013044	-1.226012	-2.239394
O	-0.469423	-1.281927	-3.377684
O	0.756858	-2.015795	-1.710192
N	-0.432247	-1.124205	0.8083
H	0.217714	-1.885284	0.670164
H	-1.37442	-1.415122	0.584794
C	-0.480844	1.25553	0.593141
N	-0.873908	2.259278	1.059529
Cl	3.211973	0.0	0.0
