13
Coordinates from ORCA-job run
  C   0.88067458851072     -0.52455908157255     -0.50155792383092
  C   -0.23158595489860     -0.03820208627304      0.44354821241854
  Cl  1.47121491066333     -2.14400170930337     -0.05017758843262
  H   0.18293086926601     -0.03705970145013      1.45565569600938
  H   0.47941914932831     -0.61057608270813     -1.51742608481599
  C   2.00392453030323      0.40837025739511     -0.52274525668079
  N   2.91984910949822      1.14106032347102     -0.56531948485285
  N   -1.32028161553094     -0.99497488046455      0.41896129519884
  H   -1.82311625327304     -0.93963155144787     -0.45998939484473
  H   -1.97428690234029     -0.80281972889264      1.16693069790299
  N   -0.50599977412583      1.34448073395151      0.08056141829664
  H   -1.06372125301240      1.38635874076263     -0.76525505801859
  H   -1.02002140438872      1.81155476653200      0.81681347165010
