13
Coordinates from ORCA-job run
  C   0.88548670432247     -0.59075713867594     -0.44496806152380
  C   -0.27563846771272     -0.04658469327333      0.40906950978097
  Cl  1.63522627985333     -2.00583113200352      0.33085024868006
  H   0.09674901538489      0.05451136559555      1.43824174551540
  H   0.47657295162385     -0.91688908354013     -1.40372599742180
  C   1.90069155281983      0.43283285976487     -0.67436639541518
  N   2.68585191722118      1.29252001975776     -0.82844703944312
  N   -1.33006790417380     -1.02819503908733      0.41254258897747
  H   -1.90604433528300     -0.90218718250412     -0.41193482751326
  H   -1.90853667230272     -0.94930842747308      1.23684919178952
  N   -0.71027156688018      1.20315952632625     -0.20738201825589
  H   -0.00518841735287      1.92778353201780     -0.12366133406511
  H   -1.54483105752025      1.52894539309522      0.26593238889474
