13
Coordinates from ORCA-job run
  C   0.82159413256318     -0.44184344032243     -0.62162732754616
  C   -0.26963843110997     -0.00962258925625      0.36842285774683
  Cl  1.19713035777074     -2.18740559814703     -0.46327271242161
  H   0.12702869881867     -0.17260164874999      1.38128562445814
  H   0.44258575693620     -0.29236626615124     -1.63550972280811
  C   2.04071653590667      0.33268258601592     -0.42049561471783
  N   3.03759553203256      0.92827430189340     -0.25008482652806
  N   -1.48508832577734     -0.75381797533868      0.07042265289557
  H   -2.20441728149716     -0.48701151688228      0.73248959564731
  H   -1.33538795314320     -1.75173554652398      0.16384589472901
  N   -0.46029739253580      1.40917109919324      0.17977809387974
  H   -1.16053203672036      1.55847390492290     -0.53697109113141
  H   -0.75028959324419      1.86780268934642      1.03171657579658
