13
Coordinates from ORCA-job run
  C   1.03472823219379     -0.65087316234061     -0.05049784126422
  C   -0.39609110005898     -0.24260113229122      0.34401602857801
  Cl  2.11138132933711     -0.63782619565185      1.38034808768984
  H   -0.68647539941252     -0.96394627220717      1.12753509031587
  H   0.98969296881390     -1.68469439434656     -0.38577100774499
  C   1.56353072562832      0.19828333054756     -1.11230875033321
  N   1.72032462215286      0.97519661489166     -1.96352866562511
  N   -1.21648373283090     -0.46616934715691     -0.82586367533624
  H   -2.16744642173072     -0.79711580206459     -0.52951125200932
  H   -1.32257225671225      0.41614293383019     -1.29455768160312
  N   -0.42562479815258      1.14329231956448      0.75347340882566
  H   0.16430446024883      1.30407887696011      1.56248692985122
  H   -1.36826862947687      1.40523223026492      0.99517932865560
