17

C	-0.411688	0.080053	-1.458676
C	0.0	0.0	0.0
F	-1.753514	0.363139	-1.588481
H	1.092074	0.0	0.0
C	0.430593	1.092325	-2.188391
H	1.467821	0.903741	-1.907225
H	0.132213	2.076867	-1.830307
H	0.275689	1.02475	-3.266247
N	-0.211859	-1.286309	-2.096373
O	-1.206867	-1.924481	-2.433107
O	0.953607	-1.648399	-2.221009
C	-0.554652	-1.172377	0.669125
N	-1.023686	-2.079432	1.253992
N	-0.376684	1.257865	0.644714
H	-1.289487	1.195925	1.076243
H	0.320057	1.446728	1.353983
F	2.562113	0.0	0.0
