17

C	-0.24661	-0.00519	-1.496366
C	0.0	0.0	0.0
F	0.200917	1.195558	-1.982008
H	1.102542	0.0	0.0
C	0.500248	-1.122752	-2.173767
H	0.454746	-1.000504	-3.258082
H	1.527897	-1.028207	-1.806929
H	0.084579	-2.089394	-1.890834
N	-1.732953	-0.040639	-1.829694
O	-2.302747	-1.105264	-1.594004
O	-2.263125	0.965699	-2.287171
C	-0.497613	-1.193082	0.656218
N	-0.851424	-2.131386	1.269879
N	-0.585812	1.217487	0.596429
H	-0.487854	1.127315	1.602257
H	0.050653	1.962134	0.331112
F	2.587559	0.0	0.0
