17

C	-0.300175	0.160262	-1.494696
C	0.0	0.0	0.0
F	-1.556788	0.697693	-1.707273
H	1.093212	0.0	0.0
C	0.76138	1.00098	-2.16138
H	1.731178	0.661308	-1.778707
H	0.609705	2.038062	-1.854122
H	0.684759	0.939781	-3.249339
N	-0.327333	-1.209737	-2.146659
O	-1.410005	-1.659177	-2.51183
O	0.757469	-1.773789	-2.240514
C	-0.629025	-1.180677	0.576538
N	-1.133054	-2.131313	1.050201
N	-0.352259	1.198486	0.756819
H	-1.134824	1.687667	0.342479
H	0.465966	1.794277	0.774536
F	2.589849	0.0	0.0
