17

C	-0.320278	0.137265	-1.486266
C	0.0	0.0	0.0
F	-1.625358	0.554199	-1.689503
H	1.09325	0.0	0.0
C	0.649276	1.080518	-2.152857
H	0.57511	1.017453	-3.240775
H	0.398618	2.096152	-1.840722
H	1.649825	0.824561	-1.787453
N	-0.226617	-1.229533	-2.142715
O	-1.271226	-1.850092	-2.320767
O	0.901758	-1.622462	-2.421464
C	-0.607815	-1.177433	0.606973
N	-1.085848	-2.122486	1.117376
N	-0.35904	1.205354	0.744808
H	-1.144061	1.687757	0.326909
H	0.456183	1.804586	0.754271
F	2.579052	0.0	0.0
