17

C	-0.590705	0.039141	-1.401574
C	0.0	0.0	0.0
F	-0.148086	-1.05077	-2.108567
H	1.093072	0.0	0.0
C	-2.094878	0.085134	-1.475029
H	-2.48052	-0.845285	-1.053163
H	-2.42548	0.174569	-2.51166
H	-2.466919	0.93553	-0.907844
N	-0.010447	1.257263	-2.112901
O	1.125241	1.14681	-2.557658
O	-0.719479	2.261562	-2.184666
C	-0.476916	-1.202359	0.668335
N	-0.891574	-2.144756	1.239266
N	-0.348923	1.22766	0.724674
H	0.514336	1.546472	1.148331
H	-1.030298	1.065027	1.453532
F	2.523171	0.0	0.0
