17

C	-0.447706	0.14601	-1.453533
C	0.0	0.0	0.0
F	-0.313016	-1.058974	-2.084807
H	1.095611	0.0	0.0
C	-1.841711	0.673281	-1.673211
H	-2.040408	0.757775	-2.745056
H	-1.94497	1.63671	-1.180289
H	-2.547375	-0.036837	-1.234918
N	0.52174	1.095707	-2.152724
O	1.1227	0.689725	-3.136769
O	0.573497	2.231442	-1.692083
C	-0.545097	-1.231422	0.533436
N	-1.011699	-2.197833	1.016625
N	-0.430722	1.161194	0.811659
H	0.424585	1.677788	0.994406
H	-0.770804	0.831164	1.706238
F	2.526242	0.0	0.0
