14

C	-0.437155	-0.000779	-1.442505
C	0.0	0.0	0.0
Cl	-0.095492	-1.530606	-2.260387
H	1.093281	0.0	0.0
H	0.025088	0.798536	-2.017644
H	-0.363223	-0.912201	0.479223
N	-1.921665	0.262489	-1.524521
O	-2.680723	-0.571812	-1.044749
O	-2.25959	1.343938	-2.00587
C	-0.492891	1.243325	0.735926
H	-0.035889	1.271934	1.726541
H	-0.191496	2.154296	0.212344
H	-1.580082	1.257032	0.857925
Cl	3.467843	0.0	0.0
