14

C	-0.411426	-0.078543	-1.440667
C	0.0	0.0	0.0
Cl	-2.188188	-0.128178	-1.681784
H	1.096015	0.0	0.0
H	0.002665	-0.943001	-1.953671
H	-0.358293	0.940519	0.422869
N	0.083322	1.112642	-2.220899
O	0.64903	0.871106	-3.283804
O	-0.136235	2.223143	-1.752892
C	-0.477284	-1.203115	0.803794
H	-0.043229	-1.157693	1.80406
H	-1.565285	-1.243457	0.895468
H	-0.131716	-2.133678	0.345286
Cl	3.443362	0.0	0.0
