14

C	-0.55894	0.084451	-1.403693
C	0.0	0.0	0.0
Cl	0.129948	1.397082	-2.350348
H	1.092214	0.0	0.0
H	-1.641578	0.211058	-1.39612
H	-0.346956	-0.94978	0.419561
N	-0.354566	-1.236373	-2.109474
O	0.637391	-1.422514	-2.793844
O	-1.238353	-2.059379	-1.868381
C	-0.495497	1.160418	0.856224
H	-0.135883	2.112585	0.462042
H	-1.589159	1.195193	0.914405
H	-0.098598	1.056707	1.867308
Cl	3.521602	0.0	0.0
