14

C	-0.564123	0.059694	-1.401888
C	0.0	0.0	0.0
Cl	0.103387	1.368683	-2.373457
H	1.092227	0.0	0.0
H	-1.647736	0.175339	-1.394114
H	-0.344249	-0.944838	0.43531
N	-0.352817	-1.265996	-2.097494
O	0.664163	-1.463398	-2.735658
O	-1.254606	-2.079992	-1.897915
C	-0.493971	1.170535	0.843721
H	-1.586796	1.20416	0.905791
H	-0.137095	2.117886	0.435951
H	-0.093241	1.082115	1.854362
Cl	3.483868	0.0	0.0
