14

C	-0.562622	0.027645	-1.407967
C	0.0	0.0	0.0
Cl	-0.367124	1.601407	-2.185783
H	1.094489	0.0	0.0
H	-1.624619	-0.216182	-1.428306
H	-0.326733	0.929017	0.476888
N	0.066788	-1.051879	-2.267726
O	0.968887	-0.776641	-3.040075
O	-0.407008	-2.172058	-2.07338
C	-0.489893	-1.193727	0.81652
H	-0.116654	-1.093831	1.838067
H	-0.108013	-2.1323	0.417165
H	-1.583166	-1.25362	0.85147
Cl	3.511	0.0	0.0
