14

C	-0.447147	0.090481	-1.443506
C	0.0	0.0	0.0
Cl	0.075953	-1.270407	-2.432299
H	1.093138	0.0	0.0
H	-0.085362	1.003577	-1.912454
H	-0.321004	0.932299	0.477121
N	-1.960467	0.207866	-1.473988
O	-2.384307	1.334597	-1.213373
O	-2.651764	-0.785957	-1.664062
C	-0.547768	-1.205307	0.750202
H	-0.266237	-2.1346	0.253353
H	-1.637364	-1.182518	0.846849
H	-0.114678	-1.224778	1.751948
Cl	3.468676	0.0	0.0
