18

C	-0.297743	-0.0222	-1.500788
C	0.0	0.0	0.0
Br	-0.117718	1.827476	-2.294435
H	1.09806	0.0	0.0
N	0.50307	-0.976252	-2.128238
H	1.476504	-0.849495	-1.84751
H	0.395997	-0.977441	-3.133445
N	-1.759881	-0.329222	-1.814189
O	-2.005894	-0.892851	-2.875885
O	-2.597504	0.025903	-0.98971
C	-0.435553	-1.320272	0.645834
H	0.029754	-1.378403	1.632935
H	-1.521772	-1.362217	0.76866
H	-0.103936	-2.180391	0.062254
N	-0.469902	1.183	0.686141
H	0.182697	1.40683	1.425629
H	-1.388354	1.024356	1.07969
Br	3.528373	0.0	0.0
