18

C	-0.619969	0.044548	-1.406425
C	0.0	0.0	0.0
Br	0.185681	-1.291416	-2.560553
H	1.092423	0.0	0.0
N	-2.041475	-0.090187	-1.472469
H	-2.421519	0.53399	-0.767853
H	-2.285049	-1.044691	-1.24314
N	-0.272863	1.425604	-1.990948
O	-1.199096	2.217829	-2.133823
O	0.910747	1.659061	-2.191132
C	-0.44329	-1.247019	0.749711
H	-0.22685	-2.151715	0.181085
H	0.123714	-1.306745	1.681561
H	-1.510941	-1.211613	0.990029
N	-0.534344	1.189272	0.6937
H	0.128554	1.948893	0.556834
H	-0.535348	0.999363	1.689866
Br	3.62137	0.0	0.0
