18

C	-0.283672	-0.06284	-1.499301
C	0.0	0.0	0.0
Br	0.223126	1.729596	-2.281432
H	1.102421	0.0	0.0
N	0.438512	-1.116597	-2.080783
H	1.395893	-1.101414	-1.727031
H	0.445066	-1.056658	-3.090942
N	-1.767017	-0.270428	-1.87256
O	-2.397037	-1.022871	-1.139112
O	-2.203368	0.239768	-2.89671
C	-0.401202	-1.247554	0.784485
H	0.205543	-1.264311	1.694487
H	-1.458644	-1.227234	1.047195
H	-0.194751	-2.156432	0.222403
N	-0.611114	1.178085	0.609454
H	-0.626997	1.027654	1.609522
H	-0.005509	1.974738	0.447165
Br	3.549029	0.0	0.0
