18

C	-0.591192	-0.155559	-1.400198
C	0.0	0.0	0.0
Br	0.492259	-1.503761	-2.436154
H	1.097511	0.0	0.0
N	-1.966349	-0.448327	-1.403444
H	-2.116205	-1.392279	-1.077847
H	-2.344009	-0.339912	-2.335742
N	-0.393881	1.124327	-2.204247
O	0.610352	1.778494	-1.975655
O	-1.24494	1.37943	-3.053577
C	-0.430655	-1.168632	0.876596
H	-0.184033	-2.126579	0.413795
H	0.119797	-1.110633	1.817124
H	-1.504117	-1.129056	1.090573
N	-0.502494	1.275975	0.524418
H	-0.90433	1.140329	1.442979
H	0.28695	1.90512	0.611395
Br	3.62402	0.0	0.0
