18

C	-0.277646	-0.047331	-1.506228
C	0.0	0.0	0.0
Br	-0.145912	1.802125	-2.31651
H	1.104033	0.0	0.0
N	0.564424	-0.979298	-2.109173
H	0.474726	-1.000742	-3.114859
H	1.529486	-0.824273	-1.813321
N	-1.722635	-0.405917	-1.839701
O	-1.933972	-0.992701	-2.896948
O	-2.584392	-0.066882	-1.034028
C	-0.42738	-1.31628	0.658855
H	0.055024	-1.373681	1.637486
H	-0.10706	-2.178054	0.071447
H	-1.511433	-1.356078	0.798506
N	-0.483897	1.186124	0.666958
H	-1.382164	1.011058	1.097416
H	0.185434	1.456914	1.375054
Br	3.533997	0.0	0.0
