13
Coordinates from ORCA-job run
  C   0.62321002689786      0.28104024804635      0.60631171994422
  C   -0.53250767893315      0.07360956962294     -0.38196327934560
  Br  0.51975151123816      2.16385413657927      1.27187894620286
  H   -0.42292541823696      0.81522876752479     -1.18110601065854
  H   0.45849677643495     -0.32206685803337      1.50082821666201
  N   1.86233302221442     -0.05651320156300      0.01726497021662
  H   2.61547859023674     -0.05414674993789      0.69147459174665
  H   2.10175221169452      0.56698927700559     -0.74377705195619
  N   -1.81921767776082      0.28485933392972      0.25536211871972
  H   -2.05480917374038     -0.51001178991605      0.83803778326822
  H   -2.54469031440216      0.37945695096280     -0.44378522933701
  C   -0.40187316367058     -1.27072496738028     -0.98447177648374
  N   -0.40699871197260     -2.35157471684086     -1.44505499897923
