13
Coordinates from ORCA-job run
  C   0.60552101567390      0.77161030767654      0.28568101443785
  C   -0.65603305642507      0.16491976181599     -0.33640731679745
  Br  1.29390320055378      2.16625033057036     -0.90416290690612
  H   -1.34569398723039      0.98416895526566     -0.57981389975410
  H   0.30668511788118      1.32690122461108      1.18523413283624
  N   1.58302908380581     -0.25148070306908      0.47214361454351
  H   2.35510517578402      0.06893050836087      1.04114342497436
  H   1.12958727237884     -1.04425255046565      0.91407145030748
  N   -1.19963422346479     -0.80384088997859      0.62341000813449
  H   -1.82753021150244     -1.44898846159934      0.15964660316271
  H   -1.72992637561577     -0.31125297053211      1.33295785283810
  C   -0.34139450420254     -0.52969740417591     -1.58941388710489
  N   -0.17161850763652     -1.09326810847982     -2.60449009067219
