13
Coordinates from ORCA-job run
  C   0.83276153946571      0.35872833809964     -0.01042494610391
  C   -0.66566051422650      0.14578212896158     -0.26034653948422
  Br  1.90557082705152     -0.74475582101948     -1.19198087476293
  H   -1.16448764563860      0.83944112251672      0.44275454765297
  H   1.09371186260694      1.38980679568296     -0.27282882711885
  N   1.11318124442109     -0.01075843052999      1.36693694337896
  H   2.10661536974361     -0.15015103838646      1.49965071983318
  H   0.81895071050096      0.74436469161391      1.97856162234737
  N   -1.01820344409579     -1.24528613645862     -0.06444652299152
  H   -0.60913670782544     -1.54366714512550      0.81406335520525
  H   -2.02333837565016     -1.35355722702720     -0.02073541707268
  C   -1.03509832718468      0.59114051817825     -1.60966962247902
  N   -1.35486653916867      0.97791220349419     -2.67053443840460
