13
Coordinates from ORCA-job run
  C   0.62961719082610      0.42674989081526      0.52152733593183
  C   -0.58162288386400      0.12041377890388     -0.36851939675226
  Br  0.57772968181811      2.29751301030231      1.04277346540171
  H   -0.55227950283185      0.83389405552610     -1.19638452369312
  H   0.53231577397063     -0.12742251116402      1.46508660001247
  N   1.84657582539186      0.19197929862022     -0.22244303635643
  H   2.64194095985623      0.56147056067548      0.28277504386047
  H   1.98565499861367     -0.80590988011415     -0.34628015172144
  N   -1.82796805132292      0.27649573028656      0.35695105207376
  H   -1.97594221317510     -0.50537432800941      0.98374269382760
  H   -2.60825185520480      0.31111317365294     -0.28627660509536
  C   -0.39629570172410     -1.23754402817735     -0.92696646963816
  N   -0.27147422235384     -2.34237875131783     -1.30798600785105
