13
Coordinates from ORCA-job run
  C   0.38518184945297      0.71821438865811      0.39903436472990
  C   -0.73033110375420      0.11738711865873     -0.47332155716883
  Br  1.23687317299668      2.22330826257779     -0.62653965991809
  H   -1.34040980651150      0.93233755983379     -0.87152108093125
  H   -0.06909123154903      1.21913770516626      1.25470091609428
  N   1.27622045803141     -0.28524745493238      0.83872457765128
  H   1.91504730278489      0.05042300739287      1.54664882742221
  H   1.80633424916185     -0.68390063942315      0.07200206758011
  N   -1.59132972420704     -0.80090380650921      0.25258948304770
  H   -2.17908860047934     -0.28284853163397      0.89430009910457
  H   -1.01410497709573     -1.43875476908733      0.78885522054146
  C   -0.11580370843888     -0.58866037241688     -1.60838516198021
  N   0.42150211960792     -1.18149246828463     -2.46708809617312
