13
Coordinates from ORCA-job run
  C   0.59191742974638      0.23147330898779      0.61811323468569
  C   -0.52121562184921     -0.06737601202262     -0.38957013449928
  Br  0.26219811010876      2.12204700844400      1.28609352136555
  H   -0.40603784618201      0.63446171287291     -1.23251774803711
  H   0.44588003967797     -0.37622113884741      1.50992155789372
  N   1.86707397125500      0.04246843790655      0.06560180052432
  H   2.05810227921207      0.66490870755335     -0.70861776708130
  H   2.60567891916653      0.11193485509529      0.75127116761250
  N   -1.82453073242208     -0.01865014032461      0.26018379417588
  H   -2.53651777703221     -0.36392534694064     -0.37178176698567
  H   -2.04539772700027      0.94121963746058      0.49590952867485
  C   -0.31355119036989     -1.42427109784488     -0.91511193638408
  N   -0.18359985431106     -2.49806993234032     -1.37049525194507
