13
Coordinates from ORCA-job run
  C   0.73815212440489      0.65014122837111      0.04701941192101
  C   -0.68408348352678      0.11989211154387     -0.14039830039173
  Br  1.94780971640036     -0.41863674292153     -1.19419736213243
  H   -1.30740827360417      0.74227789497685      0.51160942940913
  H   0.83982035526932      1.65955380678485     -0.34930572922559
  N   1.08183288993140      0.58619353061981      1.40328247130244
  H   2.02298601747222      0.90146249285283      1.59058626296870
  H   0.92566266070248     -0.34497414693024      1.76898824286957
  N   -0.76362751114205     -1.24774388616593      0.34903236863474
  H   -0.33047843519328     -1.87519113287389     -0.31894911138323
  H   -1.73072779743218     -1.52350122772580      0.46422729938774
  C   -1.15673417205235      0.31212326325968     -1.52320186994747
  N   -1.58220409122985      0.43840280820839     -2.61069311341288
