13
Coordinates from ORCA-job run
  C   0.53365046140441      0.70754657826407      0.45335165337741
  C   -0.73534380138286      0.28471528098537     -0.28763382042840
  Br  1.40822328946359      2.17198485099027     -0.60135023021905
  H   -1.30592241094217      1.18018383428541     -0.54410736594265
  H   0.23549294179962      1.18448129465817      1.38551516073535
  N   1.35583342252793     -0.41289367573956      0.71141715071502
  H   2.09479436492857     -0.20176984446341      1.36816014536582
  H   1.76104631984724     -0.79011811714041     -0.13771833513917
  N   -1.52164202018753     -0.52643547351389      0.62780871124682
  H   -2.38978553378931     -0.81325197041024      0.19191004651824
  H   -0.99011884599984     -1.35300715901089      0.87450335308780
  C   -0.36555965218075     -0.40530888735765     -1.54262028660757
  N   -0.08166853548890     -1.02712671154725     -2.49823618270963
