13
Coordinates from ORCA-job run
  C   0.73007200325692      0.66029491484225      0.00252152965496
  C   -0.66980397656529      0.08406391158765     -0.21580331668527
  Br  2.04491792405192     -0.57653318928776     -0.93845547284271
  H   -1.34739920026577      0.79502184340411      0.27028592847196
  H   0.86389784977295      1.59329394177233     -0.54342469615156
  N   0.95451990526652      0.82455619031909      1.37573463471911
  H   1.87551513349321      1.18102791430240      1.58792938431376
  H   0.77077259369104     -0.03750204375068      1.87382616088531
  N   -0.78896707386854     -1.18649967372770      0.48204761600186
  H   -1.76177335977273     -1.45551347170019      0.55860341508617
  H   -0.29816745145870     -1.90741215015217     -0.03441066569818
  C   -1.02151121135268      0.04169948450227     -1.64663154053609
  N   -1.35207313624885     -0.01649767211160     -2.77222297721934
