13
Coordinates from ORCA-job run
  C   0.53194225421806      0.28104648936101      0.56804021533658
  C   -0.59718949618024      0.08376756511643     -0.46429217443110
  Br  0.21282881018190      1.95999764332010      1.51579119470085
  H   -0.54201943556069      0.93294378765901     -1.15300163214660
  H   0.44617191590639     -0.48889689245124      1.34715522267113
  N   1.80505251028360      0.37237532809779     -0.09933039634518
  H   2.54107590469816      0.58339740473581      0.56305413430147
  H   2.02175280146573     -0.51355716107030     -0.54532430647031
  N   -1.94993103118989     -0.02215036276444      0.04346749979131
  H   -2.02095359072173     -0.77189588737463      0.72129580672358
  H   -2.21098086690973      0.84534577603639      0.49490902137673
  C   -0.27380228941818     -1.13577015734739     -1.22245815315754
  N   0.03705251322662     -2.12660353331854     -1.77030643235094
