13
Coordinates from ORCA-job run
  C   0.66147036402240      0.60926604941590      0.01428495087978
  C   -0.72700205900985      0.04768967130186     -0.34321331075064
  Br  2.05379114572018     -0.57864016378960     -0.82381673164677
  H   -1.43545749013002      0.77189189652186      0.07678247541078
  H   0.81771957621971      1.57039275660796     -0.47642681090817
  N   0.79046735242134      0.74616343605922      1.41530581407120
  H   0.80794797477235     -0.15534829094945      1.87488320350058
  H   1.62960191541279      1.25104837775212      1.66739492036896
  N   -1.06373511604105     -1.25223083035196      0.19647551214618
  H   -1.19347919942110     -1.20737416810719      1.19784157984785
  H   -0.35494652100410     -1.93710043629528     -0.03565379847093
  C   -0.91523630427777      0.05225119473569     -1.80055537015431
  N   -1.07014163868488      0.08299050709887     -2.96330243429452
