13
Coordinates from ORCA-job run
  C   0.57252796139945      0.16483042739244      0.56323352144569
  C   -0.56256256373645      0.01553350039024     -0.47135787509956
  Br  0.28552145830322      1.95488899986555      1.47743422585825
  H   -0.42210203590827      0.79969334628154     -1.22568157651599
  H   0.44061463061161     -0.54845313328427      1.37783793054332
  N   1.83595063591277      0.01811340749319     -0.02557885694711
  H   2.58990511472315     -0.01369543498747      0.64588994016661
  H   2.02832372604042      0.72100256657715     -0.72728730763445
  N   -1.92473217293062      0.10569622490406      0.01272751586754
  H   -2.09942751336045     -0.60428357942759      0.71415200134314
  H   -2.08070346852113      1.01502319633969      0.42886538140349
  C   -0.38713390504084     -1.28666422645591     -1.13517556624703
  N   -0.27718186749283     -2.34268529508862     -1.63505933418389
