13
Coordinates from ORCA-job run
  C   0.64606715311010      0.43513376806937      0.49459096094032
  C   -0.59680821353128      0.11319410543806     -0.34494316511845
  Br  0.59582818546630      2.30761644762958      1.01039183242316
  H   -0.60845444438109      0.82432570132227     -1.17526109898323
  H   0.59220201830511     -0.11568744313258      1.44356329474751
  N   1.83452502419493      0.20968218106209     -0.29653371475244
  H   2.64611799781543      0.58683590121712      0.17625052425577
  H   1.97732878776608     -0.78704453588589     -0.42509585708216
  N   -1.81433344095119      0.25902073038664      0.43012356373574
  H   -2.62028524458073      0.28439707547276     -0.18103154246173
  H   -1.92915739619118     -0.52284116231412      1.06383394437118
  C   -0.42095291433400     -1.24444439042021     -0.90685882902710
  N   -0.30207751268848     -2.34918837884510     -1.29002991304857
