13
Coordinates from ORCA-job run
  C   0.53799526125873      0.28508270225397      0.56084439277119
  C   -0.61034393452310      0.07532380303308     -0.44771049506542
  Br  0.19501903655875      1.93669455756203      1.54824995260882
  H   -0.59622584558587      0.93918507399397     -1.12000627025533
  H   0.49246948515969     -0.50096171817080      1.32717576619531
  N   1.79121763214272      0.42501181999455     -0.13461846834857
  H   2.53761887632821      0.64146626083198      0.51421913480927
  H   2.02019927555365     -0.44444419922607     -0.60594120177299
  N   -1.94660841561540     -0.07883477570698      0.09052016694108
  H   -1.97929338085459     -0.84207847968882      0.75607991286801
  H   -2.22121822313460      0.77266401778875      0.56389394691038
  C   -0.27232548250290     -1.11937306770020     -1.23819358444300
  N   0.05149571521471     -2.08973599496546     -1.81451325321874
