13
Coordinates from ORCA-job run
  C   0.59678499981945      0.82316977518232      0.39317056591434
  C   -0.68160359255542      0.28646610986469     -0.27654706558059
  Br  1.34726870445069      2.21400349670078     -0.76801484456959
  H   -1.34891794602789      1.12943012089197     -0.47481091990195
  H   0.28500781088859      1.32519703141429      1.30939453482947
  N   1.59577836157406     -0.14302487904301      0.70893050516987
  H   1.34222411081242     -0.68769416830847      1.52174198947378
  H   1.83673543685785     -0.73432257994728     -0.07629749117481
  N   -1.33275953496883     -0.61027904131045      0.67354210885859
  H   -2.30695400954721     -0.73421877415250      0.42640889701738
  H   -0.89504220011308     -1.52328699991203      0.64520541050411
  C   -0.35345497715957     -0.36673073467328     -1.55764767428098
  N   -0.08506716403108     -0.97870935670702     -2.52407601625963
