13
Coordinates from ORCA-job run
  C   0.57693073647167      0.34697834077202      0.58942118711287
  C   -0.56685851716779      0.02237951568355     -0.40791158599648
  Br  0.24830165092438      2.16224324468414      1.27047619727183
  H   -0.50050391796613      0.75038674524544     -1.22549372355086
  H   0.48955497120404     -0.31062878251110      1.45821805087076
  N   1.90602515686534      0.26983625648136      0.07471129875141
  H   1.99986920365868      0.75376023165882     -0.80956258582945
  H   2.20166409992984     -0.69300601525555     -0.02623927148726
  N   -1.92617381121268      0.03166579527786      0.09335417425004
  H   -2.16112987895827      0.96304763974604      0.41301461128266
  H   -2.02107833440115     -0.60780796749503      0.87389396018167
  C   -0.26570871789118     -1.30791051460623     -0.96184761581700
  N   0.01910735854326     -2.38094448968132     -1.34403469704018
