13
Coordinates from ORCA-job run
  C   0.60641278327871      0.39951136666220      0.51156514768249
  C   -0.58488479898201     -0.03322706903974     -0.35089444139974
  Br  0.34019756684701      2.26583215649038      1.03234562304863
  H   -0.60035351188603      0.63183714290095     -1.22663850938214
  H   0.57077379489620     -0.15663751503164      1.45506103267697
  N   1.82734371642434      0.31707462856819     -0.25141304823695
  H   2.59572236128872      0.71878626168252      0.27144287633666
  H   2.04570692246569     -0.65824536249751     -0.43146910085606
  N   -1.80717329108002     -0.05446089775103      0.44234380812736
  H   -2.56407594028546     -0.45375549680196     -0.09931561581430
  H   -2.06064459473411      0.89750960450027      0.67921365341775
  C   -0.30899399503893     -1.39509901142255     -0.82991158920364
  N   -0.06103101319410     -2.48012580826008     -1.20332983639702
