13
Coordinates from ORCA-job run
  C   0.58967861682695      0.72772479508754      0.33870191702889
  C   -0.71845856665174      0.29147807612316     -0.32493876498823
  Br  1.56559601089269      1.91772202704614     -0.85664400533435
  H   -1.34211037536952      1.17507848098808     -0.49157039337059
  H   0.32292715591243      1.33509794299079      1.20745704502690
  N   1.36994547357117     -0.44560464088024      0.67977289731979
  H   1.31351517367612     -0.61353367274857      1.67610326342751
  H   2.34184939531986     -0.34253638247426      0.42623705627195
  N   -1.38580906767562     -0.57928656703242      0.63401363683364
  H   -2.34855574230341     -0.73143789471106      0.35882403265379
  H   -0.91207149990789     -1.47557881683894      0.63458641692064
  C   -0.46812412784168     -0.35108016329101     -1.62945321363087
  N   -0.32638244644935     -0.90904318425919     -2.65308988815907
