13
Coordinates from ORCA-job run
  C   0.45280697629423      0.65010071718623      0.44201142411955
  C   -0.73240402727366      0.21252007573259     -0.43542632328686
  Br  1.39104418139995      2.16642708944229     -0.48967009058907
  H   -1.28685323012699      1.10311720414251     -0.74252081726437
  H   0.06590215278321      1.11296312471451      1.35074839031141
  N   1.27357360201957     -0.45176998295604      0.76731670800975
  H   1.95826125662499     -0.22590060282448      1.47571069083378
  H   1.74637859214221     -0.82571136314759     -0.04758999838480
  N   -1.64172048662845     -0.69498413997917      0.24404197822484
  H   -2.16610631406873     -0.18915781566691      0.94728951912486
  H   -1.10095969934212     -1.41800427153916      0.70505378964744
  C   -0.21066035530029     -0.44070796078597     -1.64583183161102
  N   0.25073735147608     -0.99789207431881     -2.57013343913553
