13
Coordinates from ORCA-job run
  C   0.57540594427485      0.34641881255302      0.59090332500022
  C   -0.55963966394460      0.02599305355587     -0.41778950120445
  Br  0.28032460779754      2.18461315906033      1.22373542760823
  H   -0.46259582792007      0.73289734014942     -1.25066987696293
  H   0.45770153880644     -0.28839883660231      1.47302757854800
  N   1.91051005212213      0.22534846549308      0.10100209052364
  H   2.18375232368723     -0.74630876333116      0.02449255172269
  H   2.03214095883066      0.68937935318801     -0.79035162588236
  N   -1.92621617540706      0.07972056956524      0.06071393444552
  H   -2.04885571627638     -0.53832131554152      0.85454564771492
  H   -2.14352009201766      1.02384295668310      0.35429373899453
  C   -0.28244660536012     -1.32364947702284     -0.93606377791524
  N   -0.01656134459295     -2.41153531775023     -1.28883951259277
