13
Coordinates from ORCA-job run
  C   0.46820411551272      0.64618005467153      0.43708758005104
  C   -0.72979904149336      0.22389265433000     -0.42979637770563
  Br  1.42456592998714      2.14133810388123     -0.50852753373260
  H   -1.27312916939146      1.12094328082650     -0.73796454344746
  H   0.09614630414109      1.11850855799368      1.34697547143338
  N   1.27324238653677     -0.46799780235961      0.76057058383896
  H   1.96773526932557     -0.25040271448120      1.46219663184453
  H   1.73338307359705     -0.85286525375812     -0.05674505481476
  N   -1.64803684530277     -0.66747676395902      0.25847637701262
  H   -2.16154698742572     -0.15129430386373      0.96243060324279
  H   -1.11544836576533     -1.39682317204724      0.71894005508163
  C   -0.22814092510075     -0.44176204895791     -1.64238376587636
  N   0.19282425537904     -1.02424059227610     -2.57026002692815
