13
Coordinates from ORCA-job run
  C   0.54210533995692      0.69369924004668      0.45943086665326
  C   -0.71909427732007      0.30490361585713     -0.31251567172044
  Br  1.49543829412163      2.11661416158647     -0.58470144857185
  H   -1.25087657902508      1.21552436528028     -0.59738480522243
  H   0.23316899642725      1.19148491126165      1.37709597939878
  N   1.31873453445584     -0.44970176925566      0.75356021800820
  H   2.04580688044839     -0.25535302322653      1.42833128159618
  H   1.73367674408289     -0.85150775292516     -0.07946299047163
  N   -1.55914954350105     -0.46610541466926      0.59006786472860
  H   -2.42451741059785     -0.72745472659971      0.13324141857196
  H   -1.06478560533351     -1.30789634147155      0.86116444504645
  C   -0.33562809948930     -0.41420449003463     -1.54684147495627
  N   -0.01387927422608     -1.05000277584973     -2.48098568306081
