13
Coordinates from ORCA-job run
  C   0.52079900130741      0.74223642108989      0.40704383191218
  C   -0.69735941045891      0.26260076812504     -0.41961450661917
  Br  1.35952478013532      2.23026247321589     -0.57809889581567
  H   -1.30029508463130      1.13336784100282     -0.69386250599275
  H   0.14361254740898      1.18947602511656      1.32975289271256
  N   1.49371738571075     -0.24130367397118      0.73259379216581
  H   1.25639153461989     -0.79112810483923      1.54396989590190
  H   1.76949086024737     -0.81483858083435     -0.05318888882494
  N   -1.55244797592799     -0.67804678308644      0.28706358482660
  H   -1.02291843740668     -1.48615209928847      0.58966566420314
  H   -1.97246425127778     -0.23476687486585      1.09491307020518
  C   -0.21692890275772     -0.37444364801026     -1.65263762431925
  N   0.21787795303067     -0.93526376365441     -2.58760031035557
