13
Coordinates from ORCA-job run
  C   0.79252714167859      0.58327028401532      0.03785401308234
  C   -0.63745209809319      0.14059412594979     -0.27637459420747
  Br  2.04266203710262     -0.82559529924741     -0.73561524899531
  H   -1.27504963359865      0.93964155726010      0.11842959066772
  H   1.06759782163786      1.46972991653541     -0.53230716270734
  N   0.92053769836757      0.79152001010315      1.41682205661149
  H   0.60575385267838     -0.02093783592814      1.93245136092010
  H   1.85289450948754      1.06415194413764      1.69355274572518
  N   -0.94511270517168     -1.07424903872371      0.46172110345748
  H   -0.49193049244110     -1.86610925568560      0.02012228867060
  H   -1.94369270681961     -1.23935031296057      0.46679752345016
  C   -0.87326507138054      0.06027630310568     -1.72896026961913
  N   -1.11447035344779     -0.02294239856164     -2.87549340705583
