13
Coordinates from ORCA-job run
  C   0.81869177575392      0.49072818142876      0.02646328566092
  C   -0.61875472019084      0.07269373393766     -0.38445563461916
  Br  2.07120559408879     -0.86742051896932     -0.62625387687928
  H   -1.26829225170235      0.87210213743717     -0.00223778726846
  H   1.08745932675952      1.41149383181866     -0.49640747085419
  N   1.02861337413672      0.67884139847973      1.43015258003574
  H   0.72945396603277     -0.12303296897304      1.96905765051502
  H   0.56898345358513      1.51822828841126      1.76057044000957
  N   -1.12255643162756     -1.17866071410601      0.14273680230228
  H   -0.50305791810034     -1.94174698189280     -0.10240297616319
  H   -1.21840945407061     -1.13413549071164      1.14869210918212
  C   -0.74630111586671      0.08308198671563     -1.84783027309783
  N   -0.82803559879843      0.11782711642392     -3.01808484882354
