13
Coordinates from ORCA-job run
  C   0.60855284862983      0.80587486933121      0.40575252926330
  C   -0.66406121351855      0.30737824822266     -0.30244764247887
  Br  1.44077912143178      2.16502425700873     -0.73922060859383
  H   -1.29493842510017      1.17052154649607     -0.53050963374313
  H   0.28419566824431      1.32480702477065      1.30807265242903
  N   1.56355855291334     -0.19019451228216      0.75911906471941
  H   1.27957194821743     -0.70922608775892      1.57797127464451
  H   1.80456225197857     -0.80221117650597     -0.00973885455254
  N   -1.37855647766590     -0.55685479812117      0.63214741460112
  H   -0.95540361845117     -1.47719393995165      0.64344982975187
  H   -2.34068799790308     -0.67036547238957      0.33712141651648
  C   -0.31546665692625     -0.36929351705263     -1.56594789822347
  N   -0.03310600185013     -0.99926644176727     -2.51676954433387
