13
Coordinates from ORCA-job run
  C   0.52026176533308      0.75275019069603      0.38909701357524
  C   -0.69557971711713      0.25079330931639     -0.42716631453994
  Br  1.35729784124074      2.21826513190693     -0.63289999109985
  H   -1.29961408231195      1.11381778832371     -0.72261121387740
  H   0.14125354847582      1.22289745237445      1.29949033644211
  N   1.49358246005321     -0.22083485835108      0.73984725266333
  H   1.26407017146369     -0.74303187861068      1.57125743998474
  H   1.76692115572886     -0.81894438000258     -0.02809839331379
  N   -1.54914656485296     -0.67421859360584      0.30118968119074
  H   -1.97625529488128     -0.21053577484966      1.09370771007551
  H   -1.01657336640352     -1.47021946159894      0.62969612976918
  C   -0.21365115567922     -0.41481124851377     -1.64458483162843
  N   0.20643323895066     -1.00692767708496     -2.56692481924143
