14
Coordinates from ORCA-job run
  C   -0.46783368937066     -0.19065011217070     -0.44602849102668
  C   1.03256726627495     -0.06224971587117     -0.05594879602470
  Cl  -0.51929892827382     -1.05144657842003     -2.01402858505666
  H   1.43909947328796     -1.08084382542166     -0.02091448395779
  C   -1.24005268382717     -0.98996746512727      0.59649746513263
  H   -0.78253747318975     -1.97424350863069      0.71755366310283
  H   -1.23912614553596     -0.46464147255156      1.55366734815483
  H   -2.27064528915216     -1.12043182915860      0.26577716773035
  C   -1.04420685388813      1.14202778108478     -0.61783329759381
  N   -1.51566739720984      2.21414418216433     -0.71688732175735
  C   1.16277917857161      0.54448459256202      1.27257591894316
  N   1.23910802226742      1.01116413862175      2.34765474173385
  C   1.79188771958685      0.70620499216332     -1.04633525743686
  N   2.41092680045870      1.31644882075549     -1.83575007194381
