14
Coordinates from ORCA-job run
  C   -0.52441322620735     -0.01093546302802     -0.52698933124562
  C   0.89997266548038      0.56502805017780     -0.26541009617984
  Cl  -0.54040573684027     -0.61616850343248     -2.21077397315194
  H   1.09948494784164      1.32929969065770     -1.02609566188854
  C   -0.87751136087535     -1.13905558376181      0.43169685714156
  H   -0.16121119555060     -1.95495224067098      0.32288819827616
  H   -1.87582553206437     -1.51307550768117      0.20357986295920
  H   -0.86341399104508     -0.77248134011001      1.46085050554436
  C   -1.48300093041751      1.08931477904909     -0.42144790187190
  N   -2.25086967517265      1.97256035481889     -0.31260203230031
  C   1.91600446103596     -0.48557700549772     -0.37879453126753
  N   2.72555328099284     -1.33177336373985     -0.46399539307966
  C   0.95758527766327      1.18703625649333      1.06128706656219
  N   0.97805101515908      1.68077987672522      2.12680643050185
