14
Coordinates from ORCA-job run
  C   -0.54196777395163     -0.03167645122637     -0.50814361900942
  C   0.88469894282560      0.56531300728755     -0.31548824482486
  Cl  -0.60899285715747     -0.69572702152608     -2.16840588061843
  H   1.04954686268803      1.30774232788992     -1.10536231487930
  C   -0.85112052375593     -1.12835352828142      0.50093108497234
  H   -0.80895105639701     -0.72469816283592      1.51545570775802
  H   -0.12869662060679     -1.93999308263243      0.39864051608756
  H   -1.85174883415204     -1.52115816776633      0.31830783666499
  C   -1.50816326010116      1.06245177347467     -0.40890948990183
  N   -2.28626874513452      1.93766321159787     -0.30757223734665
  C   1.90664770967168     -0.47918344935183     -0.43296425631396
  N   2.72228695270631     -1.31911786872403     -0.52081607891160
  C   0.98337555357184      1.22498542894121      0.99033401272944
  N   1.03935364979308      1.74075198315317      2.04399296359369
