14
Coordinates from ORCA-job run
  C   -0.46565313722652     -0.26827707329629     -0.40320925820979
  C   1.03464049184242     -0.02473024880285     -0.07288973515462
  Cl  -0.50861405736232     -1.33812364329586     -1.83722165644219
  H   1.48666835522117     -1.01128935871326      0.08980100344807
  C   -1.18082515743956     -0.94868643352210      0.75780815321315
  H   -2.21063022541724     -1.16653335055197      0.47380677436611
  H   -1.18547172560965     -0.29718800523234      1.63397936056918
  H   -0.67714031339360     -1.88691975832237      1.00024938428900
  C   -1.10718400734518      1.00139806931161     -0.74096302741082
  N   -1.63651008095115      2.02452735715634     -0.97485134582122
  C   1.16404797419377      0.76243846339318      1.15727478643957
  N   1.23752773682112      1.37386440143677      2.15735624347080
  C   1.73871668929917      0.63045200002633     -1.17861706966765
  N   2.31042745736755      1.14906758041281     -2.06352361308959
