14
Coordinates from ORCA-job run
  C   -0.55304548291783     -0.02712293395131     -0.49474870744432
  C   0.89514614506990      0.52905722019039     -0.34702606936354
  Cl  -0.67712732641621     -0.72473985660263     -2.13817612738775
  H   1.06564974171832      1.24492730812948     -1.15998979216894
  C   -0.87349764210670     -1.09177146435448      0.54463096978545
  H   -0.79342582588398     -0.66903156899455      1.54903685561231
  H   -1.89071251987488     -1.45408643127344      0.39397850362908
  H   -0.18125608892728     -1.92908365960674      0.44252899626899
  C   -1.48367880692759      1.09776445978012     -0.39939116966832
  N   -2.23239616723422      1.99864285429679     -0.30161578568081
  C   1.88075471320993     -0.55028919463240     -0.45795619076339
  N   2.66499972068593     -1.42063259748735     -0.53658742744890
  C   1.04281993915049      1.22215009698694      0.93662570952785
  N   1.13576960045411      1.77321576751917      1.96969023510228
