14
Coordinates from ORCA-job run
  C   -0.49482104337272      0.02643361567159     -0.37194339626555
  C   0.83484335438416      0.40136136067163      0.34438027395331
  Cl  -0.16356881851825     -0.20707128115739     -2.11082428201343
  H   0.59183161989399      0.57696352429502      1.40113259907576
  C   -1.09058077456851     -1.24930716614296      0.21236812288058
  H   -1.27488972052693     -1.12028187712300      1.28220725977483
  H   -2.03570467854602     -1.47160587391245     -0.28327121211902
  H   -0.40625038237238     -2.08440870358488      0.05654246126426
  C   -1.42049025460615      1.14847388568467     -0.21118292593206
  N   -2.17314668834271      2.03397863036867     -0.03547561184141
  C   1.41820832335706      1.63152044041761     -0.19700366796476
  N   1.88234377898942      2.62812011921057     -0.60945471295828
  C   1.79255129960378     -0.70585132932976      0.27614390820511
  N   2.54167398462528     -1.60932534506932      0.24638118394066
