14
Coordinates from ORCA-job run
  C   -0.45033802008054     -0.18944901895763     -0.46245391356285
  C   1.03638795436470     -0.03607563083926     -0.03144645187420
  Cl  -0.44207830027731     -1.00730739115102     -2.05396239054915
  H   1.46739899057923     -1.04500737701022     -0.01472178700091
  C   -1.22891596369336     -1.03529013961681      0.53787067988730
  H   -2.24757946728778     -1.17954972175531      0.17735491902132
  H   -0.75169889211581     -2.01189517898607      0.64349251586859
  H   -1.26446360394625     -0.53692073831916      1.50870474059082
  C   -1.05645283671133      1.13278467769918     -0.61184878990328
  N   -1.55569441477583      2.19379844334099     -0.69199132520689
  C   1.12033266972256      0.53541656368380      1.31636112523111
  N   1.16228022764492      0.97046579284928      2.40646590622260
  C   1.79817478967504      0.77920364805437     -0.98176469203522
  N   2.41364686690176      1.42982607100786     -1.74106053668925
