14
Coordinates from ORCA-job run
  C   -0.45480565039193     -0.25508536774538     -0.42535234261526
  C   1.03585604290348     -0.02163966584857     -0.04749407255699
  Cl  -0.45717891127722     -1.27125140891069     -1.89866643289610
  H   1.48813220743021     -1.01257653537345      0.08451708989124
  C   -1.19872530758431     -0.97860177950827      0.69044366664635
  H   -1.22842399319439     -0.35939034534537      1.58934264367284
  H   -2.22007558616557     -1.18773881043527      0.37129086181031
  H   -0.69908277516285     -1.92408602413175      0.91241998356954
  C   -1.08931166287262      1.02555808658754     -0.73376733658573
  N   -1.61110868044354      2.05724200388685     -0.94594945765894
  C   1.13266461704014      0.71350929597460      1.21760568500748
  N   1.18762281996054      1.28268979710366      2.24334780579725
  C   1.76318645133961      0.68415374658070     -1.10618280531330
  N   2.35225042841845      1.24721700716542     -1.95155528876869
