14
Coordinates from ORCA-job run
  C   -0.53387187856576     -0.01564778103012     -0.51690935345337
  C   0.91579754137275      0.51577745571472     -0.30528111370888
  Cl  -0.60231799232184     -0.69839674075435     -2.16955226320893
  H   1.13138998391513      1.23399335000386     -1.10539459420645
  C   -0.91334532105098     -1.08281220310766      0.49969926886790
  H   -1.92925348138607     -1.42744633564430      0.30528501261046
  H   -0.23118581674527     -1.93056243683492      0.41842234460701
  H   -0.86697993868486     -0.66929726627196      1.50998271408969
  C   -1.44772287205310      1.12493524090022     -0.44928033615187
  N   -2.17862377419749      2.04222651837401     -0.37225592952000
  C   1.88874133898641     -0.57792778251136     -0.38415088834189
  N   2.66387498273235     -1.45777296129918     -0.44401026937773
  C   1.02093367855205      1.19853780269567      0.98817538670803
  N   1.08356354944667      1.74439313976537      2.02627002108603
