14
Coordinates from ORCA-job run
  C   -0.55566939207226     -0.03957114443324     -0.49148298621283
  C   0.87739349323453      0.55632023699278     -0.34907053796754
  Cl  -0.67097027859824     -0.73136956347452     -2.13776926268009
  H   1.02173094479217      1.28363534519209     -1.15695352780427
  C   -0.83951813624465     -1.11817722026197      0.54416636725749
  H   -1.84665339979113     -1.50901784716521      0.39744605716290
  H   -0.12401260935436     -1.93463622665698      0.43398086460181
  H   -0.76589006838107     -0.69833096790020      1.55020892190499
  C   -1.51574103903485      1.05917025315537     -0.38392710702132
  N   -2.28589282029236      1.94060926774937     -0.27623771168096
  C   1.89285843399173     -0.49311038771266     -0.47695728885122
  N   2.70175194118992     -1.33845456472901     -0.57572548728042
  C   1.01365334622286      1.24140729311544      0.94018113124550
  N   1.09895958433771      1.78052552612875      1.98014056732597
