14
Coordinates from ORCA-job run
  C   -0.55038507949300     -0.01240884642480     -0.49865880656728
  C   0.90010947787561      0.52994561368591     -0.32370117865122
  Cl  -0.66373370347070     -0.66852689447348     -2.15973087521475
  H   1.08228920002630      1.26545678214697     -1.11645682433886
  C   -0.88752760848499     -1.09992173082696      0.51118893672782
  H   -0.20020899500499     -1.93931739028253      0.39423053270646
  H   -0.81303734889394     -0.70282106018690      1.52629489308975
  H   -1.90568337588405     -1.45153550321729      0.34311082098393
  C   -1.47222966494720      1.11811233262650     -0.38522992919359
  N   -2.20945263013358      2.02723710681780     -0.27894817715863
  C   1.88064200580627     -0.55162819555693     -0.45543958767538
  N   2.66234046882694     -1.42184884321218     -0.55781417916898
  C   1.04186729517037      1.18972104749564      0.97800341167882
  N   1.13600995860694      1.71753558140824      2.02315096278191
