14
Coordinates from ORCA-job run
  C   -0.55077479073044     -0.03980376901033     -0.49757080811977
  C   0.89917245002572      0.51392554008518     -0.35422613186074
  Cl  -0.66670238419670     -0.78291394341098     -2.12106782878001
  H   1.07813865314431      1.20760421189676     -1.18453679223646
  C   -0.88386827491761     -1.07252202063531      0.56945261328923
  H   -0.81199532718845     -0.62070271124080      1.56155759772096
  H   -0.19288134321014     -1.91389799307658      0.49839712898269
  H   -1.90040416793262     -1.43720083980068      0.42041622419046
  C   -1.47384911875993      1.09392042894884     -0.44064569249347
  N   -2.21140393276844      2.00654913589799     -0.37226750208042
  C   1.88223307625215     -0.57099248685926     -0.43094191344055
  N   2.66598133473936     -1.44337160517106     -0.48949161655002
  C   1.03959695375263      1.24014148494243      0.91196525731066
  N   1.12775687179015      1.81926456743379      1.92995946406744
