14
Coordinates from ORCA-job run
  C   -0.57797485638943      0.06499443221801     -0.33680672902053
  C   0.95322892462258      0.32348125653368     -0.24989572782318
  Cl  -1.11014770152173      0.66752329341483     -1.93595126545871
  H   1.41048539349800     -0.19512781181082     -1.10194860202230
  C   -0.89193540030743     -1.42205261769531     -0.22590599521167
  H   -0.59375619540274     -1.79974197434649      0.75412105133999
  H   -0.36053536776304     -1.96878548250788     -1.00777634669014
  H   -1.96315045003505     -1.57913526787957     -0.35421020123389
  C   -1.26544034962214      0.82411992157179      0.70659174314438
  N   -1.82006935348318      1.40139030871955      1.56731394675806
  C   1.49633530041206     -0.23880578873485      0.99058432194788
  N   1.91279907482821     -0.71794046181662      1.97870560963548
  C   1.27337189149194      1.75009350651316     -0.34937746756584
  N   1.53778908967195      2.89098668582053     -0.43444433779952
