14
Coordinates from ORCA-job run
  C   -0.51336129249487     -0.01661029605616     -0.34515367188066
  C   0.83029636453071      0.45511562415726      0.28273876859973
  Cl  -0.25863964767922     -0.31424829284008     -2.08708429015073
  H   0.63407100005852      0.66211476036774      1.34366381311068
  C   -1.01359175591590     -1.29080499521814      0.32523294859715
  H   -1.96730602360954     -1.58426336925975     -0.11389115413111
  H   -0.29388899701138     -2.09696038647114      0.17579623579365
  H   -1.15578769784579     -1.11911457580806      1.39554987566023
  C   -1.48463201673807      1.06629631621782     -0.18608172854596
  N   -2.26809643142724      1.92530083399094     -0.01342437031694
  C   1.31702777020113      1.69053086283242     -0.33683581851117
  N   1.69991816740289      2.69420560307574     -0.81092870859643
  C   1.84059390635540     -0.60362543910120      0.20490172917863
  N   2.63439665417335     -1.46793664588739      0.16751637119292
