14
Coordinates from ORCA-job run
  C   -0.52020479778988     -0.03071551962449     -0.33285168711312
  C   0.84308897674052      0.45854213643391      0.23605696814262
  Cl  -0.30559756321334     -0.44868944422417     -2.05551285326266
  H   0.67239940998398      0.73687863929927      1.28501553716210
  C   -1.02709472292275     -1.24832551098773      0.43117831753018
  H   -0.32345250082066     -2.07488360655615      0.32300204016441
  H   -1.14524377991870     -1.00263238419988      1.48984893164750
  H   -1.99389510085105     -1.55414784995281      0.03091946761043
  C   -1.47169905640410      1.07621797257215     -0.22854469473550
  N   -2.24123123143763      1.95456458804733     -0.09553566759763
  C   1.33524330800637      1.64323255840162     -0.47232497037344
  N   1.72356755589910      2.60559327935274     -1.02155321526677
  C   1.83588888354100     -0.61916583407575      0.20634002267015
  N   2.61623061918711     -1.49646902448603      0.20796180342172
