14
Coordinates from ORCA-job run
  C   -0.53791341712239      0.01103240048547     -0.30547935081318
  C   0.84300360556079      0.44206485388598      0.26881643498089
  Cl  -0.41241758837222     -0.09363944455188     -2.08332457316268
  H   0.72336591246010      0.53667444010955      1.35673577070831
  C   -0.96905281569219     -1.33800099434520      0.25810853835243
  H   -0.25300909485492     -2.10815344932558     -0.03191726556266
  H   -1.03069219660716     -1.28569716114228      1.34832367393091
  H   -1.94988983688235     -1.60209174524315     -0.13766301768070
  C   -1.50914729076225      1.04898669780356      0.04224856159694
  N   -2.29152131975915      1.86327493278311      0.36827263466822
  C   1.26886600505404      1.74204339591255     -0.25635787250173
  N   1.60558102964574      2.79165244844523     -0.66075013867040
  C   1.85696507992443     -0.58392945993750      0.00960893540366
  N   2.65586192740753     -1.42421691487985     -0.17562233125001
