14
Coordinates from ORCA-job run
  C   -0.54601584817069     -0.02213169199682     -0.50406894867477
  C   0.90504658486202      0.52023547187027     -0.33233746183197
  Cl  -0.65127558783412     -0.71627808174147     -2.14997568978523
  H   1.09533697609693      1.23559717779697     -1.14138766599173
  C   -0.89273944754338     -1.08495533797369      0.52872745077240
  H   -1.91013925208950     -1.43908009611556      0.36052173958645
  H   -0.82628269172860     -0.66382377387386      1.53480611273323
  H   -0.20565738419577     -1.92774272806981      0.43722877609887
  C   -1.46526418825164      1.11309289227944     -0.42103426800141
  N   -2.19961365913287      2.02650746165903     -0.33149701394950
  C   1.88273817903335     -0.56770072735217     -0.42873036289462
  N   2.66065301980260     -1.44438910916508     -0.49948019693624
  C   1.03708593252628      1.21023728672761      0.95478964810690
  N   1.11712736662538      1.75843125595512      1.99043788076764
