14
Coordinates from ORCA-job run
  C   -0.53405271578943     -0.02668938277650     -0.51615829658190
  C   0.89889085679665      0.54764586096656     -0.30081576703183
  Cl  -0.58348728599353     -0.69528757230348     -2.17535300325938
  H   1.08875673809533      1.28400017705574     -1.09080567017660
  C   -0.87902107878620     -1.11441376545027      0.49083392058991
  H   -0.84992614911977     -0.70735427814689      1.50410317167846
  H   -0.16795953549015     -1.93742206156897      0.40529709238211
  H   -1.88172392557050     -1.49259280110361      0.29096592655860
  C   -1.48176564773265      1.08534752071357     -0.43767619019375
  N   -2.23698237669641      1.98223476852968     -0.35482758528266
  C   1.90585409679293     -0.51313297899714     -0.39799334361019
  N   2.70845216534529     -1.36686665143353     -0.47200379233214
  C   0.98530688936127      1.21360582202859      1.00264306478497
  N   1.02865796878718      1.74192534248623      2.05079047247441
