14
Coordinates from ORCA-job run
  C   -0.55618225675648     -0.03486860536887     -0.49034009249141
  C   0.87597330433241      0.56151392948597     -0.34116962541315
  Cl  -0.67219224704970     -0.70374945961561     -2.14601908622406
  H   1.01774588960945      1.30085535380185     -1.13847581579588
  C   -0.83720875901182     -1.12827547578173      0.53044545652048
  H   -1.84321646813392     -1.51976807506268      0.37761029204412
  H   -0.11930209979405     -1.94129449745808      0.40974692908626
  H   -0.76541016039491     -0.72180435413042      1.54224066856969
  C   -1.51792372484078      1.06072177240890     -0.36635376177633
  N   -2.28795666642788      1.94031036036301     -0.24380978206550
  C   1.89291057414462     -0.48398630733203     -0.48667941908108
  N   2.70235447451761     -1.32679032194605     -0.60198019743631
  C   1.01279865872322      1.22996036284928      0.95657496606252
  N   1.09660948108222      1.76617531778646      1.99820946800067
