14
Coordinates from ORCA-job run
  C   -0.55069997519162     -0.03148761022762     -0.49810787444051
  C   0.88789632281151      0.54614812445156     -0.33750513358191
  Cl  -0.65666193340983     -0.71278996478355     -2.14946327118636
  H   1.05195357027680      1.27160178302352     -1.14328122529275
  C   -0.85864121645078     -1.11266211361456      0.52773281589960
  H   -0.15230839262407     -1.93726585491843      0.41934131141758
  H   -1.86895018709082     -1.48998185361997      0.36788161631884
  H   -0.79027266533077     -0.70043133390628      1.53735054273474
  C   -1.49763930536321      1.07905027558368     -0.39473558589905
  N   -2.25479167026201      1.97210576233764     -0.29107333174105
  C   1.89134309088294     -0.51662279705914     -0.45012671471631
  N   2.68884231366782     -1.37452696784562     -0.53024504416040
  C   1.01612579823789      1.23086196407949      0.95292872886981
  N   1.09380424984615      1.77800058649928      1.98930316577775
