14
Coordinates from ORCA-job run
  C   -0.53145911019931      0.02256235287858     -0.31559967968092
  C   0.84044616382407      0.42820349739036      0.29742064159677
  Cl  -0.37140383156305     -0.03206901590949     -2.09300670936046
  H   0.70077246115739      0.49016825510127      1.38530992248293
  C   -0.98154481309644     -1.33916739110354      0.20059524426617
  H   -1.95503719191576     -1.58620901298865     -0.22327343335496
  H   -1.06635941349456     -1.31677755399311      1.29026976306313
  H   -0.26366045778235     -2.10532677836728     -0.09550183652387
  C   -1.50328261566634      1.05650111658225      0.04218104510728
  N   -2.28690064722912      1.86728165867260      0.37400755161996
  C   1.28214668778511      1.74145310192598     -0.17921793887878
  N   1.63032344808208      2.80193461035221     -0.54358624120387
  C   1.85396713632251     -0.59512292445398      0.02656242304203
  N   2.65199218377577     -1.43443191608721     -0.16616075217538
