14
Coordinates from ORCA-job run
  C   -0.51506803264719     -0.03432286105806     -0.33987634712919
  C   0.84123149762930      0.46313685819284      0.23899567319793
  Cl  -0.27650082560521     -0.48694586175376     -2.05057538546719
  H   0.65501476370917      0.77002784139711      1.27721795746399
  C   -1.03660953707544     -1.23565068139246      0.44005184164698
  H   -1.99940448793427     -1.54492518180859      0.03281251299241
  H   -1.16743451508962     -0.97019209135359      1.49246278358193
  H   -0.33506933923585     -2.06678334765890      0.35609045391848
  C   -1.46538428434383      1.07634303194008     -0.27097525635748
  N   -2.23660187945778      1.95722623428674     -0.16722228051505
  C   1.35179636638285      1.62505476296754     -0.49328529033580
  N   1.75471239299221      2.56966043050600     -1.06256464454179
  C   1.82792337917968     -0.62045744224844      0.25416320043751
  N   2.60239450149597     -1.50217169201651      0.29270478110727
