14
Coordinates from ORCA-job run
  C   -0.44821076907744     -0.25761606009894     -0.42994116353541
  C   1.03537497505634     -0.00148890331008     -0.03919587635094
  Cl  -0.42241959933066     -1.26615952849646     -1.90813560279937
  H   1.50182354010492     -0.98599457318200      0.09258007880183
  C   -1.18812551424480     -0.99958306638219      0.67643846671432
  H   -0.67350060735007     -1.93710830722334      0.89777266886499
  H   -1.23602457646051     -0.38560457085581      1.57798880308521
  H   -2.20285093357025     -1.22544047271284      0.34801429959225
  C   -1.10170885556233      1.01380526716021     -0.73679239478388
  N   -1.63848968833328      2.03763929476922     -0.94924831652048
  C   1.11139168456519      0.72740604052187      1.23080146475273
  N   1.15025570018167      1.28281351426282      2.26477035276322
  C   1.76129469919145      0.71671028568185     -1.09032902743506
  N   2.35118994482977      1.28062107986569     -1.93472375314942
