14
Coordinates from ORCA-job run
  C   -0.58613012107855      0.04883903514195     -0.32588708968462
  C   0.94074936858128      0.33976394895410     -0.26896357040496
  Cl  -1.15890153584217      0.62126096534287     -1.92178529034731
  H   1.39391671614555     -0.18229259925705     -1.12112667942255
  C   -0.86631279020217     -1.44312296249020     -0.19279699284875
  H   -0.54585638386781     -1.80299585678087      0.78694257067683
  H   -0.33447269578245     -1.98782467515511     -0.97591167990651
  H   -1.93560739260835     -1.62436866427309     -0.30380630575343
  C   -1.26925507672778      0.80667092214464      0.72141606481942
  N   -1.81525970774052      1.38852590282505      1.58450992694450
  C   1.51620210924815     -0.19361600363515      0.96966477212528
  N   1.95849961416715     -0.65478812214545      1.95515054891921
  C   1.23074360197245      1.77063519476824     -0.39661283986358
  N   1.47068429373520      2.91431291456009     -0.50979343525352
