14
Coordinates from ORCA-job run
  C   -0.50724877669500     -0.02299699036102     -0.35320917254278
  C   0.83696453452675      0.45200781032693      0.27142372064649
  Cl  -0.22896483703800     -0.43353064242366     -2.06842060146785
  H   0.62606544348433      0.73442888019950      1.31187763572720
  C   -1.05392939356763     -1.24063107719678      0.38286384873904
  H   -0.35455076855155     -2.07318245179939      0.29491795047380
  H   -1.20929757783273     -1.00134644920574      1.43820336073383
  H   -2.00783634852172     -1.53428398785501     -0.05564333524030
  C   -1.45205320238698      1.09202531750184     -0.27896645558860
  N   -2.21733060831155      1.97763236995970     -0.17134738758243
  C   1.37164957016526      1.62837211065027     -0.41936859500715
  N   1.79367574404786      2.58230686592813     -0.95845855610840
  C   1.81739128966964     -0.63720186879675      0.28520079765846
  N   2.58646493101131     -1.52359988692802      0.32292678955868
