14
Coordinates from ORCA-job run
  C   -0.53343259715062     -0.01609698855120     -0.51811528298329
  C   0.90209433850581      0.54844958821517     -0.29479743200081
  Cl  -0.58624906012834     -0.65803154898219     -2.18756127225167
  H   1.09819115351365      1.29000924434936     -1.07838121650087
  C   -0.88236863034078     -1.11850270404114      0.47163569464324
  H   -0.17754521208798     -1.94517185187697      0.36941381120507
  H   -1.88873385860261     -1.48569409150278      0.26914185095793
  H   -0.84647760270064     -0.72878436976621      1.49175161638360
  C   -1.47804247257309      1.09693175906894     -0.41937330881055
  N   -2.23603631710062      1.98906420701864     -0.31452198397216
  C   1.90256536150956     -0.51774089470486     -0.39811881399319
  N   2.69941473763527     -1.37655372103367     -0.47632562973021
  C   0.99000363295303      1.20262644177803      1.01475630952496
  N   1.03461652656735      1.71949493002889      2.06849565752796
