14
Coordinates from ORCA-job run
  C   -0.46669880502147     -0.19470572202665     -0.44437708382514
  C   1.03241666183479      0.02522978326264     -0.09266774901926
  Cl  -0.50830609222093     -0.94405883451867     -2.06888773735274
  H   1.51785168553138     -0.95734303553622     -0.14748236320517
  C   -1.13635158860710     -1.12466274872599      0.56010200072459
  H   -0.59985767347173     -2.07530702851921      0.59523573235246
  H   -1.14171920362621     -0.66925672658643      1.55239211331568
  H   -2.16497687527155     -1.31356084138888      0.25219451325960
  C   -1.15185618460978      1.09570119606107     -0.50017061512961
  N   -1.71293906950206      2.12855028343211     -0.50439843820520
  C   1.16582841669367      0.54094135950380      1.27345631317412
  N   1.24945715956056      0.92887524145973      2.37882723448801
  C   1.69157901618824      0.92225291734818     -1.04594772335720
  N   2.22657255252219      1.63734415623453     -1.80827619722015
