14

C	0.0	0.0	0.0
C	-0.541315	0.1422	-1.41679
Br	1.956581	0.0	0.0
H	-1.645905	0.184349	-1.278615
H	-0.278464	0.900602	0.552004
N	-0.474832	-1.248651	0.528349
H	-1.499058	-1.176799	0.531214
H	-0.168737	-1.329138	1.49199
C	-0.16102	-0.955709	-2.292453
N	0.122819	-1.844003	-3.005918
N	-0.138039	1.458964	-2.016211
O	-0.259476	2.439462	-1.288117
O	0.243357	1.478039	-3.183315
Cl	-3.445427	0.0	0.0
