14

C	0.0	0.0	0.0
C	-0.379075	-0.379863	-1.469376
Br	1.95886	0.0	0.0
H	0.493445	-0.183696	-2.093406
H	-0.28099	1.047458	0.151236
N	-0.516626	-0.940847	0.937387
H	-1.54231	-0.873002	0.837454
H	-0.278956	-0.63374	1.873828
C	-1.465886	0.357196	-2.116799
N	-1.990369	1.025498	-2.931321
N	-0.552892	-1.877526	-1.603064
O	0.490167	-2.520596	-1.526457
O	-1.670946	-2.331548	-1.796686
Cl	-3.350876	0.0	0.0
