14

C	0.0	0.0	0.0
C	-0.518854	0.256841	-1.406297
Br	1.998344	0.0	0.0
H	-1.624542	0.29369	-1.284913
H	-0.256629	0.860022	0.620442
N	-0.479265	-1.276982	0.427141
H	-0.218056	-1.420224	1.395999
H	-1.503851	-1.212289	0.388225
C	-0.135743	-0.771129	-2.361298
N	0.147838	-1.602286	-3.140481
N	-0.108728	1.615513	-1.903889
O	0.209649	1.73028	-3.083758
O	-0.172303	2.530153	-1.089206
Cl	-3.437084	0.0	0.0
