14

C	0.0	0.0	0.0
C	-0.214041	0.082455	-1.554024
Br	2.025827	0.0	0.0
H	0.365738	0.93668	-1.907633
H	-0.3049	0.962093	0.410268
N	-0.519239	-1.048727	0.766232
H	-0.411884	-1.928689	0.27892
H	-1.523405	-0.850511	0.867758
C	-1.534647	0.20295	-2.188765
N	-2.286397	0.365836	-3.081827
N	0.422464	-1.099103	-2.258676
O	1.150058	-0.850696	-3.213642
O	0.137625	-2.220009	-1.847352
Cl	-3.369372	0.0	0.0
