18
Coordinates from ORCA-job run
  C   0.79313456480900      0.14163904744816     -0.65760965073002
  C   -0.69976680563786     -0.15265883531999     -0.38574789394612
  Cl  1.37661565240658     -0.96502702320453     -1.96227808614979
  H   -1.18928201652444     -0.11733855881780     -1.36606928109123
  C   0.93592331493244      1.50278234507808     -1.18170444061202
  N   1.03608600262558      2.60794283990871     -1.56797349344563
  C   1.70370723559436     -0.03917338935644      0.55210756848759
  H   1.67771528251937     -1.07568879785581      0.88784124270838
  H   2.73098292126302      0.21244660588470      0.28640790962172
  H   1.38447762761646      0.61477754292849      1.36633585226183
  C   -1.33173444829199      0.92069578839850      0.50190478586338
  H   -1.23175600587378      1.92162186736330      0.07795402224460
  H   -0.89497121414162      0.92240190442071      1.50395748660377
  H   -2.39848606377025      0.71122517757653      0.61259325569615
  C   -0.91838544426489     -1.53870346059996      0.21599138002617
  H   -0.56892711577096     -1.58218720431476      1.25053183320882
  H   -1.98762285861461     -1.76315598102355      0.22341991264121
  H   -0.41771062887642     -2.32059986851433     -0.35666240338882
