18
Coordinates from ORCA-job run
  C   0.78463271867944      0.34404858163133     -0.48072688140968
  C   -0.62631548442747     -0.25159619511084     -0.29623404157454
  Cl  0.93033471349187      0.99052123070331     -2.16140254059941
  H   -0.73393135701502     -0.98766067993705     -1.10299874222431
  C   0.98012047091894      1.46555177938299      0.44123017525222
  N   1.12535429138192      2.32851497045816      1.22557715621247
  C   1.90264394592439     -0.67776727943497     -0.29355748722869
  H   1.71727549064207     -1.53946961926083     -0.93854469351730
  H   2.86248177052022     -0.23647716226258     -0.56359940092212
  H   1.95179036513707     -1.00528962576439      0.74565562472940
  C   -1.72496023523525      0.79948545151234     -0.43297528393504
  H   -2.70280690964462      0.31457018096618     -0.38441910723600
  H   -1.67035204270454      1.52537248544588      0.38303724510949
  H   -1.66337145203720      1.33806244874377     -1.37872896244385
  C   -0.74681459379834     -0.96654425874013      1.05071060859532
  H   -0.51501729557249     -0.28862104888975      1.87787725326793
  H   -0.09655239453076     -1.83942076276747      1.12261035968139
  H   -1.77451200173023     -1.31128049667596      1.18648871824272
