18
Coordinates from ORCA-job run
  C   0.78640360116749      0.32189849736541     -0.38605133593172
  C   -0.56300536199571      0.04574738610367      0.31280425282668
  Cl  0.72513753178945     -0.20679825099800     -2.11205117488495
  H   -0.43261407306347      0.46588008397435      1.32019928751704
  C   1.03292558504055      1.76695740019309     -0.39139554635525
  N   1.23413740689144      2.92368879535409     -0.34251038423843
  C   1.96684491816204     -0.38254585203786      0.27647127748295
  H   1.99911850343328     -0.12338621366250      1.33829223766663
  H   1.86839472313487     -1.46223590202217      0.17027826225259
  H   2.90187494252303     -0.07303942477218     -0.19178966585936
  C   -0.85768533964954     -1.44565522368682      0.45064892987539
  H   -0.88894079150211     -1.93064667174782     -0.52755234082922
  H   -0.12478901286150     -1.96182755185291      1.07267629088022
  H   -1.83532107520203     -1.57749860394371      0.92008696186280
  C   -1.72569105590615      0.77520121127575     -0.35534737576044
  H   -1.93639927833418      0.35437563160864     -1.34038544706500
  H   -1.52646625938514      1.84273330250906     -0.47162024989758
  H   -2.62392496424233      0.66715138633990      0.25724602045761
