16

C	-0.562298	0.005026	-1.409442
C	0.0	0.0	0.0
Cl	0.167779	1.413552	-2.343797
H	1.090972	0.0	0.0
H	-0.318359	-0.95464	0.438687
N	-0.146608	-1.175959	-2.121999
H	-0.389213	-1.104308	-3.103556
H	-0.629921	-1.968933	-1.714024
N	-2.002573	0.130807	-1.38185
H	-2.345356	0.158276	-2.336167
H	-2.267953	1.003681	-0.940112
C	-0.492224	1.145021	0.880381
H	-1.559543	1.073683	1.114603
H	-0.292707	2.109614	0.407481
H	0.057375	1.130679	1.823797
Cl	3.704919	0.0	0.0
