16

C	-0.329318	-0.034262	-1.482972
C	0.0	0.0	0.0
Cl	-2.124876	-0.728802	-1.628388
H	1.096052	0.0	0.0
H	-0.318427	-0.951807	0.43395
N	-0.236732	1.222814	-2.095291
H	-0.399442	1.135972	-3.089336
H	-0.851174	1.907632	-1.681154
N	0.473483	-0.952875	-2.249972
H	1.443	-0.685457	-2.066132
H	0.352164	-1.883812	-1.868762
C	-0.574622	1.169241	0.779779
H	-0.129592	2.109975	0.448033
H	-0.33697	1.06245	1.840539
H	-1.663583	1.22686	0.679526
Cl	3.523988	0.0	0.0
