17

C	0.0	0.0	0.0
C	-0.411877	0.038943	-1.518155
F	1.371783	0.0	0.0
H	0.466401	-0.391062	-2.011523
N	-0.593966	0.951038	0.811308
H	-1.616608	0.849553	0.629427
H	-0.435111	0.714972	1.785489
N	-0.214795	-1.462923	0.548867
O	0.131723	-2.38899	-0.182116
O	-0.620992	-1.592744	1.698874
N	-0.573966	1.421652	-1.961473
H	-1.530713	1.682827	-1.740603
H	0.024734	2.020579	-1.401296
N	-1.573766	-0.707517	-1.919836
H	-1.370459	-1.695271	-1.833949
H	-2.346657	-0.484085	-1.26167
H	-3.223531	0.0	0.0
