11
Coordinates from ORCA-job run
  C   0.07583832190475      0.04654041372145     -0.42481623550369
  C   -1.08947297534026     -0.54795663832383      0.34852030318657
  H   0.15225824574713     -0.39708467607368     -1.42296927644907
  H   -1.11419585374648     -0.14889909670495      1.36277276873876
  H   -2.02158648430563     -0.28781429315688     -0.15497038387594
  H   -0.99485203167816     -1.63068555755720      0.39385680584431
  N   1.40848041555830     -0.29978278244648      0.23140215985538
  O   1.45919591854437     -1.37374445043961      0.81815908780823
  O   2.33220085154476      0.48670090476552      0.06754930581373
  C   -0.02410073037827      1.49783208599112     -0.55631484607669
  N   -0.18376567785051      2.65589409022452     -0.66218968934159
