11
Coordinates from ORCA-job run
  C   0.09251072167330      0.04070952176412     -0.42167243074501
  C   -1.10524724227955     -0.54268534783374      0.30883038427790
  H   0.20937246864702     -0.41237509515364     -1.41161424643240
  H   -1.17085381599727     -0.13303378659278      1.31714494179984
  H   -1.01634358863642     -1.62529564621640      0.36963110408161
  H   -2.01475664408774     -0.28509498496416     -0.23604100563774
  N   1.39768455615131     -0.29959995747893      0.29071525611687
  O   1.41373713279359     -1.34771407195796      0.92403858053094
  O   2.33827408638512      0.46540476918886      0.12162889926047
  C   0.00241813492708      1.49093619312890     -0.57122089411561
  N   -0.14779580957643      2.64874840611572     -0.69244058913688
