11
Coordinates from ORCA-job run
  C   0.07104479215972      0.12008406030691     -0.44945186210134
  C   -1.03314272638328     -0.64930311981636      0.26592904351902
  H   0.15956723275847     -0.17909854082809     -1.49463545473832
  H   -1.06905968308988     -0.35585124983506      1.31509541808790
  H   -0.83854813861035     -1.72049175256918      0.19054261600687
  H   -1.99472266359172     -0.43025835886668     -0.19967777062670
  N   1.39268281509026     -0.25195327749901      0.18600891378644
  O   1.62919861890605      0.22555190714801      1.28890716028330
  O   2.08611306051214     -1.04963023331255     -0.43631368035787
  C   -0.11085661341365      1.56628046905128     -0.35731166974903
  N   -0.29427669433777      2.72467009622072     -0.31109271411025
