15

C	0.0	0.0	0.0
C	-0.342938	-0.233989	-1.476014
Br	2.041305	0.0	0.0
H	0.266658	0.442524	-2.077586
H	-0.005325	-1.251314	-1.709828
C	-0.30332	1.370743	0.410882
N	-0.530759	2.484359	0.711899
N	-0.553204	-0.951937	0.879885
H	-1.187418	-0.551209	1.556871
H	-1.020545	-1.696636	0.383038
C	-1.821936	-0.049894	-1.79436
H	-1.963981	-0.203993	-2.868565
H	-2.490377	-0.717326	-1.253671
H	-2.16894	0.95508	-1.548708
Cl	-4.72445	0.0	0.0
