15

C	0.0	0.0	0.0
C	-0.532936	-0.34967	-1.381026
Br	2.039118	0.0	0.0
H	-1.622895	-0.388691	-1.230284
H	-0.168494	-1.355446	-1.624561
C	-0.274558	1.398369	0.362421
N	-0.440058	2.524657	0.653185
N	-0.506555	-0.858587	0.964724
H	-0.200726	-0.706183	1.912876
H	-0.567326	-1.827441	0.691171
C	-0.17643	0.640584	-2.478033
H	-0.606049	0.300703	-3.427029
H	-0.604206	1.624331	-2.254316
H	0.90717	0.744556	-2.604112
Cl	-3.844464	0.0	0.0
