15

C	0.0	0.0	0.0
C	-0.405663	-0.403743	-1.448956
Br	1.96995	0.0	0.0
H	0.126593	0.271411	-2.134743
H	-1.481311	-0.207715	-1.551497
C	-0.319303	1.414498	0.25148
N	-0.521894	2.556959	0.453776
N	-0.427802	-0.951397	0.984365
H	-0.210769	-0.600782	1.918852
H	-1.453196	-0.984333	0.897645
C	-0.139508	-1.871877	-1.755452
H	-0.780616	-2.489636	-1.136515
H	-0.379217	-2.077953	-2.804253
H	0.899262	-2.155693	-1.574426
Cl	-3.375652	0.0	0.0
