15

C	0.0	0.0	0.0
C	-0.449973	0.255594	-1.445969
Br	1.97602	0.0	0.0
H	-1.535065	0.111135	-1.418646
H	-0.008924	-0.541721	-2.056902
C	-0.344184	1.133925	0.873831
N	-0.561364	2.052459	1.573765
N	-0.49207	-1.214616	0.584225
H	-1.50941	-1.073614	0.666157
H	-0.348223	-1.966427	-0.084719
C	-0.125094	1.631728	-2.008159
H	-0.497411	1.706534	-3.036495
H	0.951174	1.833815	-2.016862
H	-0.625517	2.404189	-1.417994
Cl	-3.543341	0.0	0.0
