15

C	0.0	0.0	0.0
C	-0.377149	0.106071	-1.486219
Br	1.965794	0.0	0.0
H	0.193008	0.941651	-1.900578
H	0.00122	-0.810449	-1.950309
C	-0.346947	1.241756	0.717567
N	-0.603217	2.21899	1.31965
N	-0.531998	-1.192213	0.590409
H	-0.393146	-1.181681	1.594832
H	-1.539298	-1.196579	0.421254
C	-1.859301	0.297679	-1.764698
H	-1.996292	0.472262	-2.836018
H	-2.281775	1.146488	-1.227334
H	-2.476968	-0.553134	-1.487435
Cl	-4.652065	0.0	0.0
