15

C	0.0	0.0	0.0
C	-0.468137	-0.12692	-1.451804
Br	1.968747	0.0	0.0
H	-0.000148	-1.034575	-1.845183
H	-1.549077	-0.285229	-1.394329
C	-0.326363	1.330107	0.554615
N	-0.527234	2.398989	1.002277
N	-0.503462	-1.100822	0.766826
H	-1.526331	-1.051511	0.659621
H	-0.293456	-0.954651	1.749222
C	-0.185765	1.085566	-2.326244
H	0.872603	1.358885	-2.33277
H	-0.768628	1.943338	-1.983762
H	-0.487809	0.872165	-3.355749
Cl	-3.562905	0.0	0.0
