15

C	0.0	0.0	0.0
C	-0.409795	-0.29519	-1.457791
F	1.391161	0.0	0.0
H	0.390785	-0.945063	-1.839167
H	-0.328248	0.997299	0.30112
C	-0.499704	-1.037509	0.973021
H	-1.588274	-0.96511	1.03693
H	-0.223808	-2.039797	0.639816
H	-0.052937	-0.845326	1.953666
C	-0.30486	0.957062	-2.250892
N	-0.225562	1.922736	-2.916807
N	-1.676606	-0.988515	-1.551386
H	-2.432924	-0.527999	-0.96214
H	-1.997674	-0.9858	-2.51386
H	-3.533797	0.0	0.0
