15

C	0.0	0.0	0.0
C	-0.621643	-0.101239	-1.381655
F	1.383146	0.0	0.0
H	-1.685979	-0.358982	-1.151221
H	-0.330344	0.955411	0.418689
C	-0.457883	-1.141234	0.882268
H	-0.009273	-1.043289	1.874505
H	-0.142006	-2.096657	0.452222
H	-1.549614	-1.097035	0.950244
C	0.0053	-1.15301	-2.172553
N	0.478483	-2.018639	-2.811787
N	-0.556524	1.197403	-2.082195
H	-1.334274	1.722297	-1.682264
H	-0.812785	1.042619	-3.053157
H	-3.192931	0.0	0.0
