15

C	0.0	0.0	0.0
C	-0.619264	-0.022951	-1.386584
F	1.382191	0.0	0.0
H	-1.682919	-0.294885	-1.173818
H	-0.330815	0.929848	0.472538
C	-0.46078	-1.188764	0.81453
H	-0.015425	-1.148004	1.812354
H	-1.552763	-1.146293	0.881765
H	-0.145092	-2.118868	0.331791
C	0.012931	-1.02585	-2.236466
N	0.487763	-1.835396	-2.943792
N	-0.551103	1.312154	-2.013873
H	-0.83108	1.212266	-2.985892
H	-1.314214	1.823848	-1.569602
H	-3.190563	0.0	0.0
