15

C	0.0	0.0	0.0
C	-0.414338	-0.239963	-1.467268
F	1.388761	0.0	0.0
H	0.392281	-0.860773	-1.881345
H	-0.328385	0.985484	0.338028
C	-0.499655	-1.070975	0.936167
H	-0.221911	-2.060978	0.569311
H	-0.054203	-0.911088	1.923126
H	-1.588437	-1.00205	1.001315
C	-0.336911	1.047033	-2.20693
N	-0.2912	2.043787	-2.82903
N	-1.672902	-0.945903	-1.582338
H	-1.99476	-0.913807	-2.544341
H	-2.430797	-0.505658	-0.979737
H	-3.525836	0.0	0.0
