17

C	-0.537359	0.081734	-1.42894
C	0.0	0.0	0.0
F	0.065732	-0.840105	-2.27229
H	1.090579	0.0	0.0
C	-2.042942	-0.108471	-1.517204
H	-2.541747	0.622575	-0.879777
H	-2.374328	0.02712	-2.549329
H	-2.28428	-1.120819	-1.194545
C	-0.189955	1.41771	-1.964974
N	0.017807	2.444493	-2.495135
N	-0.405114	-1.219977	0.66906
O	-0.560759	-1.185441	1.905367
O	-0.44724	-2.268571	0.003407
N	-0.37654	1.18789	0.7275
H	0.484173	1.558856	1.12904
H	-0.969521	0.918778	1.503443
H	2.473998	0.0	0.0
