17

C	-0.424909	0.025493	-1.465102
C	0.0	0.0	0.0
F	-1.807813	0.325815	-1.54155
H	1.090634	0.0	0.0
C	0.350632	1.114834	-2.178256
H	0.120344	1.113852	-3.244708
H	1.418874	0.938217	-2.004718
H	0.082646	2.082103	-1.750116
C	-0.251053	-1.238957	-2.203843
N	-0.12376	-2.170334	-2.908575
N	-0.512883	-1.239652	0.665132
O	-1.326674	-1.148228	1.584617
O	-0.056391	-2.300715	0.235057
N	-0.386798	1.16004	0.717968
H	-1.238634	1.594148	0.392031
H	0.3911	1.803237	0.779459
H	2.660957	0.0	0.0
