17

C	-0.426528	-0.003976	-1.479805
C	0.0	0.0	0.0
F	0.019768	1.212791	-2.001542
H	1.091216	0.0	0.0
C	0.195855	-1.117915	-2.291159
H	-0.231992	-2.083862	-2.02646
H	1.264881	-1.123876	-2.063994
H	0.026583	-0.921597	-3.35274
C	-1.900961	0.031641	-1.608516
N	-3.071099	0.085095	-1.705506
N	-0.50037	-1.26482	0.610562
O	0.137616	-2.293665	0.38225
O	-1.532099	-1.215179	1.287521
N	-0.456111	1.110767	0.763128
H	0.189083	1.877535	0.61146
H	-1.408403	1.387088	0.554162
H	2.724609	0.0	0.0
