17

C	-0.43187	0.042519	-1.460216
C	0.0	0.0	0.0
F	-1.820996	0.32113	-1.523827
H	1.090562	0.0	0.0
C	0.316929	1.162083	-2.158728
H	0.073913	1.174994	-3.222656
H	0.035274	2.115226	-1.710898
H	1.389649	1.002	-2.001435
C	-0.240816	-1.1957	-2.235579
N	-0.128719	-2.072951	-3.008582
N	-0.484532	-1.252342	0.662105
O	-0.113782	-2.306159	0.137847
O	-1.157228	-1.184378	1.6891
N	-0.38599	1.151518	0.733507
H	-1.209912	1.614127	0.38302
H	0.404098	1.77614	0.827998
H	2.640386	0.0	0.0
