16

C	-0.434881	0.038421	-1.465703
C	0.0	0.0	0.0
Br	0.216882	-1.570545	-2.366165
H	1.09056	0.0	0.0
N	-1.968131	0.023982	-1.504844
O	-2.533358	-1.04046	-1.269522
O	-2.514105	1.114844	-1.652845
C	0.025656	1.176692	-2.24719
N	0.374909	2.032118	-2.976754
N	-0.381577	-1.123423	0.758392
H	0.383342	-1.783979	0.761056
H	-1.256799	-1.55228	0.497373
N	-0.476928	1.272644	0.613486
O	-1.320946	1.229938	1.513483
O	0.038511	2.304767	0.174457
H	2.488047	0.0	0.0
