16

C	-0.53606	-0.032496	-1.40673
C	0.0	0.0	0.0
Br	-2.492028	0.297084	-1.514706
H	1.096796	0.0	0.0
N	0.198288	0.960193	-2.347578
O	-0.37712	1.938155	-2.786802
O	1.35941	0.6222	-2.550093
C	-0.307408	-1.352387	-1.982282
N	-0.157281	-2.408089	-2.477747
N	-0.35052	-1.17597	0.720644
H	0.49082	-1.488956	1.203105
H	-1.058098	-0.960046	1.413296
N	-0.334769	1.245573	0.660301
O	-0.185228	2.282323	-0.002671
O	-0.622562	1.217794	1.867979
H	2.364161	0.0	0.0
