16

C	-0.430557	0.003741	-1.456651
C	0.0	0.0	0.0
Br	-0.240554	-1.774437	-2.220587
H	1.094323	0.0	0.0
N	-1.925372	0.352311	-1.623215
O	-2.272263	0.874247	-2.672577
O	-2.655546	0.022242	-0.69818
C	0.345333	0.908185	-2.298609
N	0.999581	1.611525	-2.976297
N	-0.379023	-1.127301	0.770107
H	0.295137	-1.229982	1.524509
H	-1.312624	-1.007133	1.148887
N	-0.376281	1.284423	0.578639
O	-0.621879	2.231445	-0.194323
O	-0.297863	1.387209	1.810458
H	2.433881	0.0	0.0
