16

C	-0.500468	-0.010002	-1.442785
C	0.0	0.0	0.0
Br	0.149582	1.506773	-2.463277
H	1.088885	0.0	0.0
N	0.067006	-1.288697	-2.119278
O	1.277019	-1.419151	-2.077393
O	-0.751503	-2.039567	-2.643594
C	-1.95061	-0.068226	-1.558967
N	-3.125477	-0.103223	-1.610275
N	-0.526584	-1.145731	0.641381
H	-1.488492	-1.012366	0.938073
H	0.065243	-1.403524	1.425181
N	-0.453151	1.304142	0.634576
O	0.362041	2.221332	0.711241
O	-1.620542	1.348817	1.050417
H	2.734498	0.0	0.0
