16

C	-0.472835	-0.025457	-1.431222
C	0.0	0.0	0.0
Br	-2.459254	0.232524	-1.618693
H	1.09224	0.0	0.0
N	0.247782	1.001626	-2.332603
O	-0.329187	2.012145	-2.692517
O	1.403295	0.668611	-2.572749
C	-0.18809	-1.335042	-2.000616
N	0.04174	-2.399971	-2.444491
N	-0.38333	-1.111359	0.778028
H	0.338034	-1.820678	0.744213
H	-1.304253	-1.478519	0.585087
N	-0.387072	1.284912	0.613367
O	-1.055843	1.298882	1.647532
O	0.054526	2.286469	0.03694
H	2.433883	0.0	0.0
