16

C	-0.420925	0.026177	-1.463915
C	0.0	0.0	0.0
Br	0.015937	-1.696001	-2.28472
H	1.091262	0.0	0.0
N	-1.941336	0.174123	-1.660341
O	-2.639947	-0.373386	-0.816554
O	-2.336601	0.770449	-2.650545
C	0.250542	1.050044	-2.254979
N	0.820944	1.817513	-2.939545
N	-0.31095	-1.117123	0.804337
H	-1.142642	-1.614881	0.531601
H	0.505387	-1.71402	0.876184
N	-0.443114	1.259654	0.607353
O	-0.212959	1.432773	1.80249
O	-0.935386	2.12212	-0.149093
H	2.450378	0.0	0.0
