15

C	-0.51106	0.011435	-1.446536
C	0.0	0.0	0.0
Cl	-0.018836	-1.521834	-2.220862
H	1.091504	0.0	0.0
H	-1.603332	0.014562	-1.44256
C	0.060426	1.19387	-2.20819
H	1.148153	1.206058	-2.10631
H	-0.345245	2.128511	-1.811732
H	-0.211447	1.124156	-3.262859
C	-0.547505	-1.104512	0.776354
N	-0.993395	-1.994306	1.3994
N	-0.497284	1.286606	0.613375
O	-1.713663	1.36803	0.798797
O	0.317773	2.176903	0.820672
Cl	3.262318	0.0	0.0
