15

C	-0.51201	0.099993	-1.445656
C	0.0	0.0	0.0
Cl	0.062127	1.616812	-2.19278
H	1.091412	0.0	0.0
H	-0.00018	-0.704327	-1.979731
C	-2.017817	-0.010856	-1.60556
H	-2.524364	0.817689	-1.110108
H	-2.274154	0.007619	-2.666202
H	-2.376014	-0.946903	-1.170983
C	-0.472739	-1.250926	0.582764
N	-0.834252	-2.28926	0.995294
N	-0.52318	1.139738	0.824997
O	0.195295	2.124293	0.938776
O	-1.659025	1.018924	1.293078
Cl	3.222909	0.0	0.0
