15

C	-0.542881	-0.002218	-1.433741
C	0.0	0.0	0.0
Cl	0.348736	1.115772	-2.501766
H	1.094714	0.0	0.0
H	-0.305741	-0.998492	-1.814793
C	-2.037407	0.254882	-1.53548
H	-2.264219	1.284637	-1.259635
H	-2.583729	-0.428315	-0.878044
H	-2.371822	0.092182	-2.561632
C	-0.486819	-1.195528	0.680337
N	-0.890256	-2.197515	1.142672
N	-0.410375	1.201482	0.803805
O	-0.533348	1.04907	2.016413
O	-0.538429	2.264164	0.203152
Cl	3.158389	0.0	0.0
