15

C	-0.489044	0.022166	-1.455354
C	0.0	0.0	0.0
Cl	-0.087144	-1.550521	-2.204351
H	1.091495	0.0	0.0
H	-1.578625	0.096936	-1.469891
C	0.181177	1.149047	-2.218957
H	-0.078272	1.091327	-3.277246
H	1.264123	1.075199	-2.097459
H	-0.150657	2.117352	-1.834958
C	-0.557664	-1.103671	0.768496
N	-1.01303	-1.992186	1.386677
N	-0.492274	1.287524	0.616685
O	-1.706104	1.368812	0.816584
O	0.326024	2.17558	0.820291
Cl	3.256882	0.0	0.0
