15

C	-0.522998	0.025935	-1.441061
C	0.0	0.0	0.0
Cl	-0.040342	-1.498538	-2.234898
H	1.091595	0.0	0.0
H	-1.614393	0.028066	-1.424367
C	0.03677	1.215156	-2.195878
H	1.123619	1.227213	-2.105361
H	-0.24649	1.15494	-3.247883
H	-0.364252	2.144963	-1.785533
C	-0.532302	-1.121022	0.764886
N	-0.963824	-2.025046	1.377795
N	-0.497749	1.274	0.638294
O	0.314947	2.162672	0.857904
O	-1.711602	1.347046	0.836661
Cl	3.251097	0.0	0.0
