15

C	-0.38354	-0.004327	-1.46727
C	0.0	0.0	0.0
Cl	-2.172944	0.057456	-1.664697
H	1.095304	0.0	0.0
H	-0.002763	0.920607	-1.897612
C	0.194814	-1.217971	-2.16497
H	-0.240791	-2.137769	-1.769801
H	-0.008174	-1.167584	-3.236309
H	1.275197	-1.229181	-1.995049
C	-0.514879	-1.14819	0.727089
N	-0.898803	-2.111684	1.278086
N	-0.413152	1.274591	0.676043
O	-0.779964	1.213406	1.845389
O	-0.299494	2.301815	0.015842
Cl	3.17111	0.0	0.0
