15

C	0.0	0.0	0.0
C	-0.528123	0.331973	-1.396788
Cl	1.804759	0.0	0.0
H	-0.173764	-0.440021	-2.092638
H	-1.617816	0.246598	-1.302676
C	-0.507185	0.97157	1.04784
H	-0.175857	1.973967	0.778419
H	-1.601036	0.921414	1.041337
H	-0.124936	0.705068	2.034982
C	-0.371804	-1.379546	0.332149
N	-0.60217	-2.497304	0.609287
N	-0.15851	1.687321	-1.784494
H	0.65453	1.675119	-2.384133
H	-0.92441	2.108746	-2.29226
Cl	-3.821634	0.0	0.0
