15

C	0.0	0.0	0.0
C	-0.51175	0.314392	-1.407067
Cl	1.804606	0.0	0.0
H	-1.603546	0.27083	-1.32168
H	-0.179612	-0.484702	-2.082614
C	-0.498184	1.001284	1.025689
H	-0.112202	0.75798	2.017224
H	-0.162089	1.993191	0.724628
H	-1.59137	0.955592	1.024139
C	-0.376836	-1.370561	0.363864
N	-0.603638	-2.4816	0.669698
N	-0.086839	1.645737	-1.820722
H	-0.813634	2.075633	-2.374816
H	0.757499	1.595249	-2.374209
Cl	-3.783204	0.0	0.0
