15

C	0.0	0.0	0.0
C	-0.526626	-0.472508	-1.349694
Cl	1.804951	0.0	0.0
H	-1.61766	-0.442282	-1.245905
H	-0.224532	0.281168	-2.092223
C	-0.509882	1.391832	0.329394
H	-0.127268	1.727247	1.294008
H	-1.602908	1.342073	0.349732
H	-0.180853	2.089719	-0.445104
C	-0.360333	-0.957774	1.055441
N	-0.581932	-1.700141	1.938098
N	-0.093272	-1.826354	-1.658485
H	0.769932	-1.818537	-2.183573
H	-0.8037	-2.288953	-2.210052
Cl	-3.76198	0.0	0.0
