15

C	0.0	0.0	0.0
C	-0.397234	-0.09754	-1.50614
Cl	1.803652	0.0	0.0
H	-0.133007	0.871424	-1.947497
H	0.264256	-0.845451	-1.954504
C	-0.585594	1.210128	0.69539
H	-0.265439	2.117853	0.177554
H	-1.678382	1.131468	0.663546
H	-0.263704	1.259333	1.737457
C	-0.380809	-1.242206	0.677683
N	-0.640878	-2.269773	1.184533
N	-1.753373	-0.434218	-1.822184
H	-2.453357	0.170774	-1.398377
H	-1.98701	-1.357335	-1.477525
Cl	-4.339007	0.0	0.0
