13

C	0.0	0.0	0.0
C	-0.479016	-0.026416	-1.434804
Br	1.934607	0.0	0.0
H	-1.572037	-0.15213	-1.385893
H	-0.36547	0.89758	0.494082
H	-0.351638	-0.877216	0.532391
N	0.016501	-1.271605	-2.123774
O	0.034428	-2.310989	-1.468382
O	0.29293	-1.190036	-3.318902
N	-0.00839	1.117692	-2.181642
H	-0.335583	1.947847	-1.701485
H	-0.424136	1.10804	-3.103551
Br	-3.553917	0.0	0.0
