13

C	0.0	0.0	0.0
C	-0.5577	-0.148415	-1.392328
Br	1.943074	0.0	0.0
H	-1.652315	-0.191604	-1.257028
H	-0.333738	0.955269	0.396121
H	-0.330332	-0.812851	0.637834
N	-0.176579	-1.532182	-1.934531
O	0.145255	-1.611951	-3.120406
O	-0.26049	-2.486892	-1.167801
N	-0.195803	0.909155	-2.266764
H	-0.757838	0.869695	-3.105303
H	0.779216	0.843275	-2.529281
Br	-3.685898	0.0	0.0
