13

C	0.0	0.0	0.0
C	-0.565549	-0.186987	-1.398842
Br	1.939825	0.0	0.0
H	-1.627078	-0.425673	-1.245403
H	-0.350527	0.948394	0.399424
H	-0.319973	-0.811076	0.648373
N	0.060928	-1.432332	-1.987708
O	-0.124618	-2.469187	-1.352062
O	0.722173	-1.344764	-3.017231
N	-0.454157	0.904832	-2.306201
H	-1.223305	1.53975	-2.132759
H	0.432429	1.385164	-2.215288
Br	-3.639787	0.0	0.0
