13

C	0.0	0.0	0.0
C	-0.577036	-0.127088	-1.386117
Br	1.940115	0.0	0.0
H	-1.667751	-0.189764	-1.227878
H	-0.328171	-0.824516	0.62299
H	-0.330123	0.945948	0.418437
N	-0.181433	-1.49798	-1.952514
O	0.186174	-1.549112	-3.126865
O	-0.293713	-2.46864	-1.210214
N	-0.25139	0.948053	-2.250879
H	0.706211	0.880719	-2.569258
H	-0.861541	0.938272	-3.056518
Br	-3.72171	0.0	0.0
