13

C	0.0	0.0	0.0
C	-0.568117	-0.23296	-1.394235
Br	1.939816	0.0	0.0
H	-1.621661	-0.495995	-1.229263
H	-0.349309	0.96064	0.368651
H	-0.315254	-0.792223	0.673681
N	0.087038	-1.47488	-1.957563
O	-0.089571	-2.506466	-1.310153
O	0.762806	-1.388532	-2.977339
N	-0.493924	0.841356	-2.324562
H	0.37122	1.360152	-2.241607
H	-1.29043	1.44543	-2.166014
Br	-3.641236	0.0	0.0
