18
Coordinates from ORCA-job run
  C   -0.78240499919002      0.40784624915438     -0.37846274848166
  C   0.36296748950606     -0.31210085995064      0.33755138138992
  H   -0.50259056634094      0.64989028333913     -1.40625392976026
  H   0.00491971320881     -0.52779280394181      1.35300013743219
  N   -0.95240729850668      1.74735842284421      0.29353103381243
  O   -0.59027864012472      2.75004443509018     -0.31706184359839
  O   -1.40756337257793      1.72190570801741      1.43370467347945
  N   -2.06473895136351     -0.23631994391784     -0.36745515319368
  H   -2.17587896435663     -0.85104250442079     -1.15954024247581
  H   -2.21909195082194     -0.74507053184339      0.49267116177171
  C   1.61183509811816      0.56140959839181      0.43171904424708
  H   2.43195901509125     -0.00066076053153      0.88464293470570
  H   1.44388205152544      1.45054856602814      1.04219702918533
  H   1.93482212026881      0.89005525869264     -0.56078222346503
  C   0.66187290857540     -1.62458535118268     -0.38193075027304
  H   -0.21490003837541     -2.27356264289288     -0.42885988179978
  H   1.45240751749231     -2.17267595077960      0.13569334313177
  H   1.00418886787154     -1.43424717209672     -1.40436396610792
