18
Coordinates from ORCA-job run
  C   -0.75447295844632      0.28429611893286     -0.43794791755738
  C   0.38916827151439     -0.36105108183363      0.34206928100891
  H   -0.46188044763551      0.47799854049918     -1.47264458416473
  H   0.00034458474155     -0.57358402234033      1.34711895221601
  N   -0.96371385998384      1.67915054898263      0.14595264151501
  O   -1.51539809266536      1.73403735481561      1.24405951718834
  O   -0.54047357054696      2.63923142760909     -0.49380604949497
  N   -1.93965761427617     -0.50425897274416     -0.39200193653080
  H   -2.27295301815953     -0.57239723806593      0.56214085558859
  H   -2.67272389407818     -0.10978688440042     -0.96768879887429
  C   1.59146978110503      0.57110663770720      0.47122411967874
  H   1.93338774565628      0.90681625284317     -0.51214728722258
  H   2.41797824353864      0.04540754647997      0.95464134649684
  H   1.36735640723889      1.45595060228363      1.06990755480388
  C   0.77574140276835     -1.67330694180046     -0.33523231365344
  H   1.54372055989712     -2.18827311616493      0.24718990877770
  H   -0.08522593243753     -2.33230633434914     -0.44242201984489
  H   1.18633239176915     -1.48003043845436     -1.33141326993093
