18
Coordinates from ORCA-job run
  C   -0.66013898209912      0.77627978220811     -0.25702487375698
  C   0.64897362465032      0.13491165160977      0.24019555001731
  H   -0.43075300539045      1.74833727076005     -0.69973294939177
  H   1.12002044062888      0.87923591712043      0.89301414577765
  N   -1.46801032151446      1.10370109699524      0.97516481195185
  O   -2.35901646745953      0.32346313240886      1.29619119478238
  O   -1.11302518225465      2.09326055305322      1.61193499264338
  N   -1.49286432249201      0.04395119211756     -1.16188706603213
  H   -1.11295202527112      0.06335418319977     -2.09702495037730
  H   -1.64453444609062     -0.90902850303311     -0.86334820186653
  C   1.56595589129055     -0.11867972426941     -0.95304304939372
  H   1.15021419209606     -0.88593020520704     -1.61175038002243
  H   1.72322866099329      0.79087836086494     -1.54044892901805
  H   2.54356584773992     -0.47011748714764     -0.61505477090786
  C   0.41804259840324     -1.14195789813568      1.04290583805834
  H   -0.07857363479849     -1.90905183278707      0.44138563574819
  H   1.37721635001475     -1.55458717336047      1.36481595501820
  H   -0.18534921844654     -0.96902031639753      1.93570704676949
