18
Coordinates from ORCA-job run
  C   -0.70853671122131      0.47176962612688     -0.61276941672272
  C   0.57853563654744     -0.33479286931217     -0.40800784905130
  H   -0.54412885760799      1.23860267941297     -1.37235709728815
  H   0.77674116426329     -0.74979966741553     -1.40355745803200
  N   -0.96771787281588      1.28900761916304      0.65643904634353
  O   -1.59259872395988      0.73611358223653      1.56162164990718
  O   -0.51053828349783      2.42927340772819      0.69806105701165
  N   -1.81645115639115     -0.34602859750157     -0.97190781502874
  H   -2.09188882158066     -0.92956324271683     -0.19240872467141
  H   -2.61192358682797      0.21937195612595     -1.24060856874637
  C   0.41074266910593     -1.49997472387033      0.56474237700209
  H   1.35404934772618     -2.04552681100001      0.64466691487474
  H   0.13805656295930     -1.15245571810234      1.56359261759691
  H   -0.34467501628186     -2.21034874565504      0.22282241025774
  C   1.75296423205589      0.55511444607436     -0.00690641509960
  H   1.64783592250554      0.92081249890783      1.01726584504339
  H   2.68351587167951     -0.01465641468111     -0.06254309983567
  H   1.84601762334144      1.42508097447916     -0.66114547356128
