13

C	-0.578631	-0.001283	-1.405609
C	0.0	0.0	0.0
Cl	-0.213225	-1.605181	-2.190968
H	1.092071	0.0	0.0
H	-1.67684	-0.010337	-1.347096
H	-0.336772	-0.905323	0.518491
N	-0.042625	1.06708	-2.180873
H	0.155991	1.837856	-1.549113
H	-0.688233	1.363565	-2.903225
N	-0.419734	1.244815	0.662223
H	-1.270696	1.105591	1.189261
H	0.306101	1.521319	1.30863
Br	3.763011	0.0	0.0
