13

C	-0.414548	0.09994	-1.454098
C	0.0	0.0	0.0
Cl	-0.217008	-1.585064	-2.257481
H	1.101786	0.0	0.0
H	-1.4838	0.276702	-1.578876
H	-0.325723	0.939974	0.458562
N	0.360599	1.098178	-2.079001
H	1.348718	0.956533	-1.880876
H	0.208413	1.138339	-3.077176
N	-0.641765	-1.106835	0.708433
H	-0.219467	-1.966646	0.375133
H	-0.372943	-1.028754	1.683162
Br	3.697847	0.0	0.0
