13

C	-0.577359	-0.043218	-1.408521
C	0.0	0.0	0.0
Cl	-0.110007	1.444928	-2.283666
H	1.097598	0.0	0.0
H	-0.125989	-0.870282	-1.961964
H	-0.366153	0.905456	0.494777
N	-2.024691	-0.182847	-1.468596
H	-2.22672	-0.925987	-0.801289
H	-2.425724	0.66588	-1.079454
N	-0.514498	-1.189658	0.718428
H	-0.549846	-0.973791	1.707214
H	0.18763	-1.917193	0.627508
Br	3.716745	0.0	0.0
