13

C	-0.572612	-0.029761	-1.400291
C	0.0	0.0	0.0
Cl	-0.027788	1.504633	-2.292448
H	1.096224	0.0	0.0
H	-0.119851	-0.825837	-1.990409
H	-0.335987	-0.929818	0.471281
N	-1.986602	-0.152647	-1.349634
H	-2.40648	0.003482	-2.25646
H	-2.326057	0.537307	-0.687129
N	-0.593496	1.125981	0.741421
H	-0.426626	0.968015	1.72822
H	-0.060922	1.954809	0.499773
Br	3.748022	0.0	0.0
