13

C	-0.573996	-0.03435	-1.399919
C	0.0	0.0	0.0
Cl	-0.02336	1.493992	-2.300783
H	1.096191	0.0	0.0
H	-0.122767	-0.833058	-1.986879
H	-0.335597	-0.928833	0.473813
N	-1.987593	-0.154842	-1.349038
H	-2.408451	-0.005005	-2.255768
H	-2.326264	0.538561	-0.690459
N	-0.594058	1.126885	0.73982
H	-0.421513	0.972731	1.726459
H	-0.064887	1.95642	0.49261
Br	3.744788	0.0	0.0
