13

C	-0.358479	0.330652	-1.453783
C	0.0	0.0	0.0
Cl	-0.252966	-1.242845	-2.485537
H	1.092269	0.0	0.0
H	-1.407111	0.601305	-1.597883
H	-0.32452	0.867264	0.585987
N	0.493158	1.352521	-1.904221
H	1.466066	1.140529	-1.69123
H	0.380148	1.564399	-2.884646
N	-0.525022	-1.215274	0.590375
H	-0.015407	-2.002196	0.210049
H	-1.498367	-1.337949	0.335355
Br	3.67885	0.0	0.0
