17

C	0.0	0.0	0.0
C	-0.257245	0.050853	-1.565263
F	1.385028	0.0	0.0
H	0.669498	-0.403582	-1.938247
C	-0.580299	1.132528	0.723715
N	-0.570846	2.149326	1.339397
C	-0.505675	-1.256243	0.574495
N	-0.513874	-2.353834	1.019918
C	-0.285648	1.502407	-2.030182
H	-0.270197	1.54698	-3.125187
H	0.573202	2.061565	-1.647761
H	-1.198779	1.984107	-1.671089
C	-1.394233	-0.747653	-2.191915
H	-1.4966	-1.731777	-1.730117
H	-1.159376	-0.885983	-3.258695
H	-2.347641	-0.234775	-2.086079
H	-2.106421	0.0	0.0
