17

C	0.0	0.0	0.0
C	-0.371945	-0.007273	-1.487474
F	1.38564	0.0	0.0
H	-1.474261	-0.019392	-1.482529
C	-0.407325	1.19804	0.74766
N	-0.592716	2.137903	1.433054
C	-0.438696	-1.182792	0.751543
N	-0.612194	-2.085391	1.49098
C	0.181228	-1.278862	-2.133671
H	-0.078563	-1.296392	-3.197877
H	-0.262869	-2.166827	-1.673621
H	1.270605	-1.343992	-2.050996
C	0.162437	1.253568	-2.163944
H	1.254949	1.329016	-2.080845
H	-0.092296	1.221838	-3.229872
H	-0.301805	2.142749	-1.740136
H	-2.56541	0.0	0.0
