17

C	0.0	0.0	0.0
C	-0.338989	0.01826	-1.511869
F	1.385638	0.0	0.0
H	-1.42894	0.017895	-1.536854
C	-0.443793	1.193052	0.742107
N	-0.657072	2.063544	1.507019
C	-0.442213	-1.208525	0.708457
N	-0.656144	-2.097586	1.453595
C	0.215076	-1.235043	-2.180977
H	-0.203838	-2.139401	-1.73099
H	1.305634	-1.285439	-2.110339
H	-0.057837	-1.235775	-3.240416
C	0.213743	1.284617	-2.157155
H	-0.209515	2.18024	-1.693532
H	-0.054002	1.299777	-3.218011
H	1.303907	1.336262	-2.083263
H	-2.487261	0.0	0.0
