17

C	0.0	0.0	0.0
C	-0.181434	-0.023407	-1.56618
F	1.385017	0.0	0.0
H	0.541112	0.750048	-1.867938
C	-0.495486	1.219107	0.652473
N	-0.699544	2.129252	1.378092
C	-0.498926	-1.168989	0.720077
N	-0.651814	-2.039041	1.504017
C	-1.499936	0.325828	-2.236555
H	-1.928782	1.241103	-1.838159
H	-2.237823	-0.466951	-2.100353
H	-1.290588	0.45507	-3.312735
C	0.333083	-1.370327	-2.086335
H	-0.292209	-2.186002	-1.70745
H	1.371435	-1.551061	-1.789945
H	0.287732	-1.388343	-3.183161
H	-2.126968	0.0	0.0
