17

C	0.0	0.0	0.0
C	-0.227422	0.165792	-1.562988
F	1.385037	0.0	0.0
H	0.626328	-0.407742	-1.95099
C	-0.559651	1.099699	0.789435
N	-0.555975	2.080521	1.459883
C	-0.565397	-1.273852	0.467144
N	-0.56861	-2.406338	0.823669
C	-0.019189	1.630907	-1.939781
H	-0.855745	2.233938	-1.574811
H	0.034964	1.73521	-3.029186
H	0.902477	2.027454	-1.507405
C	-1.462517	-0.399809	-2.250998
H	-1.242774	-0.459736	-3.328456
H	-2.336264	0.2264	-2.08707
H	-1.700903	-1.398621	-1.884734
H	-2.0946	0.0	0.0
