17

C	0.0	0.0	0.0
C	-0.281354	0.008004	-1.545424
F	1.396605	0.0	0.0
H	-1.363019	0.009294	-1.658839
C	-0.41869	1.272737	0.622978
N	-0.472838	2.379799	1.0257
C	-0.70911	-1.12279	0.639945
N	-0.64147	-2.186952	1.182254
C	0.298194	-1.259528	-2.168757
H	1.388929	-1.273978	-2.094231
H	-0.095718	-2.152722	-1.678841
H	0.027441	-1.301998	-3.228089
C	0.293296	1.255766	-2.203948
H	1.37594	1.319737	-2.064273
H	-0.161549	2.16253	-1.796951
H	0.087992	1.231428	-3.27889
H	-2.198178	0.0	0.0
