17

C	0.0	0.0	0.0
C	-0.204014	0.047787	-1.576981
F	1.384373	0.0	0.0
H	0.595487	-0.631628	-1.901697
C	-0.572894	1.161421	0.684227
N	-0.56149	2.209504	1.243869
C	-0.575888	-1.234173	0.550576
N	-0.576086	-2.342085	0.978696
C	0.140856	1.452143	-2.069421
H	1.076079	1.808374	-1.634179
H	-0.652933	2.152986	-1.794631
H	0.242929	1.45473	-3.158473
C	-1.480815	-0.453531	-2.235355
H	-1.796834	-1.412785	-1.823513
H	-1.27325	-0.581626	-3.311477
H	-2.304888	0.245082	-2.106787
H	-2.085614	0.0	0.0
