17

C	0.0	0.0	0.0
C	-0.262831	-0.049199	-1.564669
F	1.385082	0.0	0.0
H	0.675478	0.378283	-1.941102
C	-0.515732	1.246435	0.583676
N	-0.523076	2.340437	1.039786
C	-0.560635	-1.142868	0.724271
N	-0.554922	-2.164252	1.330249
C	-1.373722	0.789069	-2.185074
H	-1.147052	0.912349	-3.256001
H	-1.427741	1.779915	-1.729677
H	-2.347071	0.319897	-2.064661
C	-0.336564	-1.497139	-2.032886
H	0.510363	-2.080215	-1.659866
H	-0.329168	-1.537966	-3.127636
H	-1.25958	-1.954398	-1.667082
H	-2.113171	0.0	0.0
