16

C	0.0	0.0	0.0
C	-0.576579	-0.140194	-1.429402
F	1.350565	0.0	0.0
H	-1.478439	-0.752558	-1.3363
N	-0.492784	1.111631	0.675834
H	-0.241267	1.039409	1.655184
H	-1.514875	1.092786	0.601503
N	-0.267012	-1.337701	0.770646
O	-0.317783	-2.370701	0.113755
O	-0.308842	-1.260598	1.994478
C	0.388282	-0.843423	-2.28709
N	1.139959	-1.396852	-2.999533
N	-0.984467	1.107004	-2.052994
H	-1.924851	1.294453	-1.716422
H	-0.380389	1.857442	-1.741132
Br	-3.648631	0.0	0.0
