18

C	-0.515259	-0.012689	-1.435274
C	0.0	0.0	0.0
F	-0.111505	1.188809	-1.979993
H	1.089198	0.0	0.0
N	0.239717	-1.079143	-2.266687
O	-0.434079	-1.777006	-3.027823
O	1.457976	-1.079578	-2.177603
C	-1.987623	-0.171816	-1.682469
H	-2.320937	-1.14893	-1.341321
H	-2.17711	-0.091199	-2.752382
H	-2.516861	0.611615	-1.144712
N	-0.433317	-1.174681	0.768556
O	-0.592015	-2.2159	0.125592
O	-0.566181	-1.058332	1.983437
N	-0.471945	1.230227	0.701589
O	-1.683735	1.344064	0.914653
O	0.382953	2.044951	1.028933
F	2.486517	0.0	0.0
