18

C	-0.27977	0.006161	-1.493061
C	0.0	0.0	0.0
F	0.087116	-1.227492	-1.948703
H	1.089883	0.0	0.0
N	-1.752792	0.165937	-1.846689
O	-2.348207	1.048373	-1.235155
O	-2.209994	-0.524991	-2.74694
C	0.52843	1.044668	-2.227175
H	1.546944	0.940384	-1.843487
H	0.158009	2.047178	-2.027532
H	0.47693	0.818515	-3.294492
N	-0.586774	-1.18995	0.653258
O	-0.017713	-1.603681	1.658269
O	-1.60783	-1.674236	0.159382
N	-0.466483	1.198161	0.732223
O	-1.227194	1.042104	1.68535
O	-0.007743	2.273525	0.36104
F	2.493469	0.0	0.0
