18

C	-0.388842	-0.069106	-1.4728
C	0.0	0.0	0.0
F	-1.652971	-0.553691	-1.665271
H	1.086317	0.0	0.0
N	-0.37013	1.342671	-2.048741
O	0.575192	2.045127	-1.714641
O	-1.239766	1.626276	-2.862196
C	0.640115	-0.852195	-2.258517
H	1.625968	-0.570136	-1.873981
H	0.523428	-0.64329	-3.323218
H	0.483848	-1.914032	-2.074309
N	-0.48314	-1.232686	0.677034
O	-0.003678	-2.2881	0.273008
O	-1.310542	-1.131145	1.581017
N	-0.58646	1.145749	0.732175
O	-0.05836	1.428616	1.802537
O	-1.564921	1.714864	0.243655
F	2.506325	0.0	0.0
