18

C	-0.390635	-0.080119	-1.471904
C	0.0	0.0	0.0
F	-1.663436	-0.544176	-1.657122
H	1.086369	0.0	0.0
N	-0.343851	1.324098	-2.065225
O	0.609385	2.016699	-1.734258
O	-1.201843	1.608466	-2.890762
C	0.627487	-0.889686	-2.243672
H	0.449808	-1.947227	-2.05389
H	0.529131	-0.684613	-3.311664
H	1.614089	-0.62191	-1.851434
N	-0.488242	-1.226656	0.682867
O	-1.345393	-1.119582	1.557787
O	0.011622	-2.283555	0.307686
N	-0.582005	1.151471	0.724596
O	-0.077974	1.408536	1.813744
O	-1.529911	1.7528	0.214553
F	2.507553	0.0	0.0
