18

C	-0.4027	-0.076666	-1.46699
C	0.0	0.0	0.0
F	-1.680273	-0.540802	-1.638749
H	1.086306	0.0	0.0
N	-0.363443	1.326118	-2.062837
O	-1.231043	1.610107	-2.877854
O	0.595149	2.016752	-1.743672
C	0.603874	-0.894	-2.250939
H	0.484381	-0.701152	-3.317253
H	0.429795	-1.94868	-2.046682
H	1.595475	-0.61969	-1.877849
N	-0.484482	-1.226681	0.68716
O	-1.338263	-1.120235	1.566397
O	0.017376	-2.284036	0.312638
N	-0.569698	1.151452	0.73293
O	-1.51887	1.762426	0.236177
O	-0.05128	1.399399	1.818165
F	2.500002	0.0	0.0
