12
Coordinates from ORCA-job run
  C   -0.81448513210167      0.22838984752816      0.20772680743448
  C   0.61415747975872      0.02104872924798      0.71901861160186
  Cl  -1.76765321019141      0.75788540601179      1.63807726017135
  H   1.01239468936098      0.95429835797095      1.11873150704796
  H   0.63108693928588     -0.74587640784725      1.49414541599487
  C   -1.39224748724989     -1.01903872407134     -0.29353944145289
  N   -1.84706848776838     -2.04202254014301     -0.65011507462230
  C   -0.87622872483118      1.28533520206198     -0.80238136076136
  N   -0.91078155175362      2.17054537844607     -1.57417078263041
  N   1.54992922728232     -0.42776954800121     -0.36228277683592
  O   1.09587220484265     -0.57271155894983     -1.49388377633884
  O   2.70502405336560     -0.61108414225429     -0.00332638960880
