17

C	0.0	0.0	0.0
C	-0.380861	-1.125982	-0.995707
Br	1.992535	0.0	0.0
H	0.029465	-2.046005	-0.543387
C	-0.353804	1.308671	-0.555941
N	-0.616024	2.357559	-1.014883
N	-0.50419	-0.12929	1.328425
H	-1.468097	0.20063	1.355882
H	-0.484607	-1.103279	1.610857
N	0.194537	-0.835051	-2.301601
H	-0.370188	-1.262525	-3.023758
H	1.139789	-1.184882	-2.3725
C	-1.887724	-1.254542	-1.127442
H	-2.405855	-1.454401	-0.192625
H	-2.099844	-2.078172	-1.817864
H	-2.33749	-0.344888	-1.526288
Cl	-4.736311	0.0	0.0
