17

C	0.0	0.0	0.0
C	-0.575677	-0.058299	-1.418977
Br	2.062181	0.0	0.0
H	-1.651829	0.064059	-1.210851
C	-0.258904	1.295444	0.638375
N	-0.424515	2.337791	1.155015
N	-0.496073	-1.047069	0.742858
H	-0.510316	-1.909589	0.216857
H	-0.206118	-1.111533	1.70353
N	-0.376754	-1.411025	-1.929977
H	-1.196267	-1.690539	-2.452955
H	0.432936	-1.444227	-2.537378
C	-0.085817	1.048687	-2.335388
H	-0.654589	1.01305	-3.268463
H	-0.237173	2.033348	-1.887366
H	0.977271	0.930909	-2.564877
Cl	-3.823107	0.0	0.0
