13
Coordinates from ORCA-job run
  C   0.87889563478762      0.14030037332013      0.19578851171842
  C   -0.35456465976376     -0.68916782763958     -0.15849079576465
  F   0.94917195615423      0.28589012543990      1.57102963008288
  H   -0.22068972646271     -1.65872038402705      0.33060850037201
  H   -0.34655976729973     -0.86105579680595     -1.23897731492272
  C   0.80726658063983      1.48515042403283     -0.40522599512181
  N   0.71044301838326      2.54666525217632     -0.89764893153993
  C   2.10851357306748     -0.53355182364217     -0.25887161403547
  N   3.06324933312741     -1.10734980622042     -0.63037869356715
  C   -1.64951332043367     -0.02214843204117      0.28890505295001
  H   -1.82330394622659      0.91390677244116     -0.24561132792865
  H   -2.49339703552363     -0.68458387020749      0.08887378544729
  H   -1.62951164044973      0.18666499317349      1.35899919230977
