13
Coordinates from ORCA-job run
  C   0.66073222885189      0.59390195705510     -0.20305919534347
  C   -0.53619830886358     -0.31097312228117     -0.49187875745056
  F   0.20384084843895      1.83515382955246      0.20657959147485
  H   -0.15617315251300     -1.25586036684098     -0.89167635428692
  H   -1.10380823937585      0.17938894662855     -1.28845832838401
  C   1.47733000380769      0.78170927774684     -1.41585117550379
  N   2.09459081444688      0.91195309320540     -2.40621687597950
  C   1.50269793538297      0.03661873080295      0.87195976446539
  N   2.14405785210725     -0.43946246932906      1.73260309531884
  C   -1.40239712701532     -0.53723508286205      0.74113354560862
  H   -2.28505257129632     -1.11883953942500      0.46974765916715
  H   -0.86244912286770     -1.08739875561811      1.51436083225126
  H   -1.73817116110385      0.41204350136505      1.15975619866214
