13
Coordinates from ORCA-job run
  C   0.93517935473259     -0.01125467684016     -0.44770978164865
  C   -0.44668484456462     -0.65953423207225     -0.46971023653511
  F   1.72309034351924     -0.59923769577998     -1.42076629636919
  H   -0.83355716708392     -0.52595191116950     -1.48409720137844
  H   -0.28730922679774     -1.73013807939204     -0.31191419835660
  C   1.58939448189622     -0.20777058462453      0.85931892173788
  N   2.07605118577388     -0.39306443686266      1.91184781137562
  C   0.84552206635613      1.43264744996737     -0.73415270544750
  N   0.72982072810458      2.57681553988727     -0.97176271370543
  C   -1.39561570477510     -0.07724881061475      0.57067797627470
  H   -1.01177471781340     -0.21669868897937      1.58340271055108
  H   -2.36280625845118     -0.57815808238927      0.50884535427689
  H   -1.56131024089669      0.98959420886987      0.40702035922474
