13
Coordinates from ORCA-job run
  C   0.87012991957664      0.15540416368233      0.22222066792560
  C   -0.29756879356743     -0.62810290276259     -0.37602112993122
  F   0.98524054085369     -0.15502257226521      1.56641591082729
  H   -0.32282250336352     -0.42669844925452     -1.45117123618290
  H   -0.05471216622075     -1.68677809186776     -0.24426928682991
  C   0.65223251229478      1.60929721000417      0.10334143237625
  N   0.44014013707796      2.75855323790955     -0.00859111609070
  C   2.13469815987404     -0.20482673686331     -0.44424898247054
  N   3.11959375057124     -0.52572007796001     -0.99718531366649
  C   -1.62638016831567     -0.28370606477449      0.28565260692692
  H   -1.90093148256969      0.75955545691636      0.11542875971819
  H   -1.58250891213575     -0.46092121729537      1.36093909927049
  H   -2.41711099407554     -0.91103395546915     -0.12951141187298
