13
Coordinates from ORCA-job run
  C   0.85721715268805      0.04262359623643     -0.30433748181918
  C   -0.29208010765421     -0.48676734289806      0.55240642747667
  F   0.87204429763408     -0.63376996312479     -1.51247609224083
  H   -0.09535966064732     -1.55301355895155      0.70009785113341
  H   -0.23487650815549     -0.00193300110766      1.53160936303561
  C   2.15191400187936     -0.18059196246191      0.36395494098902
  N   3.16321275329270     -0.38306036674552      0.92521609994387
  C   0.69468986264121      1.48115391417702     -0.58579639784532
  N   0.53039574066809      2.62519449028271     -0.79298676996603
  C   -1.65118430208091     -0.26501515608844     -0.09991194896482
  H   -1.68582384933077     -0.72023102323592     -1.09016429142243
  H   -2.43148368650450     -0.72249037738430      0.51048086474893
  H   -1.88066569443029      0.79790075130200     -0.19709256506890
