13
Coordinates from ORCA-job run
  C   0.86469591311737      0.15060190724007      0.24120550195422
  C   -0.30158630223669     -0.65339615372413     -0.33149586548474
  F   0.92810085857467     -0.05282536974156      1.60971003528572
  H   -0.09201691573422     -1.70205935355638     -0.10026686513524
  H   -0.28315251039339     -0.54568636638466     -1.42012166169184
  C   0.68729144849567      1.59457096735994     -0.00099436098387
  N   0.51961526768638      2.73601120593407     -0.21916264819315
  C   2.14178647718955     -0.28867557831941     -0.34939755447155
  N   3.13764199160602     -0.66246931594085     -0.84656689927401
  C   -1.64303471089405     -0.22026477428877      0.24707563617053
  H   -1.63769690217001     -0.28922503228799      1.33528527244453
  H   -2.43398105138288     -0.87085017231443     -0.12960342096509
  H   -1.88866356385842      0.80526803602411     -0.03566716965554
