16

C	-0.359192	0.032308	-1.470056
C	0.0	0.0	0.0
F	-1.750904	0.210995	-1.629663
H	1.098175	0.0	0.0
H	-0.163095	-0.956214	-1.900776
N	0.311844	1.118908	-2.124765
H	1.263422	1.16791	-1.769015
H	0.360359	0.947888	-3.120954
N	-0.474791	-1.257088	0.580128
H	-1.453839	-1.154128	0.828287
H	0.043583	-1.43055	1.433456
C	-0.493778	1.248008	0.725949
H	-1.588104	1.283273	0.723358
H	-0.142511	1.23191	1.761241
H	-0.122254	2.156362	0.248585
Cl	3.517679	0.0	0.0
