16

C	-0.491266	-0.024524	-1.435137
C	0.0	0.0	0.0
F	-1.919097	-0.002082	-1.43626
H	1.100704	0.0	0.0
H	-0.236752	-0.977529	-1.909075
N	0.03224	1.028176	-2.218243
H	-0.117927	1.927013	-1.783657
H	-0.372461	1.025464	-3.144456
N	-0.512912	-1.208401	0.680432
H	-0.107243	-1.19862	1.612388
H	-0.079083	-2.008094	0.225826
C	-0.500212	1.221947	0.755946
H	-0.073605	2.145053	0.35586
H	-0.175738	1.162616	1.798568
H	-1.590633	1.270119	0.727483
Cl	3.634072	0.0	0.0
