16

C	-0.431106	-0.093623	-1.459278
C	0.0	0.0	0.0
F	-0.349966	1.167741	-2.04988
H	1.097235	0.0	0.0
H	-1.482897	-0.406382	-1.520295
N	0.367568	-0.999128	-2.242418
H	1.342766	-0.76165	-2.064716
H	0.230038	-1.916688	-1.83254
N	-0.405152	-1.277171	0.617303
H	0.307693	-1.550707	1.282972
H	-1.272291	-1.151319	1.129625
C	-0.539153	1.224373	0.71934
H	-1.63773	1.230903	0.710855
H	-0.200377	1.223956	1.759073
H	-0.188032	2.140733	0.244142
Cl	3.51201	0.0	0.0
