12
Coordinates from ORCA-job run
  C   -1.26665272219539      0.32915901431335      0.13778834498273
  C   0.16877151634873     -0.05984997726079      0.37363786855206
  Cl  -2.31309940193705     -0.99853273256753      0.68049497190043
  H   0.39194416055137     -0.31499107125482      1.40864670951886
  H   -1.43604488251473      0.50571529011121     -0.92197956365378
  H   -1.50811469017822      1.22072010961396      0.71146473862890
  N   1.11940051346530      1.03914081189155     -0.03467493722757
  O   2.30793967501541      0.74869158730922      0.01234913687091
  O   0.63316539551047      2.11798720066016     -0.35577753196139
  N   0.54555408841068     -1.24622157216766     -0.46420383211892
  O   0.99210030928721     -2.22364658816704      0.12300284886711
  O   0.36603603823621     -1.11717207248161     -1.67074875435934
