12
Coordinates from ORCA-job run
  C   -1.29002381770747      0.12238177554711      0.15146636202065
  C   0.18688225912579     -0.08567465490311      0.35608698784838
  Cl  -1.86423019810881      1.38656082602258      1.25296123542649
  H   0.47237365134302     -0.23804998818029      1.39375101228965
  H   -1.48312428306120      0.43083355011866     -0.87353283136642
  H   -1.81657034473804     -0.80337251362042      0.38522522426901
  N   1.01014565646422      1.06236847536141     -0.16083743208957
  O   0.51692615197839      1.78328833103105     -1.01881910662232
  O   2.13937348466556      1.13912830129042      0.31476048862831
  N   0.62199709320061     -1.30116177487344     -0.41456155182089
  O   0.64821093764423     -1.19060004521349     -1.63566033711180
  O   0.86103940919369     -2.30370228258049      0.24915994852850
