12
Coordinates from ORCA-job run
  C   -1.22639916896761      0.38359507668930      0.22662159276333
  C   0.17715627679648     -0.14904421647285      0.33952771404211
  Cl  -2.36897953495324     -0.84184964108667      0.80449755542918
  H   0.41882561313996     -0.55436341364494      1.31870259993293
  H   -1.32371061236142      1.26903821006183      0.85545707932011
  H   -1.45246633340699      0.61756863872565     -0.81126556116777
  N   1.14790392321039      0.96466325516976      0.06030361113533
  O   1.22011749641831      1.34458245608195     -1.10349442322890
  O   1.73867134065630      1.42161238592424      1.03238452523194
  N   0.46890453424916     -1.22917001698227     -0.66602413189573
  O   -0.21662104572837     -1.27166200443883     -1.67962036539627
  O   1.41659751094704     -1.95497073002718     -0.37909019616626
