12
Coordinates from ORCA-job run
  C   -1.24961537587259      0.13071687713680      0.37752686687963
  C   0.02626372922994     -0.04456532744159     -0.40469271464651
  Cl  -1.99718712329140      1.67246267087112     -0.08519375868261
  H   -0.12074735489427     -0.01220515137468     -1.48420951405210
  H   -1.03242210466231      0.14879116809573      1.44381872158565
  H   -1.93845467158800     -0.67583881061793      0.14219182179343
  N   0.69090150647715     -1.36434111615001     -0.08208010387050
  O   1.90172389761331     -1.42076352949630     -0.24556568366689
  O   -0.05236103824236     -2.27617853624327      0.26201529156458
  N   1.01770855643218      1.02389796669744     -0.06098220435957
  O   1.24635199333781      1.17162415475478      1.13438832807127
  O   1.50783798546054      1.64539963376793     -0.99621705061640
