12
Coordinates from ORCA-job run
  C   -1.29229654994500      0.19578600391677      0.11494936030125
  C   0.15087204446765     -0.17754699788394      0.33481615040480
  Cl  -1.74149059338058      1.45561131473802      1.28157812266179
  H   0.35933731304543     -0.51884269435965      1.34875607618332
  H   -1.42663794125784      0.58307960426873     -0.89323326509550
  H   -1.92510920975597     -0.67227188860289      0.27755012741883
  N   1.05350939264526      0.98669460257885      0.06553156097322
  O   0.89805325641223      1.53989539663969     -1.01743520977830
  O   1.85944958996278      1.27619478157626      0.94177392642939
  N   0.58227447896008     -1.27971700118626     -0.60684741421849
  O   1.77473899542721     -1.33517459808950     -0.87322936858317
  O   -0.29470077658126     -2.05270852359609     -0.97521006669714
