12
Coordinates from ORCA-job run
  C   -1.25767227073933      0.33771863369352      0.20455650522259
  C   0.17382131867695     -0.09504303848673      0.36462533063673
  Cl  -2.31265734067314     -0.99220840939385      0.72447926548104
  H   0.42663429334104     -0.44715973570888      1.36201484143709
  H   -1.45326039678985      1.20514843520152      0.83300488606513
  H   -1.46471758651575      0.57178189186874     -0.83604715589508
  N   1.12834349030880      1.01837000474077      0.02377930996926
  O   0.68804885310792      1.95755669484293     -0.63188424737474
  O   2.27982246345503      0.86401856276336      0.41680648510344
  N   0.51234922798301     -1.20987025112874     -0.58857549835562
  O   1.06726629326771     -2.19205547497478     -0.11052281240861
  O   0.21202165457761     -1.01925731341785     -1.76223690988121
