12
Coordinates from ORCA-job run
  C   -1.29444056017043      0.16583479145520      0.18654799720456
  C   0.16906076613517     -0.13859317827856      0.35257480806845
  Cl  -1.72615226342952      1.48865669484127      1.28917453746040
  H   0.46956902917865     -0.34938422071269      1.37626797987604
  H   -1.50048839236897      0.47137368791899     -0.83555761955142
  H   -1.88532076029430     -0.71150314665669      0.44495999582293
  N   1.01836308178944      1.01017397334709     -0.12183272698473
  O   1.89744484885262      1.39488943366354      0.63998345639403
  O   0.75661816428972      1.44262392788002     -1.23918752006893
  N   0.58764311264063     -1.31303765243785     -0.49149454699208
  O   -0.15614216218640     -1.64002150417241     -1.41110573217156
  O   1.66284513556339     -1.82101280684790     -0.19133062905768
