12
Coordinates from ORCA-job run
  C   -1.29477097320048      0.21279825142956      0.10177003814447
  C   0.13955146223278     -0.17264685612054      0.34980954887193
  Cl  -1.73691736659723      1.51534649587220      1.22428157868065
  H   0.34387812473498     -0.47484916400086      1.37597840888013
  H   -1.94435375834593     -0.64008293467050      0.28333319505230
  H   -1.41461558389600      0.56689731478204     -0.91959989356276
  N   1.06180911072913      0.96829239197860      0.03452405242930
  O   0.96742114569055      1.42382109780552     -1.10046330427019
  O   1.81596694048123      1.33750676386404      0.92592585122938
  N   0.57735959252095     -1.30339205738649     -0.54890837489533
  O   -0.28049857284626     -1.84312796926836     -1.23902980528901
  O   1.76616987849629     -1.59056333428521     -0.48862129527087
