12
Coordinates from ORCA-job run
  C   -1.26248418051036      0.34884629031059      0.12803392323463
  C   0.16515276533923     -0.06131005310917      0.37501165062569
  Cl  -2.33300555715973     -0.96019230355157      0.66892225214137
  H   0.37751934303966     -0.31664835109082      1.41222021573985
  H   -1.49376549527889      1.24643565582291      0.69651500311769
  H   -1.42205859768790      0.52372248360775     -0.93352163520499
  N   1.13536204163983      1.02135339234348     -0.03056233444599
  O   0.66815859600030      2.10534002889791     -0.36251662360953
  O   2.31902650895001      0.71347753208753      0.02875909472282
  N   0.52945986759666     -1.25618607163913     -0.45640782364443
  O   0.36006971922510     -1.12875989068817     -1.66457875361545
  O   0.95756498884611     -2.23807871299132      0.13712503093834
