12
Coordinates from ORCA-job run
  C   -1.28752444108654      0.20582159122186      0.10202955252666
  C   0.11294800356805     -0.07459169943880     -0.37892211083259
  Cl  -1.87502642261873      1.69128521739387     -0.66965801504608
  H   0.18532305187305     -0.14511303622147     -1.46388374034810
  H   -1.28898317662586      0.34698938400209      1.18130584815664
  H   -1.93834098953831     -0.61656516044464     -0.18299568937335
  N   0.61099226118414     -1.38868073651198      0.18462111296054
  O   1.74540730389405     -1.42409186528683      0.63918311403289
  O   -0.17811712982038     -2.32102255351150      0.08675785502969
  N   1.06872590921770      0.98932256441203      0.05966230699748
  O   1.87673141394146      1.37365962148630     -0.77894802406220
  O   0.96786421601137      1.36498667289908      1.22184778995842
