12
Coordinates from ORCA-job run
  C   -1.24697541719016      0.15304916876988      0.43734328495476
  C   0.24134928450119     -0.08581684922937      0.35612004578251
  Cl  -2.01157254543623      0.26526608671867     -1.15477172209985
  H   0.64414285117041     -0.38434908404155      1.32491908829716
  H   -1.43125464539937      1.07995780867181      0.97828031398233
  H   -1.69275433784446     -0.68814419181940      0.96698782826170
  N   1.04388198127402      1.10669635808004     -0.07182144406525
  O   0.44329647314043      2.11354459530271     -0.42907377472624
  O   2.25832875290349      0.95630402722165      0.00415017889477
  N   0.53564214832816     -1.22522960830867     -0.58468799432389
  O   1.03477952366034     -0.97271315342026     -1.67017119776295
  O   0.18213593089218     -2.31756515794551     -0.15727460719507
