12
Coordinates from ORCA-job run
  C   -1.22551399954379      0.20940962437287      0.47399365899810
  C   0.22022839238811     -0.19738651735548      0.32350024866726
  Cl  -1.81188831367149      1.17161497757684     -0.89092158317470
  H   0.62165131513428     -0.57703869423884      1.26406934371508
  H   -1.31103728393620      0.81551301137642      1.37521655165381
  H   -1.84166170722386     -0.68425265857963      0.56018314317053
  N   1.06385369621965      0.99876364772751     -0.03459996478193
  O   1.17967306988548      1.80734192385092      0.87845203824181
  O   1.50443795618365      1.08420465628921     -1.17028877486009
  N   0.46448070237941     -1.27509188106876     -0.69056959628579
  O   1.61257771522932     -1.70526224916661     -0.70870134222205
  O   -0.47680154304456     -1.64781584078445     -1.38133372312202
