15

C	0.0	0.0	0.0
C	-0.541191	0.019087	-1.431398
Br	1.963859	0.0	0.0
H	-0.261611	0.937136	-1.943249
H	-1.634364	-0.090544	-1.356695
C	-0.375177	1.276732	0.612819
N	-0.606836	2.315236	1.112063
C	-0.487288	-1.168466	0.849935
H	-1.580507	-1.170913	0.814284
H	-0.097684	-2.105876	0.4577
H	-0.150261	-1.031964	1.878814
N	0.00041	-1.092899	-2.253908
O	0.709585	-0.791075	-3.21523
O	-0.298567	-2.242225	-1.932485
Br	-3.809278	0.0	0.0
