14

C	-0.594014	-0.183387	-1.389656
C	0.0	0.0	0.0
F	-0.377298	-1.499841	-1.754379
H	1.109408	0.0	0.0
H	-1.673116	-0.018226	-1.358098
C	0.009045	0.696947	-2.395959
N	0.421653	1.358885	-3.272798
N	-0.552045	-1.08975	0.865873
O	0.232897	-1.813281	1.460744
O	-1.782587	-1.158736	0.899746
N	-0.461817	1.276053	0.606755
O	-0.905862	2.133	-0.158246
O	-0.326365	1.386677	1.819751
Br	3.313098	0.0	0.0
