14

C	-0.460201	0.01425	-1.441073
C	0.0	0.0	0.0
F	-1.804781	0.320348	-1.551829
H	1.09009	0.0	0.0
H	0.106798	0.808905	-1.932143
C	-0.191155	-1.258426	-2.119724
N	0.008449	-2.241211	-2.729104
N	-0.518188	-1.142738	0.792572
O	-1.464305	-1.780353	0.326234
O	0.039131	-1.349614	1.864545
N	-0.46058	1.275047	0.640034
O	-1.107954	1.217885	1.678009
O	-0.133684	2.292543	0.040318
Br	3.280888	0.0	0.0
