14

C	-0.465392	-0.084425	-1.43804
C	0.0	0.0	0.0
F	-1.796179	0.266487	-1.57413
H	1.109376	0.0	0.0
H	0.132378	0.642086	-1.993425
C	-0.256521	-1.420723	-2.008199
N	-0.116251	-2.464312	-2.527034
N	-0.532387	-1.073031	0.874403
O	0.05641	-1.248298	1.935124
O	-1.52637	-1.686743	0.481916
N	-0.446333	1.321464	0.548359
O	-1.079925	1.34328	1.595965
O	-0.120787	2.290749	-0.12762
Br	3.27882	0.0	0.0
