14

C	-0.592203	0.010846	-1.403664
C	0.0	0.0	0.0
F	-0.416626	-1.255405	-1.931855
H	1.110002	0.0	0.0
H	-1.665464	0.205135	-1.351932
C	0.045053	0.990953	-2.288106
N	0.49318	1.750466	-3.062128
N	-0.562707	-1.193675	0.703222
O	-1.791748	-1.214468	0.796181
O	0.211592	-2.048125	1.108151
N	-0.456585	1.189062	0.767532
O	-0.366382	1.126093	1.987303
O	-0.848295	2.156911	0.115034
Br	3.30222	0.0	0.0
