14

C	-0.482589	0.269285	-1.408026
C	0.0	0.0	0.0
F	-1.851631	0.467522	-1.452904
H	1.103664	0.0	0.0
H	0.009385	1.17928	-1.755121
C	-0.158043	-0.851199	-2.301059
N	0.01603	-1.723819	-3.066336
N	-0.574706	-1.273142	0.515681
O	-1.750136	-1.245706	0.875851
O	0.155121	-2.258767	0.478169
N	-0.387288	1.120988	0.908665
O	-0.494808	2.230478	0.392197
O	-0.460281	0.868317	2.104471
Br	3.293057	0.0	0.0
