13

C	0.0	0.0	0.0
C	-0.458928	-0.257225	-1.456177
Br	1.942777	0.0	0.0
H	0.414756	-0.554557	-2.050307
H	-0.332654	-0.775976	0.677276
H	-0.350335	0.957336	0.36316
C	-1.063918	1.001308	-2.078139
H	-1.332421	0.829311	-3.124852
H	-0.335134	1.818408	-2.036209
H	-1.947707	1.207605	-1.474043
C	-1.380602	-1.396634	-1.550858
N	-1.913058	-2.396107	-1.867454
F	-2.477216	0.0	0.0
