13

C	0.0	0.0	0.0
C	-0.587037	0.022285	-1.395145
Br	1.940942	0.0	0.0
H	-1.706044	0.09359	-1.037447
H	-0.346273	-0.889495	0.518546
H	-0.327723	0.872046	0.557856
C	-0.331664	-1.264776	-2.173357
H	0.73601	-1.470399	-2.293431
H	-0.794814	-2.09435	-1.636834
H	-0.781176	-1.215665	-3.16652
C	-0.164174	1.187785	-2.146682
N	0.166933	2.118315	-2.787676
F	-2.720301	0.0	0.0
