13

C	0.0	0.0	0.0
C	-0.591069	0.018249	-1.393322
Br	1.94083	0.0	0.0
H	-1.714414	0.088985	-1.030181
H	-0.344528	-0.88691	0.523137
H	-0.323355	0.875493	0.554968
C	-0.343208	-1.272996	-2.165047
H	-0.786459	-1.220677	-3.162091
H	-0.81709	-2.098384	-1.626833
H	0.724659	-1.488924	-2.277425
C	-0.174843	1.178947	-2.148775
N	0.143265	2.110948	-2.793123
F	-2.723898	0.0	0.0
