13

C	0.0	0.0	0.0
C	-0.498023	-0.482474	-1.358872
Br	1.94209	0.0	0.0
H	-1.60079	-0.43067	-1.297444
H	-0.135633	0.206598	-2.123527
N	-0.405919	1.466507	0.221068
O	-0.504316	1.832448	1.380295
O	-0.492703	2.154472	-0.784476
C	-0.429938	-0.808229	1.130458
N	-0.641327	-1.460581	2.086038
C	-0.050626	-1.83676	-1.64461
N	0.297614	-2.926424	-1.910448
Cl	-3.278027	0.0	0.0
