13

C	0.0	0.0	0.0
C	-0.524271	-0.328667	-1.391038
Br	1.937828	0.0	0.0
H	-0.177266	0.43842	-2.084914
H	-1.627548	-0.281437	-1.299485
N	-0.403346	1.431032	0.387848
O	-0.486988	2.231343	-0.530886
O	-0.510859	1.659103	1.581077
C	-0.431453	-0.932439	1.032248
N	-0.611596	-1.75132	1.85669
C	-0.089257	-1.644628	-1.831992
N	0.253785	-2.700497	-2.214896
Cl	-3.332297	0.0	0.0
