13

C	0.0	0.0	0.0
C	-0.546186	-0.148955	-1.416253
Br	1.934996	0.0	0.0
H	-1.630387	0.054478	-1.323054
H	-0.437375	-1.197649	-1.706136
N	-0.406439	1.345912	0.617088
O	-0.42038	1.397885	1.836767
O	-0.595206	2.258056	-0.170913
C	-0.431978	-1.085731	0.871413
N	-0.61207	-2.0304	1.547951
C	0.098131	0.692114	-2.413177
N	0.607016	1.315427	-3.268554
Cl	-3.342227	0.0	0.0
