12
Coordinates from ORCA-job run
  C   0.54913193389296      0.10612458954264     -0.36847336859603
  C   -0.54927775760064     -0.10601696128171      0.36859057488503
  H   0.43372181205735      0.52360209825575     -1.36965265884655
  H   -0.43385471320694     -0.52329505658046      1.36985153912829
  C   1.94868035233621     -0.18982306209162      0.08120679286800
  H   2.56484722601353      0.71439921925910      0.07701493903864
  H   2.43405133038711     -0.90979196513697     -0.58465675109533
  H   1.95793057163004     -0.60265720049838      1.09232740211894
  C   -1.94885066535375      0.18960005377895     -0.08123160953293
  H   -2.56475758790815     -0.71481127080326     -0.07743988407384
  H   -2.43453057728030      0.90919498859619      0.58479812528744
  H   -1.95809192496742      0.60247456695978     -1.09233510118165
