12

C	-0.184339	0.087971	0.062245
C	-0.54907	0.418779	-1.382193
Br	1.564453	-0.789537	0.195966
H	0.214441	1.081465	-1.802915
H	-0.929011	-0.612568	0.455088
H	-1.50065	0.965529	-1.30933
C	-0.142877	1.290331	0.883732
N	-0.109007	2.282021	1.512982
N	-0.637713	-0.802657	-2.163741
H	-1.46739	-1.29235	-1.826105
H	-0.817872	-0.550593	-3.12876
Br	-3.410275	-1.325702	-0.171237
