12

C	-0.342914	0.093554	0.004342
C	-0.606297	-0.398163	-1.43011
Br	1.339329	-0.652595	0.694417
H	-0.671521	-1.486466	-1.378729
H	-1.145717	-0.284309	0.651065
H	0.242558	-0.125447	-2.065879
C	-0.256314	1.544839	0.05943
N	-0.194442	2.718618	0.038026
N	-1.84189	0.108405	-1.988425
H	-2.605243	-0.233456	-1.405878
H	-1.851704	1.121857	-1.96935
Br	-3.356477	-1.479916	0.73048
