12

C	-0.163482	0.157919	0.042319
C	-0.404212	0.394953	-1.462012
Br	1.569786	-0.724902	0.338384
H	0.380845	1.055171	-1.846027
H	-0.932514	-0.532128	0.414383
H	-1.360792	0.923602	-1.519845
C	-0.161511	1.404716	0.790437
N	-0.170288	2.442279	1.343176
N	-0.502732	-0.794821	-2.275187
H	-1.288175	-1.339694	-1.920919
H	0.335373	-1.352549	-2.159876
Br	-3.05478	-1.771495	-0.078755
