17

C	-0.636681	-0.031065	-1.375196
C	0.0	0.0	0.0
F	-0.097987	1.048408	-2.083853
H	1.090526	0.0	0.0
N	-0.211995	-1.199403	-2.254865
O	0.943806	-1.578172	-2.161139
O	-1.039032	-1.592801	-3.079755
N	-2.034169	0.017258	-1.306965
H	-2.263888	0.832773	-0.749512
H	-2.440514	0.064451	-2.231075
N	-0.461805	-1.171011	0.77414
O	-0.587707	-2.240292	0.178741
O	-0.647574	-1.037415	1.988932
N	-0.428543	1.240037	0.643478
H	-0.735465	0.995277	1.579018
H	0.423724	1.781458	0.751574
F	2.508165	0.0	0.0
