17

C	-0.55221	0.03333	-1.406103
C	0.0	0.0	0.0
F	0.071762	1.052443	-2.082223
H	1.088101	0.0	0.0
N	-0.120431	-1.209114	-2.229949
O	-0.674147	-1.321542	-3.327331
O	0.736881	-1.953729	-1.781252
N	-1.942782	0.260572	-1.504244
H	-2.414342	-0.484696	-1.007318
H	-2.210479	0.239677	-2.481303
N	-0.517848	-1.186828	0.740343
O	-1.359655	-1.924527	0.195701
O	-0.077255	-1.377107	1.864878
N	-0.35713	1.189814	0.729001
H	0.489017	1.734186	0.825951
H	-1.073691	1.718968	0.251099
F	2.51849	0.0	0.0
