17

C	-0.529056	0.01199	-1.419522
C	0.0	0.0	0.0
F	0.079026	-0.884499	-2.235579
H	1.093074	0.0	0.0
N	-2.032726	-0.427766	-1.447215
O	-2.479748	-0.879467	-2.498686
O	-2.702691	-0.165511	-0.448054
N	-0.432839	1.300016	-1.964126
H	-0.999227	1.421608	-2.79166
H	-0.586628	1.987011	-1.236063
N	-0.406867	-1.247145	0.696694
O	-0.547632	-2.269104	0.024231
O	-0.522562	-1.202985	1.922915
N	-0.368806	1.184478	0.721192
H	-1.212214	1.036901	1.262818
H	0.397884	1.403086	1.345273
F	2.499498	0.0	0.0
