17

C	-0.404175	0.002543	-1.458114
C	0.0	0.0	0.0
F	0.245068	-0.942287	-2.171499
H	1.09383	0.0	0.0
N	-1.906294	-0.316491	-1.626207
O	-2.269847	-0.929269	-2.618077
O	-2.644471	0.144784	-0.753924
N	-0.195215	1.272021	-2.076398
H	0.724529	1.22235	-2.504988
H	-0.154857	1.947877	-1.316307
N	-0.479835	-1.218137	0.698358
O	-0.710975	-2.223368	0.024615
O	-0.577302	-1.16794	1.925732
N	-0.36126	1.211683	0.673142
H	0.330946	1.384351	1.390712
H	-1.281399	1.151397	1.089203
F	2.512518	0.0	0.0
