17

C	-0.515336	0.021249	-1.427217
C	0.0	0.0	0.0
F	0.137228	1.019404	-2.103627
H	1.088134	0.0	0.0
N	-0.061926	-1.255439	-2.195003
O	0.90838	-1.868776	-1.783496
O	-0.705953	-1.522375	-3.211333
N	-1.901949	0.247312	-1.574965
H	-2.126167	0.199663	-2.562002
H	-2.377631	-0.508738	-1.095532
N	-0.462871	-1.26266	0.674045
O	0.107398	-1.586914	1.703464
O	-1.401929	-1.90979	0.17625
N	-0.47666	1.116814	0.764535
H	-1.234431	1.593268	0.293581
H	0.300188	1.739897	0.927606
F	2.54183	0.0	0.0
