15

C	0.0	0.0	0.0
C	-0.518021	-0.265627	-1.413484
Cl	1.785172	0.0	0.0
H	-1.60945	-0.156371	-1.325439
H	-0.288584	-0.857772	0.619368
N	-0.487599	1.270725	0.456519
H	-1.508964	1.209314	0.405123
H	-0.24064	1.391209	1.43282
C	-0.209595	-1.677495	-1.909722
H	-0.648428	-2.402785	-1.220575
H	0.866049	-1.851283	-1.98004
H	-0.65569	-1.834301	-2.893857
C	-0.024957	0.739469	-2.355096
N	0.348083	1.512703	-3.156211
Cl	-3.562353	0.0	0.0
