15

C	0.0	0.0	0.0
C	-0.511653	-0.150618	-1.433646
Cl	1.785304	0.0	0.0
H	-1.60264	-0.036227	-1.351384
H	-0.29022	-0.904	0.548862
N	-0.490207	1.230999	0.552886
H	-1.511174	1.166992	0.491149
H	-0.247098	1.275737	1.536418
C	-0.214748	-1.524499	-2.033054
H	0.859245	-1.709372	-2.09796
H	-0.644516	-1.597649	-3.034052
H	-0.67776	-2.2925	-1.409666
C	0.002348	0.915636	-2.293219
N	0.390799	1.724594	-3.050903
Cl	-3.561237	0.0	0.0
