15

C	0.0	0.0	0.0
C	-0.3601	-0.303603	-1.47346
Cl	1.78366	0.0	0.0
H	0.224613	0.41043	-2.064336
H	-0.289563	-0.84332	0.637668
N	-0.53763	1.275693	0.385162
H	-1.555389	1.196526	0.358102
H	-0.279955	1.470731	1.34636
C	-1.834714	-0.174424	-1.844014
H	-1.965464	-0.463623	-2.889868
H	-2.490591	-0.783706	-1.225178
H	-2.173598	0.853747	-1.730397
C	0.126031	-1.643498	-1.82107
N	0.484173	-2.721172	-2.11907
Cl	-4.542831	0.0	0.0
