15

C	0.0	0.0	0.0
C	-0.36356	-0.632742	-1.363677
Cl	1.783431	0.0	0.0
H	0.222158	-0.075279	-2.104031
H	-0.290968	-0.674138	0.81369
N	-0.538279	1.330133	0.084327
H	-1.556023	1.247133	0.072985
H	-0.284739	1.733996	0.979321
C	-1.840187	-0.581525	-1.741941
H	-1.996912	-1.130695	-2.672959
H	-2.492996	-0.999124	-0.977651
H	-2.163995	0.446479	-1.895227
C	0.11487	-2.01871	-1.391153
N	0.466247	-3.138056	-1.431335
Cl	-4.561895	0.0	0.0
