15

C	-0.369543	-0.142628	-1.466872
C	0.0	0.0	0.0
Br	-0.008316	1.512212	-2.4159
H	1.099689	0.0	0.0
H	-0.33045	-0.931803	0.471468
N	0.330536	-1.204125	-2.137441
H	0.143858	-2.058547	-1.619754
H	1.325958	-1.003805	-2.038706
N	-1.865165	-0.469257	-1.561695
O	-2.672863	0.351157	-1.97
O	-2.141371	-1.59718	-1.148123
N	-0.665501	1.121501	0.652469
H	-0.135209	1.961308	0.447357
H	-0.595776	0.981531	1.653875
Cl	3.450003	0.0	0.0
