15

C	-0.481181	-0.0311	-1.427924
C	0.0	0.0	0.0
Br	-2.625121	-0.368117	-1.294077
H	1.097478	0.0	0.0
H	-0.359491	-0.88398	0.527279
N	-0.168935	1.079276	-2.127576
H	-0.473241	1.124025	-3.085816
H	-0.252948	1.910249	-1.55674
N	-0.106568	-1.27804	-2.192347
O	0.125948	-2.285022	-1.538509
O	-0.088466	-1.185176	-3.41616
N	-0.420402	1.279594	0.575139
H	0.289677	1.5766	1.231635
H	-1.302596	1.179697	1.06015
Cl	3.399972	0.0	0.0
