16

C	-0.316379	-0.001471	-1.48891
C	0.0	0.0	0.0
F	-1.691075	-0.235435	-1.678971
H	1.090435	0.0	0.0
H	-0.395867	0.871695	0.517216
C	0.016478	1.372773	-2.030238
H	1.060499	1.604078	-1.799317
H	-0.130833	1.364557	-3.111246
H	-0.630045	2.126615	-1.576123
N	0.394106	-0.998775	-2.250228
H	0.193604	-1.89233	-1.81259
H	1.38423	-0.827624	-2.060109
N	-0.485437	-1.165791	0.731877
O	-0.954825	-0.98124	1.860672
O	-0.354598	-2.287603	0.22715
H	2.721027	0.0	0.0
