16

C	-0.485081	0.092458	-1.435548
C	0.0	0.0	0.0
F	-1.842726	0.561967	-1.429333
H	1.088422	0.0	0.0
H	-0.374846	-0.898001	0.490423
C	0.320305	1.039618	-2.291747
H	1.377519	0.788532	-2.174772
H	0.160016	2.060383	-1.954016
H	0.011688	0.949907	-3.338921
N	-0.447611	-1.224076	-1.979946
H	-1.071624	-1.829634	-1.460916
H	-0.741251	-1.201768	-2.948691
N	-0.439553	1.122007	0.83229
O	-0.2818	2.268573	0.405627
O	-0.875696	0.863204	1.960703
H	2.754309	0.0	0.0
