16

C	-0.314561	0.043828	-1.484499
C	0.0	0.0	0.0
F	-1.685498	-0.222376	-1.697686
H	1.088506	0.0	0.0
H	-0.398872	-0.920276	0.420956
C	-0.037249	1.370871	-2.164347
H	-0.699825	2.157168	-1.80673
H	0.996361	1.658851	-1.973654
H	-0.195284	1.238481	-3.238044
N	0.438262	-1.058938	-2.027675
H	1.376563	-1.029104	-1.610406
H	0.547377	-0.925722	-3.025314
N	-0.526507	1.104985	0.796794
O	-0.116923	2.24496	0.552791
O	-1.315235	0.841592	1.714445
H	2.742899	0.0	0.0
