16

C	-0.532194	-0.003967	-1.436793
C	0.0	0.0	0.0
F	-0.320019	1.278759	-1.943382
H	1.088881	0.0	0.0
H	-0.37282	-0.890699	0.510416
C	0.28806	-0.974908	-2.256741
H	1.346615	-0.729395	-2.138179
H	0.13819	-2.000251	-1.905253
H	-0.020591	-0.902527	-3.301921
N	-1.94881	-0.258433	-1.584356
H	-2.446351	0.203247	-0.829346
H	-2.109208	-1.253045	-1.484601
N	-0.568528	1.150626	0.726341
O	0.077399	2.191117	0.79342
O	-1.705764	1.005265	1.209564
H	2.892508	0.0	0.0
