16

C	-0.509538	-0.053523	-1.444773
C	0.0	0.0	0.0
F	-0.433762	1.283507	-1.860551
H	1.086695	0.0	0.0
H	-0.373723	0.897674	0.491875
C	0.371878	-0.867634	-2.357982
H	1.409507	-0.56571	-2.201055
H	0.288784	-1.925529	-2.10856
H	0.058272	-0.698834	-3.390278
N	-1.899142	-0.425036	-1.602953
H	-1.982883	-1.420272	-1.435455
H	-2.445034	0.055117	-0.894925
N	-0.442202	-1.134104	0.793256
O	-0.364315	-2.266118	0.289957
O	-0.808252	-0.932884	1.959968
H	2.711133	0.0	0.0
