16

C	-0.360187	0.05239	-1.492903
C	0.0	0.0	0.0
F	-0.241514	-1.288492	-1.895718
H	1.089307	0.0	0.0
H	-0.410629	-0.874635	0.498851
C	-1.784327	0.469307	-1.79619
H	-1.950874	0.362539	-2.86961
H	-2.48143	-0.174657	-1.25505
H	-1.954208	1.506909	-1.505146
N	0.578836	0.80107	-2.280668
H	1.508989	0.566398	-1.918968
H	0.444161	1.77756	-2.041262
N	-0.432055	1.174559	0.734651
O	-0.861653	1.02194	1.887636
O	-0.269817	2.288213	0.208774
H	2.703928	0.0	0.0
