16

C	-0.317612	-0.186498	-1.476749
C	0.0	0.0	0.0
F	-1.696806	-0.411977	-1.637026
H	1.08921	0.0	0.0
H	-0.394371	0.931532	0.401546
C	0.04689	1.098316	-2.188724
H	1.101054	1.321535	-2.001731
H	-0.568028	1.923645	-1.823781
H	-0.120498	0.961408	-3.258495
N	0.366002	-1.290783	-2.103023
H	1.36078	-1.133173	-1.930474
H	0.12851	-2.116994	-1.564729
N	-0.48883	-1.061142	0.875504
O	-0.347072	-2.239793	0.527116
O	-0.969691	-0.731573	1.965958
H	2.724159	0.0	0.0
