14

C	-0.332135	-0.093645	-1.486774
C	0.0	0.0	0.0
Cl	-0.158331	1.595165	-2.236671
H	1.090867	0.0	0.0
H	-0.30485	-0.947132	0.459673
N	0.609725	-1.010763	-2.026598
H	0.615122	-0.978558	-3.038992
H	1.54955	-0.802537	-1.658593
N	-1.718469	-0.442819	-1.739575
H	-1.797984	-1.430584	-1.515388
H	-1.91407	-0.337082	-2.73
C	-0.614471	1.099711	0.711947
N	-1.08594	1.974911	1.337775
H	2.800109	0.0	0.0
