14

C	-0.324002	-0.071258	-1.50008
C	0.0	0.0	0.0
Cl	-0.017117	1.666921	-2.114194
H	1.092068	0.0	0.0
H	-0.382424	0.902183	0.481078
N	0.583152	-0.906389	-2.235069
H	1.529439	-0.681799	-1.909166
H	0.387228	-1.860852	-1.945955
N	-1.651885	-0.486265	-1.7835
H	-1.799195	-0.452833	-2.785416
H	-2.323312	0.110338	-1.317734
C	-0.47506	-1.183985	0.697743
N	-0.853612	-2.13821	1.270524
H	2.792902	0.0	0.0
