14

C	-0.351889	0.04778	-1.474862
C	0.0	0.0	0.0
Cl	-2.259575	0.30073	-1.632575
H	1.094232	0.0	0.0
H	-0.364267	-0.910609	0.484621
N	0.230216	1.15352	-2.182115
H	1.230255	1.098173	-1.968998
H	-0.122745	2.019426	-1.78993
N	0.043703	-1.133709	-2.112221
H	-0.168564	-1.09584	-3.098564
H	-0.328852	-1.961665	-1.67871
C	-0.46724	1.168245	0.721309
N	-0.834329	2.128389	1.291375
H	2.76037	0.0	0.0
