15

C	-0.295143	-0.183208	-1.495753
C	0.0	0.0	0.0
F	-0.082693	0.965761	-2.177417
H	1.093962	0.0	0.0
N	0.668775	-1.234608	-2.066245
O	1.494192	-0.864395	-2.879831
O	0.486983	-2.374264	-1.653506
C	-1.654728	-0.671909	-1.779703
N	-2.752061	-1.060286	-1.940858
N	-0.393134	-1.090261	0.862457
H	-1.279315	-1.510027	0.609109
H	0.337971	-1.78786	0.832335
C	-0.591641	1.2586	0.425798
N	-1.068789	2.272253	0.784915
F	2.487797	0.0	0.0
