15

C	-0.424218	-0.013444	-1.449637
C	0.0	0.0	0.0
F	0.318883	-0.893153	-2.153784
H	1.09497	0.0	0.0
N	-1.884075	-0.506607	-1.566487
O	-2.70203	0.142971	-0.924285
O	-2.107572	-1.487509	-2.259408
C	-0.390241	1.300885	-2.107148
N	-0.383917	2.347178	-2.641208
N	-0.375012	-1.278459	0.597594
H	-1.110799	-1.174833	1.283524
H	0.456082	-1.639759	1.048427
C	-0.488831	1.161317	0.720212
N	-0.856099	2.068291	1.373911
F	2.487578	0.0	0.0
