15

C	-0.519276	-0.026993	-1.427606
C	0.0	0.0	0.0
F	-0.162949	1.105385	-2.089744
H	1.094233	0.0	0.0
N	0.116425	-1.203513	-2.170663
O	-0.514197	-2.25563	-2.174814
O	1.202724	-0.98805	-2.683101
C	-1.980756	-0.185018	-1.514258
N	-3.154384	-0.242278	-1.52134
N	-0.368795	-1.23251	0.677931
H	-1.146409	-1.119869	1.313312
H	0.448448	-1.543609	1.187944
C	-0.49314	1.207042	0.648506
N	-0.907032	2.152173	1.21503
F	2.489801	0.0	0.0
