15

C	-0.429821	0.003598	-1.448567
C	0.0	0.0	0.0
F	0.315615	-0.859672	-2.168819
H	1.095661	0.0	0.0
N	-1.886513	-0.500373	-1.563913
O	-2.105418	-1.476461	-2.26438
O	-2.705808	0.136256	-0.910659
C	-0.409338	1.327287	-2.086745
N	-0.411307	2.384216	-2.598539
N	-0.370801	-1.286397	0.582686
H	-1.109926	-1.195869	1.268195
H	0.461624	-1.650252	1.03027
C	-0.488136	1.151842	0.736161
N	-0.852986	2.048183	1.405418
F	2.488128	0.0	0.0
