15

C	-0.474644	-0.095752	-1.426736
C	0.0	0.0	0.0
F	-1.822393	-0.312847	-1.525447
H	1.09305	0.0	0.0
N	-0.191946	1.225252	-2.147966
O	-1.13612	1.998104	-2.268817
O	0.966244	1.401852	-2.501116
C	0.215248	-1.162205	-2.1613
N	0.654158	-2.027822	-2.821847
N	-0.339852	-1.259647	0.651882
H	0.434053	-1.499962	1.258395
H	-1.19734	-1.204423	1.184366
C	-0.549021	1.175154	0.659073
N	-1.008746	2.0884	1.241966
F	2.483302	0.0	0.0
