15

C	-0.266845	0.028404	-1.503454
C	0.0	0.0	0.0
F	0.194588	-1.120689	-2.060122
H	1.097219	0.0	0.0
N	-1.773313	0.047638	-1.773985
O	-2.34121	-1.04269	-1.740552
O	-2.313587	1.142688	-1.891035
C	0.323175	1.184542	-2.182252
N	0.781437	2.112293	-2.737922
N	-0.413188	-1.22119	0.651081
H	0.336765	-1.89419	0.534322
H	-1.275515	-1.60073	0.277487
C	-0.551663	1.188301	0.62842
N	-0.98981	2.147052	1.150887
F	2.481528	0.0	0.0
