15

C	-0.39949	-0.008051	-1.457143
C	0.0	0.0	0.0
F	0.338198	-0.904541	-2.145444
H	1.095841	0.0	0.0
N	-1.866972	-0.469482	-1.605311
O	-2.10082	-1.422636	-2.332875
O	-2.681204	0.175481	-0.954903
C	-0.322708	1.304743	-2.114656
N	-0.291312	2.351281	-2.647619
N	-0.393712	-1.274741	0.589684
H	-1.152571	-1.168356	1.250264
H	0.421038	-1.64037	1.067345
C	-0.486362	1.16722	0.713035
N	-0.84799	2.07853	1.364055
F	2.488359	0.0	0.0
