15

C	-0.417768	-0.005582	-1.45276
C	0.0	0.0	0.0
F	0.306983	-0.906665	-2.149096
H	1.102066	0.0	0.0
N	-1.888606	-0.459968	-1.574431
O	-2.699624	0.261606	-1.003908
O	-2.126659	-1.488132	-2.187834
C	-0.342102	1.306466	-2.111202
N	-0.296439	2.349867	-2.649675
N	-0.381658	-1.277045	0.593124
H	-1.119913	-1.175478	1.276004
H	0.444538	-1.64718	1.044351
C	-0.487684	1.160549	0.721584
N	-0.84725	2.071726	1.374453
F	2.484722	0.0	0.0
