15

C	-0.428811	-0.012104	-1.448474
C	0.0	0.0	0.0
F	0.316001	-0.885006	-2.158225
H	1.095751	0.0	0.0
N	-1.886078	-0.515973	-1.558413
O	-2.105416	-1.501788	-2.244443
O	-2.705	0.12951	-0.914434
C	-0.407965	1.304112	-2.102747
N	-0.408254	2.355359	-2.627355
N	-0.37118	-1.280618	0.595941
H	0.460989	-1.640873	1.048605
H	-1.1104	-1.179723	1.279654
C	-0.488613	1.159122	0.724385
N	-0.853092	2.063	1.384379
F	2.486703	0.0	0.0
