15

C	-0.41421	0.093875	-1.447292
C	0.0	0.0	0.0
F	0.313997	-0.747717	-2.208594
H	1.096914	0.0	0.0
N	-1.88565	-0.355475	-1.615055
O	-2.133615	-1.213428	-2.446593
O	-2.686927	0.209456	-0.882435
C	-0.351478	1.452786	-2.008502
N	-0.347724	2.528304	-2.480775
N	-0.386016	-1.31651	0.500333
H	-1.139695	-1.257703	1.17277
H	0.433608	-1.708246	0.947118
C	-0.480212	1.114834	0.797699
N	-0.811995	1.989811	1.511046
F	2.487659	0.0	0.0
