16

C	-0.483269	0.003352	-1.472376
C	0.0	0.0	0.0
Cl	0.23444	1.370591	-2.385156
H	1.099342	0.0	0.0
C	-0.099489	-1.246277	-2.137221
N	0.19324	-2.24262	-2.687335
C	-1.9449	0.1327	-1.524088
N	-3.11062	0.278581	-1.535043
N	-0.528126	-1.240997	0.569477
H	0.226565	-1.916057	0.627581
H	-0.871	-1.077239	1.50753
C	-0.505854	1.214493	0.754978
H	-0.232732	2.141499	0.250819
H	-0.032113	1.223983	1.739154
H	-1.593418	1.181494	0.880266
Cl	3.381563	0.0	0.0
