16

C	-0.363506	0.082349	-1.513069
C	0.0	0.0	0.0
Cl	-2.173903	0.086499	-1.739288
H	1.105696	0.0	0.0
C	0.142741	1.301127	-2.142664
N	0.519689	2.300249	-2.634022
C	0.134654	-1.099984	-2.216853
N	0.500283	-2.079871	-2.751056
N	-0.435673	-1.233523	0.613118
H	0.184561	-1.990965	0.354462
H	-1.388248	-1.471158	0.363859
C	-0.509955	1.208438	0.763144
H	-0.098859	1.147712	1.770977
H	-1.601991	1.213037	0.830926
H	-0.173123	2.144014	0.310807
Cl	3.323459	0.0	0.0
