16

C	-0.446148	0.081498	-1.475074
C	0.0	0.0	0.0
Cl	-2.262766	0.087416	-1.583123
H	1.101213	0.0	0.0
C	0.01658	1.307122	-2.130605
N	0.342737	2.310475	-2.647675
C	0.011855	-1.090049	-2.224695
N	0.347243	-2.016855	-2.864414
N	-0.439872	-1.283094	0.521185
H	-1.19965	-1.176221	1.179799
H	0.341907	-1.735674	0.978727
C	-0.464145	1.202843	0.806113
H	0.004621	1.145052	1.790718
H	-1.551634	1.213613	0.929845
H	-0.150729	2.143255	0.347104
Cl	3.313473	0.0	0.0
