16

C	-0.444807	-0.129941	-1.471563
C	0.0	0.0	0.0
Cl	-2.261226	-0.139131	-1.582639
H	1.105968	0.0	0.0
C	0.020149	0.989099	-2.294463
N	0.353465	1.907643	-2.947102
C	0.013894	-1.396339	-2.045628
N	0.350844	-2.404209	-2.54574
N	-0.44295	-1.195264	0.698838
H	-1.18941	-0.988429	1.348769
H	0.340928	-1.586056	1.204852
C	-0.464206	1.305287	0.62589
H	-1.552391	1.335544	0.741084
H	-0.146123	2.170546	0.039968
H	-0.000356	1.386903	1.611163
Cl	3.315903	0.0	0.0
