14
Coordinates from ORCA-job run
  C   -0.40560541877043      0.19678051392528      0.38415049690708
  C   0.93416259370565      0.22319736558230     -0.34455968008732
  Br  -1.61828199415860      1.57554333039782     -0.38361586848702
  H   1.50941644320189     -0.60726590892519      0.08567672654905
  H   1.41676428988036      1.15470454373922     -0.03357155893470
  N   -1.13080039966252     -1.12707689090480      0.15959307577196
  O   -2.11104073017964     -1.33496408835727      0.86215421528766
  O   -0.67119755408723     -1.89298754526690     -0.68123238685869
  N   -0.23045636120924      0.29078345895419      1.77874341831679
  H   -1.11730366932552      0.21630756837925      2.26244999247065
  H   0.22660527059968      1.15785785758205      2.02905019174769
  N   0.82222619887950      0.21168634339135     -1.78461699889338
  H   1.61689304915413      0.66879740919295     -2.20662383121360
  H   0.75861828197197     -0.73536395769025     -2.12659779257615
