14
Coordinates from ORCA-job run
  C   -0.53530569340582      0.29395617176969      0.43266850503993
  C   0.40097208079772      0.63403621428542     -0.72415718759422
  Br  -1.86171446328768      1.69716140529058      0.63443036301684
  H   -0.17179343967933      0.81758346933510     -1.63554817929086
  H   0.90579154401225      1.55985982834447     -0.43740228588671
  N   -1.35782204595654     -0.97079806707455      0.02323881858514
  O   -1.40874580452922     -1.22325464298237     -1.18034213317680
  O   -1.89846292506618     -1.60348353248870      0.91274461850656
  N   0.10073360818511      0.01802124764324      1.66118083363008
  H   0.10842846554854      0.80209322089396      2.29359163131355
  H   1.03125167279072     -0.33755744971792      1.46951935985669
  N   1.38398230142025     -0.43834400605392     -0.82043721701360
  H   1.04318401420647     -1.15906580109256     -1.44351665787756
  H   2.25950068496371     -0.09020805815246     -1.18597046910905
