14
Coordinates from ORCA-job run
  C   -0.42302164708321      0.21484272449639      0.30638040605397
  C   0.39233573550341     -0.06380117918220     -0.94599668360832
  Br  -1.28579363692412      1.94794315795298      0.24893089121541
  H   -0.26372379475467      0.00105149791225     -1.81285873191434
  H   0.72141852936875     -1.11667288124452     -0.85860290278167
  N   -1.60036947054199     -0.81129332863598      0.31893073925216
  O   -1.81776952877992     -1.38037914385652      1.38390744383854
  O   -2.20867139348400     -0.98116404786813     -0.72950195215137
  N   0.37819092204578      0.12756075550960      1.46538123687149
  H   0.73566681943224     -0.81632924669348      1.56848696402917
  H   -0.14205687932424      0.36807809186928      2.29926301382493
  N   1.45595263544897      0.91016033197694     -1.06040518365277
  H   2.08405533532954      0.83717975221021     -0.27140821122034
  H   1.97578637376346      0.76082351555319     -1.91450702975686
