14
Coordinates from ORCA-job run
  C   -0.49230117423679      0.26800415947928      0.38120630764100
  C   0.86184626384412      0.23374251325296     -0.32413036223648
  Br  -1.58593898625580      1.66589979372099     -0.39311969772076
  H   1.33402269922163      1.21330027760870     -0.16034781533144
  H   1.45461158350235     -0.52121029321558      0.19956486182024
  N   -1.12938874340005     -1.10444052914935      0.13782368277195
  O   -0.50968161672117     -2.00595594735645      0.69856730676083
  O   -2.12689330016643     -1.22644600354898     -0.54784202002395
  N   -0.47681306489228      0.44055303929431      1.80309885702600
  H   -0.18336185439945      1.37728035993118      2.04594644370156
  H   0.14590371257348     -0.24242080148545      2.21968871636114
  N   0.71084183825680     -0.17353554897515     -1.70665893368689
  H   1.58323979821060     -0.52925785276948     -2.07191388110618
  H   0.41391284446299      0.60348683321304     -2.28188346597703
