14
Coordinates from ORCA-job run
  C   -0.41708910623307      0.22243835540090      0.31055437805374
  C   0.38183209016045     -0.07043960017643     -0.94915407519791
  Br  -1.25067645088679      1.96970968641798      0.25987154161896
  H   0.69465655477349     -1.12846384626673     -0.86399713234051
  H   -0.28130102273335      0.00458620704177     -1.80981218562902
  N   -1.60987247331091     -0.78431475635830      0.33388275083214
  O   -2.23563785628111     -0.93835270198949     -0.70673294840437
  O   -1.82128211289690     -1.35716127604774      1.39815697176727
  N   0.39348501605599      0.12237704734597      1.46222479203852
  H   -0.11508312325970      0.37257850530873      2.30045027763761
  H   0.73552455262622     -0.82748250799256      1.56257690879766
  N   1.46072983074364      0.88526117376844     -1.07448169271389
  H   2.09420753035887      0.80250842544591     -0.29074638085702
  H   1.97050657088317      0.72575528810154     -1.93279320560319
