14
Coordinates from ORCA-job run
  C   -0.39827369769737      0.35086465870536      0.38777355250103
  C   0.90721444010196      0.27926102018635     -0.39307359571316
  Br  -1.57243785492944      1.69236669559325     -0.36561740260810
  H   1.36687640545866      1.27280218782683     -0.32571922881436
  H   1.54637742534280     -0.43072689440843      0.13973928199221
  N   -1.06062106139238     -1.04960308669683      0.21025372677676
  O   -0.43271627229444     -1.93004931711726      0.79620935192086
  O   -2.07353377682799     -1.20043348593968     -0.44799163248685
  N   -0.15988502776960      0.65362245618879      1.75132830678057
  H   -1.02209170878967      0.78989048667715      2.26419739158957
  H   0.37597237262621     -0.09583799378810      2.17421685040601
  N   0.67010858818015     -0.23042017664944     -1.72939660024749
  H   0.32957791822546      0.50198136884737     -2.33829761183053
  H   1.52343224976565     -0.60071791942536     -2.12362239026651
