14
Coordinates from ORCA-job run
  C   -0.42389286228226      0.25816273775609      0.37080801510015
  C   0.39849879701744      0.75388840354083     -0.81761545131744
  Br  -1.91318014415566      1.57610120472032      0.68006876433877
  H   0.85766911916468      1.69771632800261     -0.50469782160126
  H   -0.27270711049542      0.97875790036326     -1.64420528448045
  N   -1.16295559502820     -1.02928895189747      0.02282403785818
  O   -1.44866027773913     -1.77126615885256      0.95509411095473
  O   -1.43387610545586     -1.21367675736603     -1.15747962637306
  N   0.36555418275388     -0.00439614755134      1.49674932468962
  H   -0.15996834114116     -0.44783284871681      2.23931373492586
  H   0.82074573153841      0.83532586364897      1.82954719060314
  N   1.42017784275049     -0.16750135537118     -1.26032956855379
  H   1.95260747234068     -0.51207621712299     -0.47217203923278
  H   1.00098729073211     -0.95391400115371     -1.73790538691168
