14
Coordinates from ORCA-job run
  C   -0.51986903263357      0.26297062473691      0.32632816405261
  C   0.52091059765218      0.58768592900003     -0.73474025120939
  Br  -1.89178632933548      1.74742239700998      0.22528266354879
  H   0.87778353259166      1.59680040914563     -0.51349127203848
  H   0.00586758236558      0.62384864458897     -1.69946849575251
  N   -1.34781337957645     -0.97298900807578     -0.04576843582727
  O   -1.15820475261992     -1.46831592727871     -1.15299511889411
  O   -2.11013384951682     -1.38966475343037      0.81344232457071
  N   0.00934453995415      0.02148680420114      1.58026189213337
  H   -0.65978342633723      0.00392693167233      2.33431694682444
  H   0.85575833627731      0.53067839708429      1.77786344700409
  N   1.64621945241988     -0.33094754484169     -0.65537656194516
  H   2.40168588528301      0.01754643412820     -1.23196838146555
  H   1.37002084347570     -1.23244933794093     -1.02468692100154
