14
Coordinates from ORCA-job run
  C   -0.49376175501120      0.25648237331237      0.38657641194490
  C   0.85954425553666      0.24743182463726     -0.32088226159141
  Br  -1.60234377773489      1.65731982001911     -0.35988760753726
  H   1.45894449856588     -0.51269103021543      0.18770467622673
  H   1.32392962771636      1.22749719976721     -0.13845643767093
  N   -1.11844244699519     -1.11769105857487      0.11866457276215
  O   -0.49053469302208     -2.02315652264809      0.66349154062805
  O   -2.11462781019196     -1.23644946719520     -0.56932327887815
  N   -0.47715010167554      0.40288377176766      1.81148524022630
  H   0.15370177824212     -0.28108075504436      2.21394086408880
  H   -0.19316401097903      1.33804785042023      2.07105640227357
  N   0.71054171829942     -0.13620898393474     -1.71023609246334
  H   0.39619776911384      0.64556286343227     -2.26964161245160
  H   1.58816494813561     -0.46794788574341     -2.08549241755779
