14
Coordinates from ORCA-job run
  C   -0.45099290897087     -0.00470527806898      0.32124172316192
  C   0.45065672854455     -0.08664136540021     -0.90190273277756
  Br  -1.40641450117593      1.79859357823989      0.23082365617332
  H   0.80573333781918     -1.11929245920956     -0.95394794562535
  H   -0.13474930558904      0.12181597581148     -1.79919291341709
  N   -1.60558032480978     -0.98616556761527      0.24189258490168
  O   -1.87007533484149     -1.45149410911034     -0.86124345955678
  O   -2.18208112291924     -1.23238667237170      1.29303474657781
  N   0.25132664484012     -0.23888779135970      1.48704055384396
  H   -0.29241954391579     -0.12452182151285      2.33017734910992
  H   1.11715957949835      0.28696793810061      1.47767584362349
  N   1.58966445409671      0.79692665613075     -0.67763962059745
  H   2.37630849669007      0.49730085511857     -1.23735715340583
  H   1.35146380073316      1.74249006124732     -0.94960263201204
