14
Coordinates from ORCA-job run
  C   -0.45415400734483      0.41738156413405      0.36394063877232
  C   0.41298703798762      0.71461870699879     -0.86166443781316
  Br  -1.81886993769853      1.78856589709649      0.56158583637897
  H   0.90754928174764      1.66732201428073     -0.66184851283993
  H   -0.24030837466715      0.84438828799946     -1.72270898199001
  N   -1.26202564211271     -0.88920176926827      0.07326447112627
  O   -1.66067523768716     -1.06356840120804     -1.07233598899386
  O   -1.42971282352041     -1.65141628038002      1.01941635396131
  N   0.29143467601290      0.32311109414937      1.55360776341076
  H   1.00322418742052     -0.39110103345122      1.45519649899219
  H   -0.29647414962865      0.08516240607122      2.34232722208647
  N   1.40814281447519     -0.28526443305235     -1.17447620234293
  H   1.00642202694679     -1.18390337921437     -1.39963654119411
  H   2.13146014806875     -0.37509467415583     -0.47666811955428
