14
Coordinates from ORCA-job run
  C   -0.45390784438915      0.25260739226358      0.39708705606688
  C   0.35105436653500      0.63125000932769     -0.83172801233769
  Br  -1.87694519666341      1.64909407997391      0.66925620616795
  H   -0.33371630995651      0.79159203429586     -1.66249460849398
  H   0.84966102752545      1.58772837388416     -0.61356934898588
  N   -1.24347251652310     -1.02267435820000      0.11185556919829
  O   -1.74536424010136     -1.12056921564952     -0.99586630321643
  O   -1.33967485911926     -1.82860657613130      1.03042802069099
  N   0.36083059762618      0.03443470779698      1.51401549821951
  H   -0.13424835238384     -0.43533742443175      2.26097046491439
  H   0.77188793645274      0.89900941374955      1.83996189754805
  N   1.22513872214911     -0.48650082274370     -1.13187388784000
  H   2.01377447967223     -0.51024812293573     -0.50141960922348
  H   1.55498218917594     -0.44077949119972     -2.08562294270862
