14
Coordinates from ORCA-job run
  C   -0.38330783066839      0.14554548333575      0.27859298160347
  C   0.46883049645820     -0.12086194975479     -0.96935975752788
  Br  -1.20334576157528      1.90719917205499      0.21124791053523
  H   -0.16940878663502     -0.05399011115117     -1.84927012271402
  H   0.80518557485163     -1.16407060427367     -0.88981307000089
  N   -1.57720201205106     -0.85514706233491      0.23903299592632
  O   -1.75962548377183     -1.53137212916465      1.24718632104521
  O   -2.21736703289620     -0.91943277329566     -0.80232445131109
  N   0.38236971314458      0.03866529273004      1.45661268912125
  H   0.76749299702256     -0.89620352224295      1.53734608511994
  H   -0.16638534376895      0.23588316008374      2.28379527912213
  N   1.61706270587312      0.73929749051984     -1.12374172721064
  H   1.31752054095442      1.67313324820104     -1.37314083688794
  H   2.11818022306223      0.80235430529239     -0.24616429682109
