14
Coordinates from ORCA-job run
  C   -0.35380576092017      0.12410913071036      0.45827422104576
  C   0.83386244824338      0.35291998324929     -0.47104939247058
  Br  -1.81851093818302      1.39382289804741      0.00550854750836
  H   1.55886904365096     -0.42772657717784     -0.20517014784195
  H   1.25933019075830      1.31467233901492     -0.16882639899238
  N   -0.96097958638630     -1.26009292885963      0.24872483621716
  O   -1.78153723370454     -1.62444172535569      1.08033780921525
  O   -0.57002235926816     -1.91425365048139     -0.71253834276587
  N   0.04165702191072      0.15390467197979      1.80979409154600
  H   -0.73789986810670     -0.05548503878485      2.42169280898257
  H   0.43887761923093      1.05206050621019      2.05234673232686
  N   0.48354829608321      0.41497813125493     -1.87103277976811
  H   0.46408466050059     -0.51084087062451     -2.27156359066890
  H   1.14352646619081      0.98637313081703     -2.37749839433416
