14
Coordinates from ORCA-job run
  C   -0.38358416153104      0.34359317388682      0.40792219789388
  C   0.89830614427006      0.28070611133371     -0.41133256546030
  Br  -1.56567101190701      1.71510018605557     -0.27759178459493
  H   1.36876608074426      1.26830330116879     -0.33216800422483
  H   1.54590394363181     -0.44821317397840      0.08450190732874
  N   -1.06475244057082     -1.04578303437925      0.21375189770514
  O   -0.42942465487862     -1.94676155219713      0.75898518069057
  O   -2.09726823741627     -1.16990600077549     -0.41915293104262
  N   -0.10416596383394      0.60937465390545      1.77127690114990
  H   0.43849577998639     -0.15396693370838      2.15923214760707
  H   -0.95047960407594      0.73722539574396      2.31206130835226
  N   0.61852169181523     -0.19242783669485     -1.75316607787753
  H   1.45848982269715     -0.55517001758492     -2.18184344793510
  H   0.26586261106874      0.55892572722411     -2.33147672959227
