14
Coordinates from ORCA-job run
  C   -0.48541809544416      0.41146644705722      0.41454357073806
  C   0.43166933284744      0.67048940785492     -0.77042046329920
  Br  -1.84576123047264      1.80155149595188      0.53256752924984
  H   -0.16896467237894      0.82013917498198     -1.66907261807909
  H   0.96178992453702      1.59711046234328     -0.54371798671029
  N   -1.30139570589930     -0.88549307966278      0.11192566046752
  O   -1.67072789200586     -1.53388003574360      1.08297605509192
  O   -1.51591192755376     -1.16250599104116     -1.06406481616893
  N   0.23465838165054      0.31471169361593      1.61093736749044
  H   1.01806868128155     -0.31094302639981      1.44798566041605
  H   -0.34274550647561     -0.02200056456397      2.37041250481065
  N   1.37526371099163     -0.44010825913010     -0.85146444224134
  H   1.03312426119096     -1.14021841752376     -1.49666364899918
  H   2.27735073773113     -0.12231930774003     -1.17694437276645
