14
Coordinates from ORCA-job run
  C   -0.40866347169067      0.16212309336826      0.22109560234600
  C   0.52303093018121     -0.18112139442265     -0.95169543737635
  Br  -1.14836914633103      1.93921797686971     -0.00402781690980
  H   -0.06500222922299     -0.19799731377983     -1.87145544506951
  H   0.88681059997509     -1.19760918879774     -0.78419390584605
  N   -1.60015488801457     -0.83801612162021      0.23790143087415
  O   -1.30564551043369     -1.98041897197126     -0.11283922306105
  O   -2.67710680462943     -0.48523016969744      0.69700553004716
  N   0.29117547449315      0.10078931851374      1.45597119839303
  H   -0.28690244172394      0.37805580350335      2.24011809564189
  H   0.66074700912415     -0.83266348685141      1.60389267220412
  N   1.65303539338581      0.70512395045542     -1.11245853010080
  H   1.33859067425040      1.62600261802492     -1.38962950432560
  H   2.13745441063651      0.80174388640514     -0.22868466681720
