14
Coordinates from ORCA-job run
  C   -0.46306412517932      0.30284123086689      0.27953494860979
  C   0.53467644541098      0.65933773988143     -0.82123727898258
  Br  -1.93668406588394      1.67418170939343      0.24129178301794
  H   0.97795952191057      1.62030050799411     -0.53908795409007
  H   -0.00539260022758      0.81290711408129     -1.75344766449496
  N   -1.18868159566354     -0.99853833607235     -0.04425076392392
  O   -1.30064724851101     -1.29293403958096     -1.22805537478312
  O   -1.62267043905989     -1.64036488143334      0.90489938407707
  N   0.15004929811786      0.14079157087624      1.52719713132849
  H   0.58309451925914      1.00031983308823      1.83812846436042
  H   -0.48842861119050     -0.21552523684146      2.22682406159408
  N   1.57611999833763     -0.32262111226756     -1.02136482305851
  H   1.98130492349930     -0.59576013553591     -0.13558976371888
  H   1.20136397918029     -1.14493596445005     -1.47484214993575
