14
Coordinates from ORCA-job run
  C   -0.41334020216240     -0.03091737931561      0.26020249329729
  C   0.41018539041640      0.05136659360663     -1.02914363037597
  Br  -1.41919101190570      1.71898003721813      0.45651781576277
  H   0.74955890867485     -0.96685147601441     -1.23980740659582
  H   -0.24323528688179      0.35963823574372     -1.84285005067755
  N   -1.53266655841576     -1.05498102975573      0.13318780448940
  O   -1.97854229951116     -1.51553598492238      1.17730739792196
  O   -1.91013370753471     -1.32514644502215     -1.00019827236326
  N   0.34923775481292     -0.38033992634378      1.37390566800553
  H   -0.22107376490432     -0.53128677719989      2.19613113257620
  H   1.07026719068372      0.30325347519363      1.55573962704330
  N   1.55959117177020      0.92324861828983     -0.96943436258729
  H   1.30386835804105      1.86992223938470     -0.72359433649125
  H   2.27547405691672      0.57864981913730     -0.34596388000532
