14
Coordinates from ORCA-job run
  C   -0.42078981450855      0.25776221809469      0.37534406803893
  C   0.38697321927277      0.75383021357954     -0.82286104674605
  Br  -1.91278067846184      1.56992457679550      0.69721963102651
  H   -0.29417806759349      0.97488159230706     -1.64231349566369
  H   0.84692561003135      1.69963228903289     -0.51712930466427
  N   -1.15841506874572     -1.03343279853288      0.03719907915762
  O   -1.44469986471426     -1.21873307759506     -1.13939763230082
  O   -1.42721120065130     -1.77752246473075      0.97289448670212
  N   0.38133080398390      0.00078032357627      1.49330564839001
  H   -0.13359584148762     -0.44286854885973      2.24306222175855
  H   0.83786340182759      0.84274776491350      1.81851953467236
  N   1.40630623237522     -0.16552811894967     -1.27511944034817
  H   1.94805462416582     -0.50784669461091     -0.49233614261795
  H   0.98421664450613     -0.95362727502047     -1.74738760740517
