14
Coordinates from ORCA-job run
  C   -0.51704010114218      0.12147235456235      0.29521770233396
  C   0.42370144978446     -0.07918275825544     -0.91638606714336
  Br  -1.32491883699581      1.88328743964561      0.20036200249075
  H   -0.15742910892327      0.05693371703368     -1.83165082877701
  H   0.74624038504099     -1.12660877756431     -0.87342127981455
  N   -1.59489494928861     -0.95020341754193      0.12079928741066
  O   -2.51768481176550     -0.73458136653431     -0.65164092715355
  O   -1.35603797134838     -2.01128168412545      0.69256444067532
  N   0.03584398283001     -0.04225953399680      1.59858957887576
  H   0.47086429805112     -0.95117014852080      1.69535590934452
  H   0.68483110833450      0.70130643393374      1.81289874414760
  N   1.59052864066703      0.76487754298478     -0.96274959560075
  H   2.18340837529325      0.62740547008236     -0.15547843956143
  H   1.33258753946238      1.74100472829651     -1.02346052722793
