14
Coordinates from ORCA-job run
  C   -0.49024756927479      0.45527427634875      0.25916265723675
  C   0.53219172107394      0.62075693405648     -0.86841746149937
  Br  -1.84367047236962      1.84562522090760      0.13883093722749
  H   1.01472554943277      1.58629416657442     -0.70404735458555
  H   -0.00414931589517      0.66501404171982     -1.81473244678095
  N   -1.27504942276066     -0.87127033497489     -0.00143186741554
  O   -1.53645517161935     -1.15361888956561     -1.16488724377233
  O   -1.56367593520169     -1.54030901212511      0.98542135313983
  N   0.09509137823915      0.48031456120790      1.53827390322678
  H   0.80319322799735     -0.24110451135962      1.60487446443082
  H   -0.59200891184421      0.32513830657211      2.26495674719642
  N   1.53992259476880     -0.41154300416688     -0.94876388063197
  H   1.15341636041547     -1.32626966576842     -1.13196177351458
  H   2.16671596703802     -0.43430208942655     -0.15827803425780
