14
Coordinates from ORCA-job run
  C   -0.44927672991002      0.41740461392106      0.37030147270331
  C   0.40454971311064      0.71667091220982     -0.86418015062406
  Br  -1.80775705166983      1.79071049890119      0.58858426676164
  H   0.90205508461836      1.66868196685437     -0.66863934574477
  H   -0.25837101931661      0.84776414753992     -1.71763450917923
  N   -1.26156477562594     -0.88689314019356      0.08302628051813
  O   -1.68601583235811     -1.04840876609754     -1.05523275563213
  O   -1.40563247672222     -1.66155447839988      1.02313267886701
  N   0.31010037796318      0.31740636205359      1.55103967308305
  H   -0.27032141614011      0.08497348659550      2.34693158294565
  H   1.01356918010245     -0.40389450573026      1.44480349806745
  N   1.39527493658049     -0.28388000272867     -1.18937610408331
  H   0.99012063970988     -1.18144513378820     -1.41293485812089
  H   2.12426936965784     -0.37653596113734     -0.49782172956186
