16

C	0.0	0.0	0.0
C	-0.36453	0.329047	-1.473229
Cl	1.781238	0.0	0.0
H	0.022617	1.310457	-1.740088
C	-0.396826	1.14193	0.844379
N	-0.556827	2.035587	1.590115
N	-0.52213	-1.203748	0.566396
H	-1.539087	-1.050622	0.593851
H	-0.369629	-1.942776	-0.111434
N	-1.833241	0.362014	-1.787075
O	-2.403912	1.335108	-1.16308
O	-2.413077	-0.777876	-1.728568
N	0.239158	-0.624173	-2.444313
O	0.362775	-1.807071	-2.134938
O	0.521785	-0.1511	-3.544575
H	-2.920825	0.0	0.0
