18

C	-0.371621	-0.033942	-1.485274
C	0.0	0.0	0.0
Cl	-0.286675	1.601348	-2.299672
H	1.092347	0.0	0.0
N	0.423954	-1.011094	-2.08522
H	1.413623	-0.822736	-1.908796
H	0.218142	-1.12852	-3.069775
N	-1.849607	-0.405833	-1.671395
O	-2.118507	-1.28666	-2.482021
O	-2.654107	0.226001	-0.999277
C	-0.504826	-1.232031	0.72692
H	-0.178679	-2.116818	0.180713
H	-0.059858	-1.256248	1.722716
H	-1.589412	-1.226663	0.831176
N	-0.426051	1.244571	0.719391
O	-1.397282	1.178437	1.476315
O	0.257914	2.2483	0.537681
Br	3.433536	0.0	0.0
