18

C	0.0	0.0	0.0
C	-0.402974	0.086238	-1.539604
Br	1.951003	0.0	0.0
H	0.483994	0.472496	-2.045398
N	-0.22883	1.434402	0.650118
O	-0.628804	1.454435	1.809297
O	0.040923	2.429868	-0.015868
N	-0.643174	-0.983579	0.718027
H	-0.452318	-0.869649	1.707687
H	-1.677276	-0.761531	0.532398
N	-1.511251	0.932502	-1.915872
H	-1.261585	1.892948	-1.721782
H	-2.299005	0.670203	-1.295637
C	-0.683834	-1.331814	-2.023819
H	-1.63207	-1.653909	-1.594291
H	-0.777625	-1.306221	-3.111614
H	0.098639	-2.035305	-1.732395
F	-2.951644	0.0	0.0
