18

C	0.0	0.0	0.0
C	-0.505393	0.093457	-1.465429
Br	1.944992	0.0	0.0
H	-1.589921	0.163273	-1.26254
N	-0.366525	1.266907	0.80036
O	-0.213938	2.350355	0.237946
O	-0.725114	1.128183	1.958973
N	-0.537372	-1.094548	0.701812
H	-1.568628	-0.849099	0.644801
H	-0.395737	-1.881322	0.07333
N	-0.22637	-1.224386	-2.058122
H	0.586438	-1.16703	-2.660703
H	-1.020756	-1.499753	-2.619615
C	-0.019669	1.218805	-2.368886
H	-0.454763	1.060508	-3.362354
H	-0.323441	2.197759	-2.008387
H	1.071555	1.208729	-2.469524
F	-2.808566	0.0	0.0
