18

C	0.0	0.0	0.0
C	-0.51188	0.113082	-1.459961
Br	1.945011	0.0	0.0
H	-1.596803	0.165608	-1.249231
N	-0.368115	1.259703	0.81431
O	-0.804627	1.108595	1.942924
O	-0.146027	2.34866	0.287665
N	-0.53553	-1.103793	0.689901
H	-1.566754	-0.862217	0.633863
H	-0.385116	-1.884756	0.056844
N	-0.217893	-1.190425	-2.077213
H	0.593317	-1.111478	-2.679183
H	-1.008715	-1.460541	-2.646815
C	-0.046387	1.263181	-2.340002
H	-0.368178	2.229421	-1.961229
H	-0.478655	1.117477	-3.336724
H	1.044423	1.276166	-2.439518
F	-2.812908	0.0	0.0
