18

C	0.0	0.0	0.0
C	-0.37376	0.143898	-1.533983
Br	2.013192	0.0	0.0
H	0.512321	0.566835	-2.010369
N	-0.191046	1.413286	0.700515
O	-0.572902	1.398925	1.865745
O	0.076441	2.426539	0.062432
N	-0.648948	-0.993489	0.681538
H	-1.688534	-0.761784	0.478063
H	-0.480849	-0.89626	1.677113
N	-1.489559	0.993326	-1.887395
H	-1.248823	1.948808	-1.658848
H	-2.279559	0.708186	-1.28327
C	-0.630069	-1.25546	-2.080674
H	-0.718794	-1.184161	-3.16742
H	0.161795	-1.959342	-1.814856
H	-1.576562	-1.611606	-1.672093
F	-2.935687	0.0	0.0
