11
Coordinates from ORCA-job run
  C   1.21898297612446      0.21415183759501      0.13919357619326
  C   -0.21304753992276     -0.04252657339703     -0.31363880200140
  F   1.80767909283111      1.14604406724872     -0.69371899761852
  H   -0.19132742572829     -0.28316653740652     -1.38653965265421
  H   1.79243291404140     -0.71475398258235      0.07897364331724
  H   1.22497445575193      0.58938604399538      1.16295255544989
  C   -1.01610430189331      1.17573213213139     -0.16290333945574
  N   -1.67218151829701      2.14016423543570     -0.03721378195780
  N   -0.76503504927817     -1.10054778842557      0.53260221869229
  H   -0.41138551513052     -1.99793245961015      0.22300860056816
  H   -1.77398808849885     -1.12555097498457      0.45928397946682
