11
Coordinates from ORCA-job run
  C   1.22878778004989      0.21882615602757      0.04429174218827
  C   -0.22649542699697     -0.04242972210687     -0.31989910091037
  F   1.32862629115920      0.73714668200831      1.31292913544865
  H   -0.23540157733188     -0.31085247944447     -1.39049823758750
  H   1.66843787832762      0.93010528736627     -0.65949947355600
  H   1.78646211774306     -0.72261285487786      0.00982013011113
  C   -1.00479015520866      1.19705241200983     -0.19064833722478
  N   -1.63756824341642      2.18212867643139     -0.12054697947903
  N   -0.79730308628347     -1.05850574694233      0.55684200601175
  H   -1.78129451926373     -1.18594797716873      0.35612925635772
  H   -0.32846105877863     -1.94291043330311      0.40107985864017
