11
Coordinates from ORCA-job run
  C   1.24095296353196      0.22237667876610      0.02608258480968
  C   -0.20116687408450     -0.07314538478133     -0.36909916010601
  F   2.05021820736647     -0.80752779294161     -0.39877312261826
  H   -0.20100177798711     -0.30892293116734     -1.43772224615753
  H   1.32685138590434      0.30689370524607      1.11346142967064
  H   1.58137090850543      1.14881865440648     -0.44236790615134
  C   -1.00019505673729      1.15669734128571     -0.17234357362086
  N   -1.64712646288616      2.11450821280266      0.03724175556602
  N   -0.70604470160871     -1.23097843210130      0.34882933781705
  H   -1.59653663679983     -1.52409041897566     -0.03257179571045
  H   -0.84732195520460     -1.00462963253978      1.32626269650105
