11
Coordinates from ORCA-job run
  C   1.25236591651548      0.15706008603567      0.06551829402009
  C   -0.18910287463064     -0.05366386656253     -0.37729398146685
  F   1.75786684544570      1.29713630422831     -0.52770304715414
  H   -0.18519205092600     -0.18518982930303     -1.46307897426462
  H   1.30948599123685      0.27707491791033      1.15088832270051
  H   1.84424885310215     -0.70397489855682     -0.24667380687435
  C   -1.00314437740834      1.14027636844286     -0.07204647370591
  N   -1.68448791725735      2.05036575183923      0.22204388847976
  N   -0.68135850385131     -1.28185780502026      0.23249711490917
  H   -0.86881745879609     -1.13085130694297      1.21677610434184
  H   -1.55086442343045     -1.56537572207080     -0.20092744098551
