15
Coordinates from ORCA-job run
  C   0.84159768572764     -0.00457570109125     -0.29871078010395
  C   -0.65130593022895      0.30602441344312     -0.22399451023132
  Br  1.63598517451491      1.59018718981126     -1.25277411592743
  H   -1.07106632249086      0.43839035386808     -1.21940742226206
  C   1.52429024698989     -0.10064335754529      0.98883350914176
  N   2.16589659043031     -0.26988763188820      1.95918823470239
  N   0.98728782939479     -1.22691309576863     -0.99199390619561
  H   1.94317675974572     -1.55909477515153     -0.99409380798966
  H   0.62381975893059     -1.19007611027307     -1.93684747674863
  N   -1.01833316651911      1.52200789618940      0.57199060749170
  O   -2.11784227594299      1.99001432540703      0.29016076739021
  O   -0.24257295711475      1.90915264220597      1.43502742111239
  N   -1.37327695873059     -0.85544916915699      0.40869980419908
  O   -2.04173225216075     -1.54658547020674     -0.34923815023013
  O   -1.20492418254584     -1.00255150984317      1.61315982565126
