15
Coordinates from ORCA-job run
  C   0.90149211136257      0.27375944478621     -0.05887281496993
  C   -0.55450429448039      0.42161082837438      0.41391902462775
  Br  1.66329591233380      2.07442848831590     -0.23003606429669
  H   -0.65142141034847      1.13965938386095      1.22601681107554
  C   1.66474994106541     -0.37360354255457      1.02218927544452
  N   2.28918699057556     -0.91588448433936      1.85902475214161
  N   0.96230551563256     -0.35262892250440     -1.34521853821043
  H   0.60716034264621     -1.30120614271378     -1.28237652516815
  H   1.91364301755380     -0.36331855944149     -1.69220217681679
  N   -1.12998930990756     -0.87793651223599      0.90270826658930
  O   -0.64534486338986     -1.92118586578110      0.47506570504001
  O   -2.07553119573173     -0.76512325336244      1.67405833343414
  N   -1.44208748216123      0.87502828974000     -0.71858344383891
  O   -1.50665808274859      2.08596825338999     -0.87710007458228
  O   -1.99729719240205      0.00143259446572     -1.37059253046968
