15
Coordinates from ORCA-job run
  C   0.77678601441272      0.01222786059126     -0.38879869168572
  C   -0.53426265871515      0.09692106730847      0.40975979319998
  Br  0.64134086605481      0.81921659217429     -2.15727669349707
  H   -0.35380294449763     -0.22052537995732      1.44017098845748
  C   1.82928419311858      0.72972581761367      0.34541194943326
  N   2.72177241434679      1.17889185307258      0.96685593818744
  N   1.04891915461359     -1.39464584802442     -0.57801957060272
  H   1.22493417448297     -1.84914906192955      0.31394601724133
  H   1.86027317097210     -1.51533618590673     -1.17307166772024
  N   -1.55041330788506     -0.84994163775228     -0.14855284731170
  O   -1.72677448589321     -1.87295169246436      0.50430585187683
  O   -2.08707385429264     -0.52871257147543     -1.19875251267148
  N   -1.14043161115461      1.47174359230487      0.50488989328133
  O   -0.37806221180814      2.42092872322901      0.38071449144754
  O   -2.33248891375514      1.50260687121595      0.77841706036376
