15
Coordinates from ORCA-job run
  C   0.82439589652619      0.05306355141823     -0.33996735124880
  C   -0.69279002636328      0.18555059429187     -0.23114470553638
  Br  1.37076459825106      1.56783754188493     -1.56170584050782
  H   -1.16039971033355      0.11210240323577     -1.21121639211749
  C   1.55887836348997      0.24131772390148      0.90824118599215
  N   2.24881494596494      0.30507180586708      1.85786643607752
  N   1.10295311340112     -1.23391467000584     -0.85143612639222
  H   2.09301096689104     -1.44309208913534     -0.85625228223271
  H   0.70391222918056     -1.38874813353213     -1.76955366822018
  N   -1.18675337094844      1.45430809369447      0.39515184806387
  O   -0.43823142103084      2.06276358268258      1.14759964410886
  O   -2.34783769761308      1.73303416819906      0.10926942109999
  N   -1.23517538527672     -0.94511574176525      0.60376353807381
  O   -1.83605308810838     -1.82028437271988     -0.00621745603865
  O   -1.00548941403060     -0.88489445801704      1.80560174887806
