15
Coordinates from ORCA-job run
  C   0.90581436578132      0.07244534770109     -0.08121859649096
  C   -0.49378973625983      0.41131014901772      0.44361531695729
  Br  1.70012027429617      1.89584987750954     -0.55604598558555
  H   -0.44633462628283      1.01257284648830      1.34906951144749
  C   1.74911919496421     -0.39051430283441      1.01943711441738
  N   2.45711640634663     -0.77244808064728      1.87667100197422
  N   0.87622728346902     -0.87695604670105     -1.10682125765410
  H   0.32111103966547     -0.58056749783772     -1.89909280449890
  H   1.79507062804145     -1.19793431320303     -1.38019258904251
  N   -1.21759513805154     -0.87515389863193      0.78802783076665
  O   -2.06602949814282     -1.28068454432002      0.00747822554268
  O   -0.84498683612178     -1.39283877064045      1.83202329498393
  N   -1.35311588842337      1.15056165810113     -0.53441937742564
  O   -2.17037617375724      1.91146406056210     -0.02808102469631
  O   -1.21135129552485      0.91189351543602     -1.72845066069567
