15
Coordinates from ORCA-job run
  C   0.84426006942168      0.10516273360330     -0.41108901223603
  C   -0.45642134067719      0.01144243399391      0.43013307974357
  Br  0.53142513350659      1.19404837906885     -2.01125766522389
  H   -0.21454640030191     -0.34299064310794      1.43372451969277
  C   1.84570341980186      0.80040122853529      0.40271620092397
  N   2.66415612066116      1.29377764978798      1.08721579953601
  N   1.39088792368010     -1.15740557435843     -0.80697215374614
  H   1.75331984395736     -1.68315781563675     -0.02103611596933
  H   0.73675012703498     -1.69594511510408     -1.35856349411486
  N   -1.47662881872238     -0.94456350995515     -0.10991822254939
  O   -1.44952694339193     -1.23390860398963     -1.30076682327728
  O   -2.28499024542130     -1.33681227051601      0.72512553493248
  N   -1.14448282489133      1.34160872377981      0.60425647800583
  O   -2.18793000209050      1.52857261937211     -0.00470202918099
  O   -0.55197606256719      2.11976976452672      1.34113390346328
