15
Coordinates from ORCA-job run
  C   0.88439481713047      0.15169545988554     -0.29365367009788
  C   -0.39972867483563      0.52953396941804      0.46338984899724
  Br  1.75185160082984      1.81603242715613     -0.86912984980421
  H   -0.23386236711225      1.33843449288779      1.17231674823451
  C   1.81314365634561     -0.46164972876429      0.67145177636953
  N   2.55981737435066     -0.98108517861792      1.41775681866915
  N   0.58500975241453     -0.61521676820258     -1.46525108409237
  H   0.15941579894598     -1.49705092905599     -1.19859024999473
  H   1.42634399363718     -0.78764977734736     -2.00217229345523
  N   -0.96516379554432     -0.62732157462688      1.23895499721260
  O   -0.70499766644578     -1.76292952555080      0.85308177340035
  O   -1.67674141484821     -0.31468485136535      2.18635052304955
  N   -1.48043288570927      0.96354906762796     -0.49516392894748
  O   -2.24782739520190      0.09792289556244     -0.89324838200566
  O   -1.47122279395690      2.15142002099328     -0.78709302753536
