15
Coordinates from ORCA-job run
  C   0.97335286488222      0.20796874726530     -0.09677596195760
  C   -0.47797404472703      0.38818457411709      0.41618362465770
  Br  1.54830865914636      2.04439362634249     -0.55276802995299
  H   -0.51969548239253      1.01594159788294      1.30654464033375
  C   1.77780848039776     -0.21391939187967      1.05194151523350
  N   2.40415814023960     -0.53948515510576      1.99176474909817
  N   1.22361927542719     -0.63674038062803     -1.21260328145161
  H   1.12057468645711     -1.60915667098103     -0.94962512236267
  H   0.61013851917640     -0.41600968081770     -1.98697614219996
  N   -1.13499770944760     -0.92689996197739      0.77709522101717
  O   -0.44899364781672     -1.94262433099721      0.75477955727417
  O   -2.31510365575668     -0.84014282026275      1.08945239615175
  N   -1.37093586483480      1.01030797181565     -0.60986362893909
  O   -1.49053709481064      0.38471684685638     -1.66142628369498
  O   -1.90072312594064      2.07346502836970     -0.31672325320731
