15
Coordinates from ORCA-job run
  C   0.89075629171557      0.17190003240654     -0.26158438981704
  C   -0.42351591915377      0.51607497883707      0.45874011593925
  Br  1.74609525940192      1.85845639381815     -0.78797746667807
  H   -0.29754986781531      1.31839140620841      1.18323495200789
  C   1.80055225737343     -0.43755950400604      0.72387093758484
  N   2.53454824842256     -0.95328508714592      1.48517292336570
  N   0.64110506371024     -0.58421358249225     -1.45193511139527
  H   1.50083830299477     -0.73141164540897     -1.96680326109794
  H   0.22802226522187     -1.47887518107462     -1.20891529720084
  N   -0.99395768907851     -0.66100073114466      1.19939843215451
  O   -1.75505079740486     -0.37330149697963      2.11578077642974
  O   -0.69008469640777     -1.78679949349563      0.81672130644105
  N   -1.48059026073729      0.94223000543236     -0.53025677323705
  O   -2.22300297646463      0.06880432135389     -0.95741089706776
  O   -1.47816548177820      2.13158958369129     -0.81503624742902
