15
Coordinates from ORCA-job run
  C   0.82316957136856     -0.00337015120941     -0.29148340145438
  C   -0.51748220106778      0.03959685444750      0.46248903252076
  Br  0.68098489511228      1.00950084548572     -2.01360705471655
  H   -0.34894311006634     -0.25270321818645      1.49937951356199
  C   1.82621109448388      0.71479579529894      0.49657926109366
  N   2.67757342379445      1.22821644639984      1.12370151107897
  N   1.22167438901401     -1.35986749173455     -0.41998299664491
  H   0.65932292275501     -1.84163650850358     -1.11105680433729
  H   2.20341482177315     -1.43615735461171     -0.65388525371469
  N   -1.55701340004131     -0.89692025834535     -0.07282269423652
  O   -2.45299677711229     -1.15482993842435      0.72216742608326
  O   -1.45638276487351     -1.29934814499060     -1.22658309085702
  N   -1.12111250294153      1.41900241389788      0.48462695886828
  O   -2.11915422968133      1.61829364995596     -0.19251482772792
  O   -0.51926613251726      2.21642706052017      1.19299242048235
