15
Coordinates from ORCA-job run
  C   0.82214150793793      0.07027481806107     -0.34295386885779
  C   -0.69595794530458      0.18139877922311     -0.22516138484484
  Br  1.34365297538670      1.61321955408071     -1.53901283846008
  H   -1.16693848026583      0.12026428690089     -1.20446415047315
  C   1.55971559302740      0.24514195170879      0.90551634546665
  N   2.25255826906378      0.30037238894585      1.85357461629083
  N   1.11478903305287     -1.20416024272662     -0.87809621562778
  H   0.71481829318317     -1.34766539263239     -1.79765252251452
  H   2.10760915084182     -1.39922464127513     -0.89030161064531
  N   -1.20397044328236      1.43119390855351      0.42779922129519
  O   -2.37146078160797      1.69680153601223      0.15585817735101
  O   -0.45826098474738      2.03826418411814      1.18408507007994
  N   -1.22049318328000     -0.97169987605816      0.59096266480721
  O   -0.98789935149777     -0.92978515864183      1.79298332137671
  O   -1.81030365250777     -1.84439609627016     -0.03313682524407
