15
Coordinates from ORCA-job run
  C   0.85170849491089      0.06224528579279     -0.40756207827764
  C   -0.49662769259287     -0.08116263407965      0.35060862717527
  Br  0.57416222040055      1.07184982755907     -2.06209297912379
  H   -0.38962709507686     -0.84440970921310      1.12285598622784
  C   1.76661457677264      0.80354207504888      0.46296433097664
  N   2.49801521710309      1.32921522475502      1.21817096749242
  N   1.46898421968787     -1.18541804542635     -0.75403553202361
  H   0.82378387033566     -1.78526019224304     -1.25374580313062
  H   1.82690002084921     -1.65907736160985      0.06803378933027
  N   -1.59054878003584     -0.55279284636862     -0.57085490543978
  O   -2.51826461720413      0.20661172257223     -0.80258707938341
  O   -1.42214397771843     -1.68156168066869     -1.02096171282680
  N   -0.99689199090963      1.15050193362979      1.04446195769519
  O   -0.63958419839011      2.24275557876037      0.62250141163136
  O   -1.75748026813205      0.92296082149114      1.98024301967667
