15
Coordinates from ORCA-job run
  C   0.82033730721139      0.07414052161314     -0.34458202461342
  C   -0.69893101810185      0.16967125930992     -0.22559400469015
  Br  1.32197241309322      1.60727053147684     -1.56193177697696
  H   -1.17024347156514      0.08815781741214     -1.20328403702350
  C   1.55795862293105      0.27319249286616      0.90000835166492
  N   2.25265878954268      0.34726542085644      1.84536047654997
  N   1.12643728480311     -1.20346640059161     -0.86434949327082
  H   0.72785761723928     -1.36204177725088     -1.78201168842529
  H   2.12137670653222     -1.38797584526445     -0.87504046884262
  N   -1.21864214044130      1.42446605761949      0.40805682647481
  O   -2.38582727620095      1.68038546952899      0.12558040869759
  O   -0.48064511972595      2.04507797754791      1.16102009812250
  N   -1.20894946637405     -0.97668490426105      0.60857982110951
  O   -0.97455494711589     -0.91474439137817      1.80945929286587
  O   -1.79080530182782     -1.86471422948488     -0.00127178164240
