15
Coordinates from ORCA-job run
  C   0.74277137442180      0.15489588165461     -0.42268958341459
  C   -0.50148220643848     -0.04672927437280      0.45751722942000
  Br  0.45219239542537      1.43259154345525     -1.86510331668552
  H   -0.23378517621668     -0.64073299228669      1.33536112534253
  C   1.83813251194919      0.67106449636243      0.41122128358402
  N   2.77068119415059      0.95570752151851      1.06986142339696
  N   1.02325426317064     -1.12515821330613     -1.03227648336203
  H   1.78687057300817     -1.03651091979774     -1.69254622188888
  H   1.27686578605542     -1.81110935261488     -0.32638768195318
  N   -1.54240874879956     -0.83223990455138     -0.27799491925313
  O   -2.16670235871691     -0.24350724629653     -1.14840883163627
  O   -1.64757407900007     -2.00638130692717      0.05979414189675
  N   -1.12186277267210      1.21662688371934      0.99136935723124
  O   -0.38784131347551      2.19017069689435      1.09638746208042
  O   -2.28911144286186      1.12031218654883      1.34489501524166
