15
Coordinates from ORCA-job run
  C   0.82114915962776      0.07265663980590     -0.38957092310052
  C   -0.65273064650711      0.40825491222665     -0.13462936249929
  Br  0.94886875818666     -0.04199878316196     -2.42609506743574
  H   -0.91863089591159      1.37887426344472     -0.54805566618366
  C   1.65646718890738      1.22626359725770     -0.05969551087788
  N   2.36571173439181      2.12754392323254      0.19794564344021
  N   1.24252007783802     -1.05462199894259      0.32267006589305
  H   2.23803664246476     -1.21795781618530      0.25684849648248
  H   0.70302918854293     -1.88152641027811      0.10077610841804
  N   -0.89415773524130      0.46834190074102      1.36064815487763
  O   -0.46426773760641      1.48184158204084      1.89439449308166
  O   -1.45861850068321     -0.47874463532706      1.88777338448764
  N   -1.61454619722934     -0.59171132049819     -0.69637246585281
  O   -2.69613401687101     -0.12860704411963     -1.04106240058604
  O   -1.27569701990936     -1.76960881023653     -0.72557495014478
