15
Coordinates from ORCA-job run
  C   0.86189681651043      0.01673195085389     -0.23394132188430
  C   -0.64504645202834      0.25509735407645     -0.29586955361593
  Br  1.65661343082268      1.57195825939123     -1.24922537223614
  H   -0.99060324283808      0.29377400640024     -1.32724881421649
  C   1.44376183007569      0.05249381282084      1.10527117423967
  N   2.01570360095976     -0.00361439384992      2.13070799140849
  N   1.11673189637235     -1.24587456483791     -0.81534586767354
  H   2.08404583534269     -1.52714910799442     -0.71877341317789
  H   0.82922033543170     -1.29784236526023     -1.78534889592740
  N   -1.12959405798607      1.50468122819565      0.37544355008855
  O   -0.43599054564639      2.00301475487755      1.25131662724013
  O   -2.23147991616961      1.88322795219101     -0.01173795836558
  N   -1.36070383645650     -0.89267259765155      0.36731952930781
  O   -1.28356471716124     -0.94097454831723      1.58905034759904
  O   -1.93199097722906     -1.67285174089561     -0.38361802278643
