15
Coordinates from ORCA-job run
  C   0.79390089844385      0.13875367559294     -0.42823496499373
  C   -0.72232217690373      0.18961344703985     -0.25023905154609
  Br  1.21642964647768      1.54555330817589     -1.72292229658368
  H   -1.20782057677754      0.14765813895665     -1.22274805145037
  C   1.59203665500322      0.39294468863356      0.77422935382070
  N   2.32992141784996      0.48285554121542      1.68580972327003
  N   1.07464000745756     -1.14165635714578     -1.05308385389511
  H   1.15580949865321     -1.85086552974337     -0.32967455524576
  H   1.95643031077356     -1.09666182549621     -1.55021402363409
  N   -1.25718892681330      1.39839882839039      0.47356112773684
  O   -2.47201592834189      1.54236712990891      0.39548204092959
  O   -0.45966153808010      2.11041381746783      1.07177638074222
  N   -1.21429840424371     -1.00155955611104      0.52749722747238
  O   -0.49334532493489     -1.38768702135626      1.44569420384035
  O   -2.29151555856386     -1.46912828552878      0.18306673953673
