15
Coordinates from ORCA-job run
  C   0.92109030604276      0.09300315857659     -0.31311129770468
  C   -0.61243635447461      0.26552562049017     -0.28268553520881
  Br  1.58868573418692      1.66989097010522     -1.28274821558952
  H   -1.01326728354507      0.25435073392931     -1.29490470355302
  C   1.49501316445879      0.06327999341572      1.03186647400690
  N   1.98650664596686     -0.06411637597799      2.09195473737438
  N   1.36343081431579     -1.07096430446617     -1.01837938904009
  H   0.93834414353966     -1.14374129753274     -1.93472670652361
  H   1.20203471326011     -1.91871745098368     -0.48769989219962
  N   -1.11872757074142      1.51037148721226      0.38006514864393
  O   -0.42130272107857      2.03255145238714      1.23937321828610
  O   -2.23172810896864      1.86545160563661      0.00287774116980
  N   -1.23154038007108     -0.89708980685046      0.45079444684794
  O   -1.39851607930316     -1.90607791565237     -0.22794920412710
  O   -1.46758702358834     -0.75471787028961      1.64427317761740
