15
Coordinates from ORCA-job run
  C   0.92820240305872      0.09623802341984     -0.28835470438913
  C   -0.60920169791154      0.17681610501146     -0.31187950615095
  Br  1.52452606836493      1.65278357181515     -1.33881820020867
  H   -0.97777938034292      0.10880923405464     -1.33549841429434
  C   1.48239729512486      0.22797524540251      1.05859945529793
  N   1.98392291808782      0.32379985717165      2.11714633494686
  N   1.46259684849641     -1.07713012112046     -0.91111828680658
  H   1.27315050726911     -1.89965552877584     -0.35188486236272
  H   1.13158463501652     -1.18855296583521     -1.86156891876328
  N   -1.16875578266097      1.43649029550797      0.28070199525259
  O   -1.00422974310520      1.56965069492509      1.48947645911909
  O   -1.73375944456284      2.20294271398280     -0.48935657588596
  N   -1.26234417614042     -0.94334516228052      0.46537483122721
  O   -2.48505062896829     -0.95729655608975      0.40131713075029
  O   -0.54525982172620     -1.72952540718933      1.07486326226766
