15
Coordinates from ORCA-job run
  C   0.84405223722514      0.00490395343791     -0.34516033136216
  C   -0.63090188358497      0.40343462708387     -0.22477245453284
  Br  1.08621356578087     -0.36105567723096     -2.34211543606129
  H   -0.84359751121906      1.32002343086666     -0.77096638721710
  C   1.69490712707086      1.16908679131070     -0.10520980674407
  N   2.41810343821952      2.07465663303294      0.09229314923827
  N   1.18805596520824     -1.03647512396132      0.52212414563630
  H   0.63881824720934     -1.87218731773531      0.36726863266927
  H   2.18058415030254     -1.22829937129900      0.54065580974940
  N   -0.95692504420682      0.65709941088976      1.23383215812905
  O   -1.57887145629713     -0.20320306590927      1.83928738210142
  O   -0.52939907511273      1.72002827287968      1.66267004362267
  N   -1.58934867073619     -0.63723908101171     -0.71458969343744
  O   -1.28240528603521     -1.81694503919116     -0.58466159888378
  O   -2.63828580382440     -0.19582844316278     -1.17065561290771
