15
Coordinates from ORCA-job run
  C   0.79449930631277      0.12772106166514     -0.42501980083132
  C   -0.72050798206846      0.19793801540300     -0.24701869744915
  Br  1.23372553891641      1.54510404434276     -1.70215622952683
  H   -1.20662738171614      0.15669652533070     -1.21899249107403
  C   1.59887576298182      0.35610081431991      0.77848648971676
  N   2.35261969517421      0.43653550420520      1.67791974621517
  N   1.05602240247856     -1.14964624023575     -1.06483930219931
  H   1.93590794788074     -1.11044143416210     -1.56589474519252
  H   1.13275626032189     -1.86699282815092     -0.34893301940352
  N   -1.23971573378767      1.41506272182897      0.47107518553608
  O   -2.44214451349902      1.61305007735596      0.33554659048129
  O   -0.44442261554587      2.07821523115220      1.12602774526334
  N   -1.22799342800155     -0.98370941717888      0.53632315697417
  O   -0.50924963682084     -1.38141487603665      1.45109774553109
  O   -2.31474562262686     -1.43321919983954      0.19737762595877
