15
Coordinates from ORCA-job run
  C   0.89992722670067      0.10392674138978     -0.10471539085250
  C   -0.49907257116255      0.40654875240480      0.44359031981937
  Br  1.61381052603975      1.93938762193564     -0.65160135620786
  H   -0.45328292830776      1.03494081835520      1.33054227096376
  C   1.78501105794101     -0.29611065841571      0.98789062482410
  N   2.52786500006632     -0.63059568724050      1.83531352447284
  N   0.88239688991684     -0.87670341413446     -1.10124482644624
  H   1.80653033347008     -1.16923997426656     -1.38854767624939
  H   0.29786268471942     -0.62474546474556     -1.88786883577522
  N   -1.16590090670820     -0.89524114214612      0.84210647412949
  O   -2.01252904984518     -1.35787490928599      0.09200820037885
  O   -0.75293158284492     -1.36493922806030      1.89375473509013
  N   -1.40653819315453      1.08517635880888     -0.53486309597123
  O   -1.28894904287779      0.80893083895682     -1.72350288286029
  O   -2.23419944395317      1.83753934644406     -0.03286208531582
