15
Coordinates from ORCA-job run
  C   0.82886230610088      0.03006089230023     -0.26982101051418
  C   -0.52977350259334      0.01348894459681      0.45209570726644
  Br  0.69354338559177      1.07044513431955     -1.97655340822703
  H   -0.37604927146678     -0.28874105081000      1.48845971750688
  C   1.78906108752010      0.76625169213673      0.55430434933359
  N   2.61078163134697      1.29458509733292      1.20804644161690
  N   1.27662947384418     -1.30943770801713     -0.41392576339362
  H   0.74805853611976     -1.79585494263819     -1.12801708373241
  H   2.26580553808493     -1.34725164906087     -0.62504343504640
  N   -1.52241144536099     -0.94940391206922     -0.12370776212419
  O   -2.42623979821289     -1.25505050702375      0.64521699230846
  O   -1.38164665055451     -1.32411600047292     -1.28267994308282
  N   -1.18238115737540      1.37095030124009      0.47934705672584
  O   -0.62073775540522      2.18055799699002      1.20614931828499
  O   -2.17350237763947      1.54351571117573     -0.21487117692245
