15
Coordinates from ORCA-job run
  C   0.80729918662297     -0.06500302843540     -0.48714877727229
  C   -0.63986919272895      0.40875073083355     -0.27344850661509
  Br  1.08692024521277     -0.26964918716382     -2.41960794113791
  H   -0.91073609623734      1.21606384211266     -0.95129648747125
  C   1.70481018825081      1.02808782246658     -0.07441889734344
  N   2.44192902897068      1.87573606551080      0.27523343061330
  N   1.02927447463820     -1.33938266333257      0.12576685421927
  H   0.91671493634977     -1.26146016482722      1.13109797878657
  H   1.95672618968463     -1.68308916492692     -0.09149613934300
  N   -0.88063828607092      0.90662168551392      1.12469137280143
  O   -0.13283265135141      0.51520175148693      2.01567542720694
  O   -1.84806756751552      1.64862348706657      1.24581050582774
  N   -1.61409006035402     -0.72340510215872     -0.48473310658372
  O   -2.00742179745500     -0.86790854524661     -1.63410197133144
  O   -1.90901859801669     -1.38818752889978      0.49897625764287
