15
Coordinates from ORCA-job run
  C   0.81521491249953      0.03936426871082     -0.29737158820604
  C   -0.57391324480923      0.05472382393274      0.36170532375791
  Br  0.89878894187425      1.12402716673531     -1.91403277893514
  H   -0.51791415351765     -0.43024296286024      1.33985928354967
  C   1.79907355438720      0.58173927970836      0.65079071539764
  N   2.62983326070918      0.88472534259642      1.42704665324392
  N   1.06772135474515     -1.32998506820079     -0.68473027212472
  H   1.12888710439869     -1.92935195644751      0.13389608188827
  H   1.93729918377071     -1.39097022113018     -1.20151404329605
  N   -1.54666614270718     -0.74546802623261     -0.44752298293789
  O   -1.82168556478551     -1.85028800505682      0.00806171440653
  O   -1.95428162312075     -0.23814424789488     -1.48212063131477
  N   -1.14897634653096      1.42251325041037      0.61499109692465
  O   -2.36316399622508      1.46423375875560      0.75894177373868
  O   -0.35121724068836      2.34312359697340      0.73199965390736
