15
Coordinates from ORCA-job run
  C   0.84736372420789     -0.09300355715245     -0.20151306794601
  C   -0.58606305814640     -0.00221444966975      0.35391714587997
  Br  0.86178716867140      0.47964446836615     -2.12558791477592
  H   -0.63658490369246     -0.57679446354737      1.27960109474904
  C   1.70521849516863      0.85161597345892      0.51478984060027
  N   2.42922405119263      1.55051515792733      1.12215794283577
  N   1.33539849601329     -1.40842942527342      0.01033639793842
  H   2.30319078875262     -1.49058268259188     -0.27603779622992
  H   0.76564349955835     -2.09457548649018     -0.47058826200786
  N   -1.58365143194591     -0.61893066158107     -0.59604528830867
  O   -1.38597788475697     -1.80535010460017     -0.83368941395543
  O   -2.47870553431244      0.08557383316921     -1.03326295695026
  N   -1.06100471500003      1.38065268569470      0.67259682587537
  O   -0.62116301160884      2.31256453225323      0.01163053996535
  O   -1.89467568410174      1.42931418003676      1.57169491232988
