15
Coordinates from ORCA-job run
  C   0.84117553853682      0.06776699365702     -0.34517835743845
  C   -0.66115220260212      0.34831467779328     -0.22887352496262
  Br  1.11146077110000     -0.30754084625058     -2.33680765972740
  H   -0.94584622569836      1.23819084373151     -0.78625050441031
  C   1.59506125646431      1.30064872069351     -0.12481795732535
  N   2.23985782880559      2.26704292477124      0.05472239169270
  N   1.26802634779038     -0.92934232219068      0.53696577487013
  H   0.78473651564093     -1.80753405368319      0.39795277909871
  H   2.27248961205516     -1.04288109377462      0.55436293470423
  N   -1.00689485766632      0.59375023341991      1.22672671775719
  O   -1.55309762706583     -0.30767582140902      1.84514376150171
  O   -0.67088885200559      1.69537429330610      1.63956945963176
  N   -1.53197374684050     -0.77170374011918     -0.70604299849249
  O   -1.13598773534145     -1.92136726843207     -0.54995246336556
  O   -2.60796662317302     -0.42204354151324     -1.17852035353426
