15
Coordinates from ORCA-job run
  C   0.87427290905396     -0.05116855755926     -0.35053165190038
  C   -0.52350480968892      0.00771743876483      0.32492209001220
  Br  0.75418966581435      0.64707037541014     -2.17600722771658
  H   -0.50762974808532     -0.60513819826425      1.22744574181511
  C   1.77648699796872      0.79622479631673      0.43237637838769
  N   2.51383170439252      1.40262722251652      1.11821068188798
  N   1.44067941921159     -1.36706175381171     -0.42094765546761
  H   1.72541881469415     -1.69480442202143      0.49533544147534
  H   0.79356221121223     -2.02055469934555     -0.84520569008650
  N   -1.58401342830846     -0.57543512495550     -0.57070606812590
  O   -2.44927148042152      0.16950901922385     -1.00369524450071
  O   -1.45376645446584     -1.77439313320271     -0.79574559266143
  N   -0.99286890377455      1.36731463541326      0.74823598008447
  O   -1.82641281824390      1.35070301056076      1.64868400320567
  O   -0.54197407935901      2.34638939095431      0.16762881359064
