15
Coordinates from ORCA-job run
  C   0.89080384335929     -0.07197082180082     -0.30212253491899
  C   -0.53892638550549      0.02755377556776      0.29713965744891
  Br  0.86355921640295      0.50770006319546     -2.17249853195068
  H   -0.56792438990931     -0.52499411419983      1.23747876448560
  C   1.75386560190727      0.82618457831922      0.46821790487264
  N   2.45610636832911      1.47793488149860      1.14920620812320
  N   1.45805898221370     -1.38860240244109     -0.25881049183599
  H   0.83205231799516     -2.06948604509554     -0.67154467961107
  H   1.69684526881663     -1.65570361151850      0.68980809429789
  N   -1.55377111502424     -0.61509714532363     -0.61065383395778
  O   -1.41348903140157     -1.82588375995665     -0.75116304214418
  O   -2.39578136619387      0.09834358201744     -1.13339052719689
  N   -1.02814295249425      1.41060393118664      0.60714444093069
  O   -1.90712483789400      1.44992942322409      1.46249303126804
  O   -0.54613152060138      2.35148766532685     -0.01030445981138
