16
Coordinates from ORCA-job run
  C   1.11830452549037     -0.47270852233146     -0.35931162576159
  C   -0.39177722065051     -0.34300215256683     -0.45406627282342
  F   1.47308383488395     -1.76077360252454     -0.10112937052663
  H   -0.66133663519447     -1.07892755092684     -1.22240034998459
  H   1.63628513998087     -0.13163633984035     -1.25711626130996
  N   1.65098621523208      0.38456650842461      0.76180332014531
  O   1.84164150771362      1.56361197687832      0.47110738478204
  O   1.80824388471924     -0.13381015880847      1.85958367112903
  C   -0.82108493498864      1.04076232878750     -0.93361802181095
  H   -1.89737092488336      1.04493921707959     -1.11898427441655
  H   -0.31737767852678      1.32400239814624     -1.86116323964719
  H   -0.60292348183721      1.80630539157498     -0.18741050790936
  C   -1.07286006107265     -0.73819234068876      0.85377993057477
  H   -0.89494374770406      0.00551877251486      1.63411122335218
  H   -2.15166064162527     -0.80799128542973      0.69853813813204
  H   -0.71520978153719     -1.70266464028912      1.21627625607487
