16
Coordinates from ORCA-job run
  C   1.11487383957802     -0.45703668743936     -0.38837121143659
  C   -0.39783206699121     -0.34051291115238     -0.45065958799487
  F   1.48667971389343     -1.74526019011262     -0.15587345041477
  H   -0.67596218852730     -1.06916959939009     -1.22287449309250
  H   1.61205511845166     -0.09864655337805     -1.29117928096160
  N   1.66241659539624      0.38895864660907      0.73480852090483
  O   1.83363040486202      1.57446813040130      0.45874785881834
  O   1.84940127328435     -0.14453252489468      1.82064589585733
  C   -0.85077253342590      1.04436594882313     -0.90449933381643
  H   -0.61977930493160      1.80457526195441     -0.15677018536237
  H   -0.37396971597009      1.34082810254989     -1.84210451997730
  H   -1.93154709067507      1.04087597904824     -1.06173850231144
  C   -1.04770552721536     -0.75797891312987      0.86611781709622
  H   -0.86415762188717     -0.01911531392119      1.64980158110830
  H   -0.66999728725498     -1.72080506680772      1.21225711052871
  H   -2.12833360858702     -0.84101430916007      0.73169178105414
