16
Coordinates from ORCA-job run
  C   1.11754372235055      0.14670127877150     -0.22176478048000
  C   -0.34245846358760     -0.23983479781574     -0.28930030768941
  F   1.75408977203617     -0.15219295473695     -1.39023739094816
  H   -0.35437016563244     -1.29733323991954     -0.57768356144045
  H   1.28601652848718      1.19749042637554      0.02115428112527
  N   1.79081376785637     -0.63812785763928      0.87240651458805
  O   1.99034632893221     -1.82786075015054      0.65669476489894
  O   2.03172429298163     -0.02834060828558      1.91210294493171
  C   -1.02857179011601      0.59086519149991     -1.37104550267038
  H   -1.02887638026828      1.65177550444033     -1.10292510046698
  H   -0.53254644694325      0.47794992205645     -2.33591134717053
  H   -2.06785108451672      0.27507270434868     -1.48398100936062
  C   -1.01698054974822     -0.07279467568257      1.06988793081209
  H   -2.08465349503668     -0.28236585788109      0.97949669471763
  H   -0.90507396224732      0.94945024673818      1.44257648765750
  H   -0.60815207454759     -0.75145453211929      1.82052938149534
