16

C	-0.62272	-0.004574	-1.39616
C	0.0	0.0	0.0
Cl	-0.13803	-1.32405	-2.466914
H	1.087623	0.0	0.0
C	-2.082297	0.041861	-1.315776
N	-3.246787	-0.003328	-1.157906
N	-0.149252	1.305864	-2.067151
O	1.036442	1.363395	-2.340646
O	-0.99543	2.173974	-2.240644
N	-0.410047	-1.20171	0.753027
O	-1.002578	-1.050285	1.833615
O	-0.044068	-2.293497	0.306531
N	-0.36571	1.224802	0.631727
H	0.438618	1.531529	1.175645
H	-1.159127	1.096004	1.247651
H	2.489686	0.0	0.0
