16

C	-0.618167	0.063935	-1.382392
C	0.0	0.0	0.0
Cl	-2.408341	0.009099	-1.304244
H	1.078145	0.0	0.0
C	-0.23478	1.315885	-2.02932
N	0.059567	2.309956	-2.582988
N	-0.113321	-1.055383	-2.334633
O	-0.904664	-1.860909	-2.790868
O	1.087736	-0.979997	-2.550781
N	-0.364977	-1.245827	0.664945
O	-0.557511	-1.215986	1.889
O	-0.321692	-2.282523	-0.014565
N	-0.326343	1.179383	0.72677
H	0.486002	1.416783	1.291712
H	-1.118769	1.023068	1.335839
H	2.42689	0.0	0.0
