16

C	-0.534835	0.093274	-1.418252
C	0.0	0.0	0.0
Cl	-2.335695	0.162053	-1.448194
H	1.094357	0.0	0.0
C	-0.04055	1.326282	-2.027276
N	0.285982	2.340374	-2.523119
N	-0.068161	-1.04737	-2.365031
O	-0.882131	-1.852889	-2.779264
O	1.127097	-0.99185	-2.613684
N	-0.433784	-1.272273	0.607591
O	-0.856307	-1.289729	1.76564
O	-0.242217	-2.279726	-0.091131
N	-0.308859	1.127552	0.789062
H	-1.162607	1.616049	0.565987
H	0.500144	1.735793	0.841064
H	2.457539	0.0	0.0
