16

C	-0.570799	-0.018191	-1.414598
C	0.0	0.0	0.0
Cl	0.406793	-0.962079	-2.566519
H	1.092245	0.0	0.0
C	-1.960649	-0.460974	-1.485232
N	-3.082221	-0.813496	-1.526588
N	-0.528171	1.449787	-1.892629
O	0.574917	1.907903	-2.12801
O	-1.600401	2.037977	-1.956454
N	-0.362467	-1.207889	0.704754
O	-0.541512	-2.245723	0.040659
O	-0.311515	-1.170335	1.946746
N	-0.302855	1.208255	0.695529
H	0.542872	1.473396	1.199187
H	-1.044308	1.063451	1.368688
H	2.371709	0.0	0.0
