16

C	-0.578791	-0.001472	-1.409798
C	0.0	0.0	0.0
Cl	0.296537	-1.061717	-2.539531
H	1.090452	0.0	0.0
C	-2.00681	-0.309248	-1.457543
N	-3.163696	-0.526743	-1.486254
N	-0.399201	1.446775	-1.929488
O	0.741803	1.788165	-2.185749
O	-1.40927	2.132461	-2.005329
N	-0.397134	-1.18888	0.718391
O	-0.270428	-1.1591	1.955646
O	-0.70125	-2.206728	0.069235
N	-0.26551	1.223663	0.684618
H	0.586735	1.468849	1.185046
H	-1.025198	1.126551	1.345339
H	2.374418	0.0	0.0
