16

C	-0.505336	0.002099	-1.428845
C	0.0	0.0	0.0
Cl	0.401785	1.190267	-2.366311
H	1.090366	0.0	0.0
C	-0.508901	-1.257248	-2.169925
N	-0.575132	-2.168331	-2.910693
N	-2.008264	0.433201	-1.39047
O	-2.694991	-0.296999	-0.683941
O	-2.384866	1.408969	-2.01419
N	-0.348457	-1.23597	0.709314
O	-0.822918	-1.150221	1.851631
O	-0.008266	-2.294161	0.170937
N	-0.412335	1.192212	0.659203
H	0.385467	1.529024	1.188625
H	-1.164006	0.983386	1.303354
H	2.461044	0.0	0.0
