13
Coordinates from ORCA-job run
  C   -0.72466525025649     -0.43066772302426     -0.64221839747155
  C   0.72795178714813     -0.08747363652912     -0.38670903739543
  H   -1.02887151585659     -0.13509577674197     -1.64616913143722
  H   1.33898114102882     -0.62429195935794     -1.12153966518262
  H   -0.89697157268762     -1.49719546416491     -0.50139314821104
  N   -1.63525356553850      0.27696450973293      0.31366889825315
  O   -2.82101523419829      0.28992216915384      0.01013476536054
  O   -1.12971699598417      0.75015540951581      1.32763139536211
  N   1.19438251793111     -0.64083287841630      0.95489053934740
  O   1.99819966487314      0.02345301046840      1.58773399560536
  O   0.76194249396245     -1.75026777116566      1.23695041292060
  C   1.00562361536681      1.33999277745400     -0.48348255548125
  N   1.20841291421118      2.48433733307518     -0.64949807167004
