13
Coordinates from ORCA-job run
  C   -0.76371161472159     -0.03778631204362      0.44396618228048
  C   0.60339245347250     -0.23006762211711     -0.19963565747380
  H   -0.82040911204149      0.89500434409772      1.00310676968078
  H   0.63689539426372     -1.15084010093796     -0.78018286438648
  H   -0.99958292613847     -0.88356740220673      1.09391684462550
  N   -1.83451031636325      0.00648837097057     -0.60277624565552
  O   -2.87681014199819      0.56143310391573     -0.27978684370202
  O   -1.60008648157237     -0.54969723999887     -1.67220414579879
  N   1.58028704989371     -0.40582953643542      0.94486073093866
  O   1.83306285806826     -1.56612718016863      1.24914823217457
  O   1.97851007184690      0.61157120497344      1.49816497246813
  C   0.98881836693197      0.91318381847675     -1.01659532759804
  N   1.27314439835830      1.83623455147412     -1.68398264755349
