13
Coordinates from ORCA-job run
  C   -0.79142456590092      0.38428965534174     -0.40904832293257
  C   0.54618952411050     -0.31718408270187     -0.34451696561151
  H   -1.24845028822392      0.24993290115145     -1.39161047228089
  H   0.43250711264006     -1.40099654642468     -0.39614739089097
  H   -0.71190133532796      1.44459063127525     -0.18156077875821
  N   -1.74574191424139     -0.20023056076688      0.58854209951184
  O   -2.74066539659727      0.47044993581197      0.82695909656120
  O   -1.47825707493154     -1.30368012572043      1.05555856242765
  N   1.22916819934757     -0.06704532984972      0.99450306591354
  O   2.21486063709974     -0.75603688484367      1.21163475616116
  O   0.74604861767054      0.79166406692942      1.72084554050405
  C   1.43307703234801      0.15406664784051     -1.40235858260324
  N   2.11458945200658      0.55017969195690     -2.27280060800204
