13

C	-0.560005	0.035723	-1.433908
C	0.0	0.0	0.0
Br	0.168677	1.551912	-2.414154
H	1.094208	0.0	0.0
H	-1.636397	0.216578	-1.380115
C	-0.315261	-1.187828	-2.188372
N	-0.152739	-2.173032	-2.807981
C	-0.483826	-1.222826	0.646671
N	-0.909515	-2.178669	1.182548
N	-0.448885	1.197787	0.71649
H	-1.053738	0.953062	1.487394
H	0.373907	1.653244	1.092947
Cl	3.253396	0.0	0.0
