13

C	-0.49947	-0.009937	-1.46619
C	0.0	0.0	0.0
Br	0.116499	1.579672	-2.417983
H	1.095237	0.0	0.0
H	-1.592482	0.05411	-1.480502
C	-0.103354	-1.199469	-2.209788
N	0.157454	-2.153826	-2.843771
C	-0.521267	-1.224954	0.622202
N	-0.991957	-2.199266	1.080157
N	-0.419054	1.156149	0.767497
H	0.267918	1.888094	0.642083
H	-1.329035	1.496142	0.483665
Cl	3.252689	0.0	0.0
