13

C	-0.417955	-0.004866	-1.468951
C	0.0	0.0	0.0
Br	-2.37348	-0.166635	-1.668219
H	1.096678	0.0	0.0
H	0.001439	-0.874501	-1.979042
C	-0.004626	1.216271	-2.147682
N	0.317422	2.176737	-2.742684
C	-0.438442	-1.24401	0.648502
N	-0.808584	-2.209548	1.207259
N	-0.45045	1.204131	0.670041
H	0.259011	1.49602	1.329247
H	-1.328314	1.064994	1.152668
Cl	3.228627	0.0	0.0
