13

C	-0.560149	0.079441	-1.431905
C	0.0	0.0	0.0
Br	0.186225	1.608138	-2.379104
H	1.0941	0.0	0.0
H	-1.634336	0.273712	-1.374299
C	-0.33533	-1.12874	-2.216839
N	-0.176495	-2.088365	-2.875821
C	-0.483099	-1.243898	0.611055
N	-0.924665	-2.198843	1.136095
N	-0.43736	1.176839	0.751499
H	-1.136956	0.936795	1.440216
H	0.370649	1.556539	1.228941
Cl	3.252875	0.0	0.0
