13

C	-0.554744	0.002498	-1.431078
C	0.0	0.0	0.0
Br	0.088489	1.563609	-2.417074
H	1.100682	0.0	0.0
H	-1.63932	0.123054	-1.379838
C	-0.228736	-1.200327	-2.185049
N	-0.025776	-2.178695	-2.803063
C	-0.499826	-1.208134	0.659144
N	-0.926954	-2.16001	1.199289
N	-0.536255	1.182515	0.701535
H	-0.394181	1.031442	1.695299
H	0.081477	1.95191	0.456945
Cl	3.281137	0.0	0.0
