13

C	-0.558254	0.026215	-1.434813
C	0.0	0.0	0.0
Br	0.176177	1.5291	-2.430622
H	1.094165	0.0	0.0
H	-1.634503	0.210839	-1.38653
C	-0.321459	-1.20612	-2.177267
N	-0.193883	-2.205599	-2.781437
C	-0.483442	-1.219926	0.656138
N	-0.926382	-2.153133	1.217709
N	-0.441104	1.203162	0.706974
H	0.370478	1.611884	1.154309
H	-1.126202	0.983714	1.417934
Cl	3.252167	0.0	0.0
