15

C	-0.400344	0.020239	-1.491955
C	0.0	0.0	0.0
Br	0.11212	-1.657253	-2.375163
H	1.090783	0.0	0.0
C	-1.825916	0.251674	-1.758175
N	-2.946855	0.515908	-1.99903
C	0.352647	1.102349	-2.134081
N	0.927272	1.975754	-2.670813
N	-0.611009	-1.210553	0.63675
O	0.10226	-1.930657	1.325125
O	-1.824639	-1.374209	0.465069
N	-0.45134	1.147963	0.712206
H	-1.329467	1.542199	0.406926
H	0.289058	1.831784	0.75148
F	2.517233	0.0	0.0
