15

C	-0.466133	0.018342	-1.47335
C	0.0	0.0	0.0
Br	0.056869	1.750173	-2.247878
H	1.094504	0.0	0.0
C	0.172473	-0.994004	-2.316049
N	0.650846	-1.752583	-3.075585
C	-1.923638	-0.071701	-1.57973
N	-3.09824	-0.122846	-1.603502
N	-0.445186	-1.288247	0.606281
O	-0.530807	-1.332979	1.833763
O	-0.662099	-2.247696	-0.140321
N	-0.459962	1.126407	0.734618
H	-1.286124	0.922265	1.281371
H	0.284398	1.418278	1.353614
F	2.478623	0.0	0.0
