15

C	-0.32407	0.071751	-1.487537
C	0.0	0.0	0.0
Br	-2.304685	0.084896	-1.834327
H	1.094475	0.0	0.0
C	0.156625	1.367368	-1.975191
N	0.508803	2.414939	-2.375809
C	0.254753	-0.975655	-2.327841
N	0.712337	-1.731698	-3.103563
N	-0.486588	-1.286542	0.573513
O	-0.626415	-1.359879	1.789867
O	-0.654215	-2.227879	-0.209468
N	-0.425167	1.113027	0.760722
H	-1.267943	1.564492	0.431778
H	0.337697	1.764503	0.871485
F	2.462039	0.0	0.0
