17
Coordinates from ORCA-job run
  C   -0.49681101664251      0.04730290677202     -0.39074238620528
  C   0.99402713335111     -0.32467765493438     -0.23331367966756
  Br  -0.72163157128919      0.71549784527789     -2.22381472278019
  H   1.26603572889802     -1.06880164462817     -0.98503630986861
  C   -1.31607299139595     -1.23128901548784     -0.25273524840601
  H   -0.98287676198121     -1.99835697538843     -0.95494350082061
  H   -1.23340638574164     -1.61963492446352      0.76652436951771
  H   -2.36642277409827     -1.01623438337031     -0.45465041664044
  C   -0.97011972298373      1.11630333312271      0.58107167247151
  H   -2.03835800214778      1.28283648283854      0.43139350220276
  H   -0.44711492983900      2.06028030610164      0.44189958935242
  H   -0.81027607365475      0.77879194934893      1.60940143918409
  C   1.25484696615163     -0.83827154124137      1.10875286071772
  N   1.42818803113410     -1.27789433697865      2.18428607129548
  N   1.92318121840294      0.84250807547145     -0.48031935767858
  O   1.94565582082512      1.72277868422794      0.37365645664614
  O   2.57015533101110      0.80886089333156     -1.52043033932054
