17
Coordinates from ORCA-job run
  C   -0.47100982290758     -0.03768451750362     -0.48904303964071
  C   1.06712100569794      0.03404241108021     -0.35385567049996
  Br  -0.75965447306693     -0.48324575802675     -2.38582719209407
  H   1.46946160154634      0.73239537112702     -1.08964947070433
  C   -1.09481184176547     -1.13400179891219      0.35743791318485
  H   -2.17044532453654     -1.16412729412739      0.17530628573208
  H   -0.92370548708462     -0.92914373075703      1.41675508406533
  H   -0.67633375829649     -2.11293060332397      0.12012405890549
  C   -1.09462661000464      1.32344708167173     -0.21869355501562
  H   -2.15565245162099      1.29497390387667     -0.47071677543752
  H   -1.00319714141319      1.57390717090379      0.84205114472967
  H   -0.61764229574524      2.11048651395840     -0.80537591271355
  C   1.71648074182034     -1.26557175983922     -0.47335117976314
  N   2.24134253479854     -2.31092731544633     -0.57836926937680
  N   1.41988386746181      0.63531583255740      0.99256791673926
  O   1.69667345512231      1.83085675826803      0.98750091599963
  O   1.35611599999442     -0.09879226550676      1.97313874588939
