17
Coordinates from ORCA-job run
  C   -0.51411404460338      0.06171398692907      0.20806739056231
  C   0.97215755167495     -0.25973289301673     -0.05698183850961
  Br  -0.74240146977403      0.53019069295245      2.09735530688597
  H   1.06854767489447     -0.51436256762740     -1.11745562064147
  C   -0.99440311090650      1.22901124077393     -0.64250130656304
  H   -2.06567356623441      1.36576805212628     -0.48682654012533
  H   -0.81678493092485      1.01576722534951     -1.70109892973928
  H   -0.48966062906946      2.16053341445307     -0.39071283039348
  C   -1.32814983308500     -1.19674564631604     -0.07055271856863
  H   -1.20803547042322     -1.48881689139142     -1.11941005113633
  H   -2.38478869439956     -0.99552817965847      0.11212745928347
  H   -1.02257370930072     -2.02732876396948      0.56713393385565
  C   1.47648251948306     -1.35758502393727      0.75801535120643
  N   1.86260896593229     -2.28417862571264      1.36771064144505
  N   1.85672086184566      0.95317835920398      0.12256216583944
  O   1.93612386937806      1.69022781611723     -0.85681901264164
  O   2.39194401551263      1.11688780372393      1.21138659924049
