17
Coordinates from ORCA-job run
  C   -0.54830003071639     -0.01658144590172     -0.40175803416248
  C   0.99212099323707     -0.00373274570129     -0.53059338995467
  Br  -1.17186672499213     -0.44042213901305     -2.22098347670794
  H   1.28877076390253      0.68449825876336     -1.32391403819497
  C   -1.06042944363442     -1.09308253378726      0.53976640334325
  H   -2.15172348928887     -1.08339711447161      0.54083806209643
  H   -0.70707008055822     -0.89869020561491      1.55490411565622
  H   -0.72336238387183     -2.08545041725357      0.23800030700497
  C   -1.06444948833470      1.36559945782861     -0.03012525169637
  H   -2.15320883554340      1.37772932150566     -0.09708254171901
  H   -0.66521100283867      2.13743242086041     -0.69051970552254
  H   -0.78374183777120      1.60694389057187      0.99908291020542
  C   1.56129285170217     -1.32598499274296     -0.76017506548764
  N   2.01892752608313     -2.39046058700984     -0.95147577092360
  N   1.59191877170266      0.57310950443025      0.73631169287085
  O   1.66871936720344     -0.16635863941366      1.71193124363530
  O   1.90761304371884      1.75784796694973      0.68679253955677
