17
Coordinates from ORCA-job run
  C   -0.49552292813120      0.03788544741275     -0.39343689564303
  C   0.99838715719258     -0.31713757517568     -0.22547434725263
  Br  -0.71905849144610      0.68309698349962     -2.23499266126623
  H   1.28118135918124     -1.06601001354339     -0.96838169644835
  C   -1.30250916637433     -1.24723924583129     -0.24454219056157
  H   -1.22171577604025     -1.62245148913422      0.77983338758130
  H   -0.95758780410207     -2.01942856643891     -0.93553222510131
  H   -2.35378849038405     -1.04519747189420     -0.45504515478903
  C   -0.98387136022611      1.11289464773628      0.56421178913087
  H   -2.05271839807415      1.26814748350257      0.40703920065613
  H   -0.46882592338168      2.06009567473251      0.41754462215517
  H   -0.82670290936478      0.78787213424890      1.59695208527709
  C   1.25820282917903     -0.81403613834443      1.12295074768717
  N   1.43120550914641     -1.24010269009273      2.20396978212322
  N   1.91678383604203      0.85686454202030     -0.48099686936118
  O   1.92724703558884      1.74605170178063      0.36398017917512
  O   2.56829352119460      0.81869457552130     -1.51807975336275
