17
Coordinates from ORCA-job run
  C   -0.50152308517638      0.04703947208999     -0.38465857173175
  C   0.99685447714962     -0.30308634523659     -0.25008232376525
  Br  -0.75639648226996      0.74900502914214     -2.20128576447757
  H   1.27333587489249     -1.02608845386227     -1.02048192795505
  C   -1.29811996932314     -1.24760573694582     -0.26504763488787
  H   -2.35346310766750     -1.04625513151319     -0.45503382512411
  H   -0.95764187097833     -1.99558206672143     -0.98436851044667
  H   -1.20096790003544     -1.65387537163408      0.74604030243239
  C   -0.98227519553637      1.08771524666501      0.61383934219798
  H   -0.47574981102064      2.04270685242284      0.48965712473465
  H   -0.80725184036147      0.73127985769255      1.63326640593778
  H   -2.05439353906065      1.24032463890136      0.47782650603507
  C   1.27948845545978     -0.84069144364993      1.07806403624994
  N   1.47082545107017     -1.29953964743715      2.14242063643550
  N   1.90415190585404      0.88452701927071     -0.48123028689907
  O   2.54055208989424      0.88380897183283     -1.52842566804122
  O   1.92157454710953      1.74631710898300      0.39150015930523
