17
Coordinates from ORCA-job run
  C   -0.50298184643276     -0.06561278281145     -0.45300399813337
  C   1.03909090261849     -0.15771564755846     -0.40014196326749
  Br  -0.96086766667791     -0.79087999731692     -2.22607751477582
  H   1.46839391502565      0.34385152322157     -1.26906567486782
  C   -1.19057500083805     -0.91740393314336      0.60040789803574
  H   -0.89982147552503     -1.96567238197211      0.52225806152076
  H   -2.27213798942080     -0.84787348537485      0.47256462752829
  H   -0.93072254247101     -0.55719440985165      1.59827906255173
  C   -0.95127518107543      1.38721158412461     -0.40126752531063
  H   -2.02337292990929      1.44529184301445     -0.59418900294917
  H   -0.76161679127918      1.80319345525864      0.59244914981004
  H   -0.43001933302096      1.99764245274691     -1.14080569247082
  C   1.53167645324329     -1.52639647323895     -0.30625356368963
  N   1.92885226003008     -2.62948698042132     -0.24202877193177
  N   1.54345259294618      0.62717886986540      0.79426037068442
  O   1.43737464819424      0.10382196831133      1.89886820266872
  O   1.97554998459248      1.75004439514617      0.55274633459682
