17
Coordinates from ORCA-job run
  C   -0.50430617815447      0.04575951497530     -0.38176885628097
  C   0.99203961223217     -0.31483573673507     -0.25322511549251
  Br  -0.76715219019667      0.72219033465035     -2.20683175589762
  H   1.25642684522782     -1.05150983896880     -1.01494227424813
  C   -1.31054263045754     -1.24020859923029     -0.23617594589828
  H   -1.20793658276023     -1.63208258060235      0.77994484119999
  H   -2.36578079978258     -1.03298997731167     -0.42000081516327
  H   -0.98250034150030     -2.00170092472495     -0.94695518851444
  C   -0.96883290652665      1.10542188774661      0.60442812519810
  H   -0.79047445319605      0.76224690438940      1.62782249069616
  H   -2.04036897307843      1.26596369593633      0.47304287091091
  H   -0.45429236475609      2.05372205074734      0.46301650956738
  C   1.28072871816817     -0.83582981060547      1.08026931743968
  N   1.47799866453893     -1.28191856238869      2.14896252287399
  N   1.90768670650049      0.86141917183205     -0.50838679178422
  O   1.93908181284574      1.73533979855981      0.35180575460172
  O   2.53622506089567      0.84001267173012     -1.56000568920849
