17
Coordinates from ORCA-job run
  C   -0.49943857712059      0.04797440429999     -0.38787251902516
  C   0.99331059948341     -0.32009961276507     -0.24063573905890
  Br  -0.73658786243730      0.72473571851752     -2.21625538406521
  H   1.26370614837486     -1.05907370843606     -0.99794971979898
  C   -1.31384384717307     -1.23384904519634     -0.25165857206380
  H   -0.98067934897921     -1.99715245059893     -0.95809989844623
  H   -2.36567667624098     -1.02162739281152     -0.44880706400523
  H   -1.22591388303400     -1.62594135898146      0.76577758219377
  C   -0.97030721299099      1.11062293235651      0.59205337638955
  H   -0.44923609800709      2.05611472505855      0.45591268289957
  H   -0.80571658996617      0.76740658524848      1.61773157067125
  H   -2.03937472739843      1.27671824978243      0.44800819969720
  C   1.26323020096020     -0.84072579440414      1.09690982179574
  N   1.44484247636794     -1.28568668689999      2.16885198096654
  N   1.91831106804002      0.85099915552612     -0.48636117882734
  O   2.55898863434655      0.82463719067234     -1.53051634878280
  O   1.94438569577484      1.72594708863158      0.37291120946003
