14
Coordinates from ORCA-job run
  C   0.86698663281932     -0.02593333099007      0.67228789619512
  C   -0.63356367758909      0.05393294183586      0.40805491145429
  F   1.18119416582471      1.20548184294973      1.27557116520321
  H   -1.19591142879502      0.13082158272024      1.33622092261110
  H   1.02604253546253     -0.79142319931596      1.43305319550088
  N   1.60818857116818     -0.33850024451298     -0.47268231551871
  H   1.54975888159037      0.38087225608849     -1.17876362383209
  H   2.56662426497125     -0.56902630060153     -0.25702433447653
  N   -1.07227000334295     -1.20614198011111     -0.27885597425582
  O   -0.99176120253614     -2.20471631467827      0.42527995824791
  O   -1.43623755449420     -1.14052312321702     -1.44340324098131
  N   -1.04300151638634      1.21971116823617     -0.43134653408423
  O   -2.16327114559224      1.66373628982853     -0.19934016307104
  O   -0.26277852310038      1.62070841176792     -1.28905186299279
