14
Coordinates from ORCA-job run
  C   0.92398731920899      0.11941802922131      0.36131197445820
  C   -0.41897833506421      0.26471738314005     -0.32663800957936
  F   1.54232315089517      1.36856210644603      0.20230775887073
  H   -0.33039973816760      0.52694607925513     -1.37858917708913
  H   0.77811724677272     -0.03426748942373      1.42918157894834
  N   1.62988627184461     -0.95403472914749     -0.20696698510947
  H   2.45330856126211     -1.19606018730081      0.32480295837437
  H   1.87654938715781     -0.78955700984199     -1.17404890264722
  N   -1.26110801053602      1.32331551438706      0.31890032106095
  O   -2.03392446334720      1.91083288181775     -0.43436487403869
  O   -1.13739175522416      1.49138602453569      1.52638609381935
  N   -1.16852937027948     -1.02646243038103     -0.23703809175751
  O   -1.49020215663744     -1.38908977321184      0.88886082549550
  O   -1.36463810788529     -1.61470639949613     -1.29410547080607
