14
Coordinates from ORCA-job run
  C   0.93917107772553      0.12468497927457      0.31842969486352
  C   -0.43733034722223      0.26562299996408     -0.30068294618278
  F   1.53458031285999      1.38373999763821      0.15315503934919
  H   -0.40303094886226      0.54869037884265     -1.35043989040393
  H   0.84738702916451     -0.05092094377929      1.38894507290877
  N   1.62879464923355     -0.92956132521254     -0.30395063773231
  H   2.47977526647715     -1.17072496985964      0.18301726910585
  H   1.82738289076285     -0.74279866684473     -1.27806934602721
  N   -1.26046759896743      1.30063318331015      0.40527856947900
  O   -2.07784772819589      1.88984808672736     -0.29779962072653
  O   -1.07817508838568      1.44970778589571      1.60781943769647
  N   -1.16635064725769     -1.03642659419947     -0.20010535044972
  O   -1.40711448336376     -1.60698172711885     -1.25756072498603
  O   -1.42777438396864     -1.42451318463822      0.93296343310571
