14
Coordinates from ORCA-job run
  C   0.94716418194162      0.12401379438237      0.29457542856264
  C   -0.43792843853434      0.25676559033884     -0.30686909521318
  F   1.56095553287864      1.36172786475163      0.05121720526277
  H   -0.41826584791212      0.48222462434513     -1.37083319823968
  H   0.87246222161487      0.00825159188691      1.37451541595183
  N   1.60686853013385     -0.97424418257050     -0.28183066341511
  H   1.78908705282589     -0.84528563802160     -1.26838761391055
  H   2.46254637902304     -1.20482022449670      0.20192678510450
  N   -1.22885061942473      1.34381898321506      0.35600832600061
  O   -2.04719866912402      1.91090141887632     -0.36403467802391
  O   -1.02323188364258      1.55293014107089      1.54577597461616
  N   -1.18770090149373     -1.02423627213413     -0.12244414683602
  O   -1.43622915979414     -1.34497812723251      1.03427344592165
  O   -1.45667837849222     -1.64706956441170     -1.14289318578172
