14
Coordinates from ORCA-job run
  C   0.92411184810553      0.17635629664373      0.33728249792543
  C   -0.45537111352711      0.25023286704805     -0.28682721148549
  F   1.41713060671341      1.48781612029190      0.26745241072006
  H   -0.43743849588909      0.60848792020492     -1.31376959383878
  H   0.84027267166254     -0.08053284303808      1.39191296914583
  N   1.70026814914952     -0.77273087312764     -0.34852052627096
  H   1.88843280800403     -0.50456677170385     -1.30548318456900
  H   2.56462638678916     -0.98001361679605      0.13030127697719
  N   -1.36280897957282      1.16481835229603      0.47941883897979
  O   -2.22018553083613      1.73537221892864     -0.19069548287155
  O   -1.20110352502706      1.24291787928101      1.69155045586352
  N   -1.07788555004193     -1.10953457541268     -0.28524649479511
  O   -1.26411926737687     -1.62274553327517     -1.38235642709164
  O   -1.31593000815317     -1.59487744134081      0.81498047131070
