14
Coordinates from ORCA-job run
  C   0.91656655769212      0.12678014336562      0.37864575514269
  C   -0.42811870376986      0.27579443131350     -0.30541552004534
  F   1.48203570429348      1.40991902511895      0.33333544065781
  H   -0.34519640709994      0.63689539573087     -1.32817080296592
  H   0.77233484284084     -0.12480251945023      1.42802594226130
  N   1.66989637942139     -0.86300668652393     -0.27386491783864
  H   1.91315211342531     -0.60723268835567     -1.22170757991673
  H   2.50002238946414     -1.11628924066342      0.24189261776204
  N   -1.31953149864174      1.23427227366185      0.42528635486152
  O   -1.20270139617242      1.30629083290243      1.64291010274761
  O   -2.12104163718871      1.84452375894759     -0.27821073369700
  N   -1.12087221105567     -1.04897073550452     -0.34007645997036
  O   -1.27286541494856     -1.55306675871815     -1.44657961366000
  O   -1.44268071826038     -1.52010723182487      0.74492941466101
