14
Coordinates from ORCA-job run
  C   0.94813955134251      0.26428983063878      0.40470753907900
  C   -0.40723888853703      0.32701553438594     -0.28558647480157
  F   1.35622670290418      1.60011038561171      0.43110865415485
  H   -0.34326542672328      0.77976336885600     -1.27278034752342
  H   0.81829232780833     -0.05070144241347      1.43984937016633
  N   1.86247657433081     -0.55309645153633     -0.26684950348186
  H   2.19758048532866     -1.35652142739157      0.23235526637427
  H   1.72532951373821     -0.71130681218856     -1.25102321792052
  N   -1.41153076712141      1.11627191268231      0.49723978122783
  O   -1.30483428231976      1.12528101023575      1.71777898400401
  O   -2.28283880883581      1.66461233778359     -0.17329218469611
  N   -0.94301704781770     -1.05745906136269     -0.45131507661560
  O   -1.38596179779319     -1.60494659360068      0.55237906262148
  O   -0.83035813630451     -1.54431259170078     -1.57257185258870
