14
Coordinates from ORCA-job run
  C   0.94335754087029      0.31578785208231      0.10192174347990
  C   -0.53658311820643      0.02676246573770      0.34821555666074
  F   1.08011717792399      0.99518505792904     -1.08180411629711
  H   -0.68916246166012     -0.35212392737694      1.35847419203789
  H   1.29205841717151      0.98204877116563      0.89714641508832
  N   1.64463092405205     -0.93785414196764      0.01416877355503
  H   2.30564397929397     -0.89258635069079     -0.74996027296602
  H   2.14638858134194     -1.13566745701983      0.86927312093371
  N   -1.06271591664355     -1.00575043214557     -0.58695616739139
  O   -0.87919347640717     -0.81919120741773     -1.78224751780147
  O   -1.63225943765904     -1.95951727150032     -0.06301041087461
  N   -1.34694980506186      1.28681135157828      0.23254793892864
  O   -2.33325212173848      1.29031124906136     -0.48853380475645
  O   -0.93308028327709      2.20678404056451      0.92976454940282
