14
Coordinates from ORCA-job run
  C   0.95744760988702      0.36262377580438      0.10566292260504
  C   -0.49217402766623      0.01182856402886      0.40994840091904
  F   0.98747732799396      1.05489694495777     -1.10611638484138
  H   -0.61112472867342     -0.27305183897208      1.45351243452769
  H   1.27616318753293      1.07191751986009      0.87236427187530
  N   1.76747903497082     -0.78867497473923      0.14682157612758
  H   2.74691269723490     -0.54655581401713      0.19645580065460
  H   1.60026286134856     -1.37635936353708     -0.65937359741553
  N   -1.05857744933003     -1.10124460679800     -0.40830084661897
  O   -0.51415086326386     -1.37544636765906     -1.47397351727328
  O   -2.05640613523546     -1.63567714523397      0.06425895295620
  N   -1.34477375799711      1.23045152684229      0.18066275747900
  O   -2.13293341320418      1.22503100626012     -0.75265792481212
  O   -1.12560234359791      2.14126077320303      0.96973515381682
