14
Coordinates from ORCA-job run
  C   0.95344220933212      0.20968723801792      0.42390328420625
  C   -0.37911810351290      0.34830740127398     -0.29894699017719
  F   1.44329419605817      1.51788664557957      0.44570102602200
  H   -0.26464533373778      0.78346396341648     -1.28947782233288
  H   0.77984148318131     -0.08349423558371      1.45907090148015
  N   1.82959503908136     -0.67144189423150     -0.21698347518183
  H   2.10685837242706     -1.48484262206011      0.30113825142861
  H   1.70217325450614     -0.83718544061168     -1.20119148510228
  N   -1.34912617534638      1.20883199343790      0.45131101493043
  O   -2.16758168145878      1.80383624182539     -0.24550518651300
  O   -1.27099647289435      1.22491428051520      1.67394645057528
  N   -0.99751524051070     -1.00159869153214     -0.46217663402263
  O   -1.50185617204403     -1.50607056525571      0.53502940416177
  O   -0.88536537508125     -1.51029431479159     -1.57381873947469
