14
Coordinates from ORCA-job run
  C   0.88616714774442      0.07200003680986      0.72002631345728
  C   -0.62189052948618      0.05900556528453      0.41848263971283
  F   1.06998366747767      1.30408595132957      1.34772314999418
  H   -1.21586639476422      0.06629048843801      1.33048380074035
  H   1.07090237096443     -0.70461787143873      1.46333987125612
  N   1.75447851191141     -0.09671634613218     -0.36078192009545
  H   1.46824737038753      0.31661994807653     -1.23187762734714
  H   2.18227956276186     -1.00167317621960     -0.43995129678559
  N   -0.95002002557030     -1.20219505788081     -0.31975596309601
  O   -0.73061223378412     -2.22212916239477      0.32485589459465
  O   -1.36448223872905     -1.12766445093323     -1.46845469165877
  N   -1.06636927563859      1.22781867734472     -0.39307000147780
  O   -2.14803458136098      1.71699296235099     -0.08209928344060
  O   -0.33478335191387      1.59418243536510     -1.30792088585405
