14
Coordinates from ORCA-job run
  C   0.98142256258276      0.33948472152998      0.22756501335888
  C   -0.50719412618862     -0.02028398083948      0.28833940608581
  F   1.11496189178361      1.26724908324806     -0.79577807034181
  H   -0.74818864593941     -0.53077016196318      1.21962892971866
  H   1.20626160545793      0.85874168665293      1.16246351977245
  N   1.85869831266558     -0.73901962352676      0.06920815928618
  H   2.34602374496338     -1.05818406003914      0.88541856588621
  H   1.61256270440030     -1.44503072339195     -0.60125088761645
  N   -0.99235192250243     -0.89893560383035     -0.81714370979989
  O   -0.29065441852489     -1.01659699086352     -1.81785948556631
  O   -2.08211098059218     -1.42636942412260     -0.61830415415160
  N   -1.32169134064141      1.24417367497585      0.26194664279898
  O   -1.96951300112439      1.50211594674605     -0.74090038899734
  O   -1.20822638634022      1.92342545542410      1.27566645956622
