14
Coordinates from ORCA-job run
  C   0.96052556913970      0.20416317151646      0.40365418352718
  C   -0.36812034965709      0.31466810694156     -0.32811930333354
  F   1.48355360061892      1.49449211058068      0.32933890281429
  H   -0.24916888865700      0.62482477452194     -1.36381962255044
  H   0.78109664953471     -0.01953051874010      1.45417479665237
  N   1.82291173884721     -0.73940940454731     -0.17017367199495
  H   1.99212197698108     -1.57025531922667      0.36746829253301
  H   1.74475252689295     -0.90417988789639     -1.16028811826911
  N   -1.28569273407457      1.30327400412722      0.32673220194799
  O   -1.92718712783992      2.02367473104188     -0.43357898658340
  O   -1.32828012331942      1.29635318990459      1.55191070092988
  N   -1.05174868438732     -1.01323388135762     -0.32445437806192
  O   -1.33503469454344     -1.48444757995702     -1.42336941735371
  O   -1.23972945953581     -1.53239349690922      0.77152441974235
