14
Coordinates from ORCA-job run
  C   0.95871231757843      0.26070362125232      0.38420446808487
  C   -0.40763840005789      0.32779174247384     -0.28337950197363
  F   1.38141112557311      1.59155596737834      0.38500633465316
  H   -0.35652214728034      0.76410623289928     -1.27871021277218
  H   0.84306106787803     -0.03938043447509      1.42547734376864
  N   1.85310636879899     -0.57557245723976     -0.29245086246646
  H   1.69147921334833     -0.74940846095444     -1.27039514695732
  H   2.18387836700223     -1.37715481713302      0.21287296643352
  N   -1.39004958383890      1.13934144978593      0.50430462157206
  O   -1.26239325707083      1.16540235886599      1.72260541259540
  O   -2.26795617225461      1.68581658674765     -0.15914595594548
  N   -0.96131940279295     -1.05313899599350     -0.41805682936317
  O   -1.38503811036002     -1.58265668448237      0.60345809733603
  O   -0.87973138652359     -1.55640610912518     -1.53479073496544
