14
Coordinates from ORCA-job run
  C   0.90922914898476      0.13361566924599      0.39229717032434
  C   -0.42449140462874      0.26982309063569     -0.31507178656978
  F   1.46895375262656      1.41914494228914      0.34712758179038
  H   -0.32693056055268      0.61951355273067     -1.34048031636623
  H   0.74913743086844     -0.11135293571871      1.44091780623552
  N   1.67854213946067     -0.85680082085486     -0.24110393604911
  H   2.50158664957455     -1.10086457718399      0.29037136299273
  H   1.93744565975363     -0.60353826173824     -1.18557127526223
  N   -1.33116433763475      1.23229124276866      0.39089515392116
  O   -2.11717885818693      1.83954915321191     -0.33240855993672
  O   -1.24005041243792      1.31031734125866      1.61040496820829
  N   -1.11151906891107     -1.05829035715875     -0.34640604341124
  O   -1.43937083041623     -1.52422302909428      0.73901443789675
  O   -1.25518930850028     -1.56918501039187     -1.45098656377386
