14
Coordinates from ORCA-job run
  C   0.96438027042525     -0.06873759772375      0.51928041024809
  C   -0.54851922799065      0.12761270454120      0.50357722294979
  F   1.47044111378672      1.15767874092868      0.98776918400564
  H   -0.93637373231034      0.29651556273699      1.50591623944986
  H   1.19119143561181     -0.80935187038282      1.28746811279307
  N   1.47381655729094     -0.49599833618651     -0.71182772489172
  H   1.35211280010523      0.19237367140001     -1.44032641915135
  H   2.43395923350046     -0.79899583285085     -0.64461188768009
  N   -1.19329987748882     -1.12091022704438     -0.02304634576829
  O   -1.74148106012662     -1.07954532446090     -1.11430109036870
  O   -1.07292697572730     -2.08832108919955      0.71798097584245
  N   -1.00524916243049      1.28307826788559     -0.32573847509748
  O   -2.03560810577704      1.82756253142624      0.05865617529286
  O   -0.35144326886915      1.57903879893005     -1.32079637762413
