14
Coordinates from ORCA-job run
  C   0.95682140119819      0.31969892449478      0.06701452470881
  C   -0.52578040102646      0.05244948339377      0.31319776262231
  F   1.11668142277066      0.95579259440897     -1.13707473730813
  H   -0.69797376877528     -0.31898380617851      1.32419929991830
  H   1.30677460804788      1.01985555018785      0.83355661736477
  N   1.63526170823235     -0.94018771057978     -0.01144433026348
  H   2.60237407994387     -0.78573559225094     -0.26729589562166
  H   1.60523555350687     -1.43628501177084      0.87079315521504
  N   -1.03318095501220     -0.98646318890202     -0.62812781414511
  O   -1.04748245943000     -0.70151264818468     -1.81652053210264
  O   -1.35252669556620     -2.05412395317498     -0.11055580068451
  N   -1.32736214882581      1.31952452313947      0.18983801878048
  O   -2.40073115503559      1.27076228571788     -0.39118996723703
  O   -0.83811119002828      2.28520854969905      0.76460969875286
