14
Coordinates from ORCA-job run
  C   0.95347525362630      0.24093200018827      0.24499196193914
  C   -0.55184561356392     -0.00472244458090      0.24876355026180
  F   1.29161553212874      0.64824086156407     -1.05139250834150
  H   -0.85724826708732     -0.64703168034373      1.07221397409420
  H   1.17844772310775      1.08480589285281      0.89752859294580
  N   1.64107587689911     -0.90902880155408      0.68141714266061
  H   2.63386226459898     -0.73194362498909      0.75139320475749
  H   1.47222615628526     -1.69602030570769      0.06775194041183
  N   -0.94209871260612     -0.69912979605617     -1.02895146050748
  O   -0.52828124554814     -1.85070447485678     -1.11463022422072
  O   -1.58267570485107     -0.07933496920142     -1.86194198922854
  N   -1.36088668881249      1.24972480682724      0.34259101015177
  O   -2.53984675238482      1.07653063904502      0.63533362602102
  O   -0.80581982179223      2.31868189681244      0.11393117905458
