14
Coordinates from ORCA-job run
  C   0.94234888369622      0.05790938486085      0.32777065924822
  C   -0.41909718852440      0.30139514237155     -0.29274666741580
  F   1.61035596930384      1.28595485178437      0.21310136444005
  H   -0.36067014836657      0.62164600314690     -1.33067921237412
  H   0.83269888113835     -0.15164268735826      1.39048161866404
  N   1.57482197623299     -1.01037091209539     -0.33008107260579
  H   1.79084128402545     -0.79959964515245     -1.29553992306309
  H   2.40676679024294     -1.31848450217826      0.15197594903210
  N   -1.18604739813043      1.35500597665516      0.44776970621685
  O   -1.96272152025533      2.01701580976270     -0.23650956788320
  O   -1.00498140431966      1.44754866776294      1.65619909736611
  N   -1.22279068079306     -0.95908086430110     -0.24562509159774
  O   -1.48696701414902     -1.47483145029190     -1.32540857145333
  O   -1.51555843010131     -1.37346577496710      0.87029171142569
