14
Coordinates from ORCA-job run
  C   1.03270368670486      0.21855413293233      0.05025718652641
  C   -0.48075198458396      0.06221613025753      0.25142868419340
  F   1.18775060256579      0.62576697188815     -1.26573455728967
  H   -0.71670860493826     -0.49668226082210      1.15549531068849
  H   1.38063761269855      1.03303887279078      0.68788391063295
  N   1.78203716251900     -0.94746479364579      0.29695337427157
  H   1.31790328660750     -1.81120255060143      0.06337184620553
  H   2.24252079792252     -0.97225771460471      1.19044284633407
  N   -1.05206730033240     -0.70970059003798     -0.90348418428986
  O   -1.67496297556864     -0.10535855333011     -1.76093725395059
  O   -0.78151011115822     -1.90787946815546     -0.88545980470775
  N   -1.22311048649879      1.36048373308213      0.34332044269088
  O   -0.61677412897074      2.39733233200199      0.09776978559391
  O   -2.39866755696721      1.25315375824466      0.67769241310066
