14
Coordinates from ORCA-job run
  C   0.93893795865741      0.21465077492864      0.43229536899212
  C   -0.38431886050690      0.33754336822158     -0.30750772858942
  F   1.41835528293154      1.53211349697211      0.45152668510154
  H   -0.26147868951137      0.76473286090267     -1.30040091847958
  H   0.75635361526624     -0.06739375670892      1.46881922846282
  N   1.81053096960188     -0.67093804721695     -0.19261396473329
  H   1.73265854028943     -0.84458234618308     -1.17866543442126
  H   2.21385676581229     -1.40987106758919      0.35023916530923
  N   -1.36842108363475      1.19949048052817      0.42332864329986
  O   -2.18461838607884      1.77888122075429     -0.28920131040890
  O   -1.30369793592448      1.23074519043398      1.64629644540721
  N   -0.99386574460554     -1.01703893753827     -0.46482745000439
  O   -1.49467379958263     -1.51905598762947      0.53524756852595
  O   -0.88161863271429     -1.52927724987556     -1.57453629846190
