14
Coordinates from ORCA-job run
  C   0.99559363765829      0.20132823628838      0.30682360049446
  C   -0.40241087366686      0.33988490841582     -0.27812196032587
  F   1.51761574665643      1.49476503841088      0.19780319489657
  H   -0.38367335016929      0.71198479250716     -1.30020264795735
  H   0.92818931730939     -0.02409676818887      1.37083789209062
  N   1.76814677290208     -0.74422788769673     -0.36832441375772
  H   1.54385309555649     -0.96334760494570     -1.32360482452281
  H   2.12463436238039     -1.51461807839034      0.16542531541835
  N   -1.26286851000005      1.27528333455668      0.51539571431449
  O   -1.05553441206609      1.35963776273920      1.71991392397531
  O   -2.13331659112610      1.85671849505100     -0.12799374659242
  N   -1.06974078250067     -0.99600768934690     -0.28955870322850
  O   -1.10038890789054     -1.57003593680277     -1.37427247449308
  O   -1.46909950504347     -1.42626860259780      0.78687912968796
