14
Coordinates from ORCA-job run
  C   0.98416275175687      0.02479970525017      0.57324937927989
  C   -0.54633824993413      0.14037178535126      0.49901047072738
  F   1.36660661863185      1.26691865639753      1.08999001839894
  H   -0.98935839193933      0.26002799891688      1.48580497928178
  H   1.21312749689713     -0.72401629043292      1.33244263489052
  N   1.64814632367099     -0.28561364653353     -0.61001833986797
  H   2.06702869674792     -1.19447515644646     -0.67240090571439
  H   1.27924010112933      0.09275464808985     -1.46425065284426
  N   -1.09388662083381     -1.12416561681907     -0.08776318988215
  O   -0.87334598405513     -2.11991953513896      0.59294092777447
  O   -1.66904545135708     -1.07754197954286     -1.16656687195073
  N   -1.00763553835599      1.29693322870912     -0.32185755213325
  O   -1.98413680839928      1.90341532508740      0.10758664127779
  O   -0.39456494395933      1.53851087711159     -1.35716753923803
