14
Coordinates from ORCA-job run
  C   1.01964572951102     -0.08832127042719      0.39542123250417
  C   -0.48863848249399      0.05786051418320      0.57342562963631
  F   1.55056245137378      1.10178280890513      0.92543559936445
  H   -0.75978270062021      0.11200666576384      1.62565287903264
  H   1.35131468727474     -0.89338177567242      1.05262356089350
  N   1.38986363340109     -0.37422048316350     -0.92340162360569
  H   2.35833938063105     -0.64769752605500     -0.99793975174092
  H   1.16748574008077      0.37849322609676     -1.55858736454915
  N   -1.16403018617797     -1.15212476278211     -0.00233856124485
  O   -0.93561238423938     -2.18459747999622      0.61516103758146
  O   -1.83893874675258     -1.01948919304202     -1.01224245138735
  N   -1.06296937413870      1.27554416075122     -0.07370016427212
  O   -0.54012172450955      1.68694375640140     -1.10452819962824
  O   -2.04811802334006      1.74920135903693      0.48401817741579
