14
Coordinates from ORCA-job run
  C   0.98707655544750      0.15224439810726      0.55711612764540
  C   -0.54946718268445      0.13497590191841      0.49530859488846
  F   1.26997898899502      1.45755088691928      0.96145413381603
  H   -0.99423877618054      0.29130255999274      1.47628520611097
  H   1.28264752192456     -0.51245441004684      1.36981901842563
  N   1.67560764248110     -0.19398935993106     -0.60703297779984
  H   2.09222650279391     -1.10737661061290     -0.61497242773765
  H   1.25975317331113      0.09419837850027     -1.47611938453906
  N   -0.99329708785822     -1.21121037956463      0.01127403081899
  O   -0.67515725381576     -2.13256082590533      0.75545015735850
  O   -1.58802949522401     -1.29254579228955     -1.05478328420463
  N   -1.11034353643780      1.18441141296982     -0.40291230748169
  O   -2.12627730704658      1.74548311509740     -0.00415235131335
  O   -0.53047974570589      1.39097072484512     -1.46473453598775
