14
Coordinates from ORCA-job run
  C   0.98519648089713      0.02700965395482      0.57854085727440
  C   -0.54575970704734      0.14497577014328      0.49674340248888
  F   1.36896050024121      1.27151179180686      1.08038563682553
  H   -0.99442222345601      0.26821566873775      1.48068800217703
  H   1.20932668732775     -0.71683110383773      1.34407197013340
  N   1.66197604296930     -0.29297227203344     -0.59931838776923
  H   1.28899999107130      0.08936641945611     -1.45124949886105
  H   2.00928022191286     -1.23233137551145     -0.66682696608689
  N   -1.09276676644612     -1.11971224120190     -0.08997002330050
  O   -0.86181411860092     -2.11683822132064      0.58547913303933
  O   -1.67973581174874     -1.07237470441024     -1.16228431765607
  N   -0.99862426437462      1.30082165277590     -0.32914811622089
  O   -1.96559456252032      1.92210860545245      0.10051939970559
  O   -0.38702247022548      1.52805035598823     -1.36863109174952
