16

C	0.0	0.0	0.0
C	-0.344945	-0.076844	-1.516065
F	1.362285	0.0	0.0
H	0.522087	0.374887	-1.999581
N	-0.29042	1.450815	0.486462
O	-0.450308	1.592386	1.69216
O	-0.209433	2.344355	-0.350788
N	-0.534279	-1.001372	0.777021
H	-1.563684	-0.94035	0.672595
H	-0.284694	-0.854114	1.748359
C	-1.515317	0.544132	-2.126692
N	-2.178236	1.056144	-2.95268
N	-0.260074	-1.540424	-1.908479
O	-1.29844	-2.157013	-2.090524
O	0.880501	-1.986025	-2.003557
Cl	-3.338378	0.0	0.0
