16

C	0.0	0.0	0.0
C	-0.272572	-0.039584	-1.523935
F	1.377443	0.0	0.0
H	0.335358	0.768815	-1.926792
N	-0.302291	1.443187	0.514406
O	-0.382806	1.554781	1.73103
O	-0.341728	2.353932	-0.303794
N	-0.526503	-1.008846	0.764502
H	-1.550468	-0.99382	0.620641
H	-0.326571	-0.829461	1.741867
C	-1.574547	0.038247	-2.181397
N	-2.301992	0.110103	-3.105868
N	0.397123	-1.304567	-2.038589
O	-0.195754	-2.362193	-1.874709
O	1.48191	-1.154151	-2.598881
Cl	-3.346421	0.0	0.0
