16

C	0.0	0.0	0.0
C	-0.294095	0.001041	-1.524944
F	1.382211	0.0	0.0
H	0.471931	0.653025	-1.94167
N	-0.300363	1.421411	0.547236
O	-0.336083	2.344091	-0.259598
O	-0.374749	1.514763	1.765602
N	-0.532999	-1.036882	0.725624
H	-1.558382	-1.002449	0.585819
H	-0.326741	-0.906601	1.70923
C	-1.553901	0.392843	-2.152351
N	-2.256186	0.758435	-3.023778
N	0.080447	-1.383296	-2.019993
O	-0.779209	-2.251786	-1.982815
O	1.237051	-1.51595	-2.414914
Cl	-3.355951	0.0	0.0
