17
Coordinates from ORCA-job run
  C   0.75520319293474      0.12624703098291      0.05779771507367
  C   -0.68233191955653      0.65094101324801     -0.01961065977677
  F   1.52494886596035      1.13164387387418     -0.49379928171877
  H   -0.78336744871023      1.47646992448499      0.69592647059059
  C   1.01645900147115     -1.16408161031829     -0.65449688063721
  H   0.63043718838207     -1.06986854881682     -1.66925269772310
  H   0.53328486285477     -1.99558162549463     -0.14552772116572
  H   2.08960868031383     -1.34850444735651     -0.67901497683787
  N   1.20878257862847      0.08288448944102      1.51362637411317
  O   1.81666577746175     -0.90801625696450      1.89683004478007
  O   0.97097540091651      1.09130548060264      2.17094674134771
  N   -1.63815887397518     -0.39753622179996      0.48354896840687
  O   -2.73519077516461     -0.47092735067080     -0.05696433581539
  O   -1.26037745392723     -1.05671121041378      1.44836198413340
  N   -0.99529299486525      0.94919973426491     -1.38927621485290
  H   -1.98439895417531      1.14248745527367     -1.48007322371982
  H   -0.46624712854930      1.76104826966296     -1.68002230619794
