17
Coordinates from ORCA-job run
  C   0.81030332256701      0.21947676596542      0.06471169306100
  C   -0.62138775630775      0.74997302724313     -0.11254030526713
  F   1.64268700775548      1.23088926528530     -0.30751297446242
  H   -0.67785777277952      1.71191244030313      0.39873689818121
  C   1.14934977276121     -1.02992862372113     -0.69603034209532
  H   0.46676115487786     -1.84191755717299     -0.45573361211192
  H   1.10099563793233     -0.79823154087349     -1.76024268272474
  H   2.16646528462331     -1.33623224570524     -0.45049329097845
  N   1.02855508040874      0.02618671575475      1.56257162972032
  O   0.90898666508638     -1.11630796899311      1.99486940581623
  O   1.26271667722066      1.03783948618595      2.21087015575391
  N   -1.57074720516153     -0.16853348235833      0.66213187297278
  O   -1.81600400598478      0.13725164033098      1.82486109612875
  O   -2.00896136335577     -1.14369435554037      0.05509582614817
  N   -0.94428566322714      0.86427568943141     -1.48571162544517
  H   -1.17605183509217     -0.04001407109042     -1.87793947746642
  H   -1.71952500132433      1.49705481495499     -1.62864426723082
