17
Coordinates from ORCA-job run
  C   0.74412322410304      0.17057932181844      0.08497874858272
  C   -0.71025582856764      0.60941622187511     -0.11479563482624
  F   1.49407301979681      1.16136110688919     -0.51877649955502
  H   -0.89011549324004      1.48993507286129      0.51448079289886
  C   1.10647405191209     -1.16291441978694     -0.49036443407862
  H   0.63558488592304     -1.97016340616917      0.06698539569942
  H   2.18685663148737     -1.29195844526727     -0.44199046995596
  H   0.77419114178153     -1.17983123833187     -1.52812176186896
  N   1.11792142903011      0.28391424315793      1.55875781518813
  O   0.79399398394708      1.33292296878116      2.10680448927618
  O   1.75357658513874     -0.63316002367578      2.06222460087973
  N   -1.64075757812121     -0.43854102017365      0.43421193593344
  O   -1.28596670713023     -0.98636458058550      1.47449423027094
  O   -2.70115919923439     -0.61949443236077     -0.15233975529670
  N   -0.96058321309549      0.76578552820187     -1.52049472517044
  H   -1.95262223993091      0.88681050431829     -1.67926277252382
  H   -0.46433469379991      1.58070259844769     -1.85679195545362
