15

C	-0.57278	0.005696	-1.395697
C	0.0	0.0	0.0
Cl	-2.410717	-0.147658	-1.308659
H	1.089023	0.0	0.0
H	-0.318937	0.921912	0.489292
N	-0.152408	1.154273	-2.079019
H	-0.589757	1.231475	-2.985854
H	-0.252354	1.997455	-1.535196
N	-0.111924	-1.153899	-2.283148
O	-0.566546	-1.135915	-3.423578
O	0.708012	-1.935564	-1.833534
N	-0.492226	-1.081486	0.887708
O	-0.85648	-2.147276	0.396285
O	-0.469136	-0.824888	2.090906
Cl	3.268486	0.0	0.0
