15

C	-0.366671	0.2381	-1.459895
C	0.0	0.0	0.0
Cl	-2.034028	0.88515	-1.651578
H	1.091076	0.0	0.0
H	-0.387532	0.82531	0.591591
N	0.568022	1.13552	-1.972407
H	0.492521	1.253395	-2.973353
H	1.519279	0.886503	-1.694093
N	-0.402343	-1.129195	-2.247024
O	0.556843	-1.338578	-2.980101
O	-1.357663	-1.870151	-2.069368
N	-0.529205	-1.24856	0.583598
O	0.01206	-2.299961	0.250767
O	-1.457565	-1.148241	1.388034
Cl	3.280106	0.0	0.0
