15

C	-0.554169	0.017699	-1.429344
C	0.0	0.0	0.0
Cl	-0.017621	-1.420364	-2.284117
H	1.089033	0.0	0.0
H	-0.389842	0.869307	0.530868
N	-1.968533	0.184737	-1.628561
H	-2.24838	1.019751	-1.124153
H	-2.438331	-0.601446	-1.196651
N	0.05991	1.276985	-2.076021
O	0.787083	1.184281	-3.045129
O	-0.300247	2.315777	-1.522972
N	-0.51593	-1.193339	0.719272
O	-1.739408	-1.243085	0.906441
O	0.27801	-2.050305	1.084489
Cl	3.335515	0.0	0.0
