15

C	-0.529168	-0.011343	-1.413902
C	0.0	0.0	0.0
Cl	-2.414707	0.127498	-1.314511
H	1.091054	0.0	0.0
H	-0.390588	-0.840267	0.562248
N	0.069045	0.882456	-2.261927
H	-0.332104	0.92742	-3.185293
H	0.27069	1.769907	-1.824552
N	-0.39455	-1.419056	-2.017863
O	-0.439295	-1.47529	-3.239731
O	-0.289689	-2.366169	-1.252305
N	-0.427737	1.227004	0.716486
O	-0.869839	1.090072	1.853874
O	-0.272354	2.310943	0.15135
Cl	3.256886	0.0	0.0
