16

C	-0.346321	-0.007087	-1.495769
C	0.0	0.0	0.0
Cl	0.106345	1.558234	-2.193584
H	1.097883	0.0	0.0
C	0.36906	-1.129664	-2.211405
H	1.436452	-1.036857	-1.993093
H	0.187422	-1.062145	-3.282281
H	0.006714	-2.093152	-1.8434
N	-1.856947	-0.144914	-1.713825
O	-2.590779	0.014122	-0.743201
O	-2.222167	-0.398505	-2.856509
C	-0.439026	-1.243853	0.630448
N	-0.763288	-2.260364	1.121578
C	-0.486866	1.163112	0.734044
N	-0.835775	2.106081	1.340576
Br	3.327993	0.0	0.0
