16

C	-0.356098	0.114494	-1.487937
C	0.0	0.0	0.0
Cl	0.089062	1.733182	-2.057932
H	1.092635	0.0	0.0
C	0.355969	-0.944318	-2.298396
H	-0.003485	-1.935274	-2.008439
H	0.167737	-0.790461	-3.358976
H	1.425251	-0.867253	-2.079807
N	-1.868909	-0.006745	-1.704208
O	-2.59741	0.102745	-0.722542
O	-2.241502	-0.195336	-2.856157
C	-0.449711	-1.286296	0.530311
N	-0.808592	-2.329205	0.931686
C	-0.473544	1.100535	0.83438
N	-0.800952	1.977552	1.543485
Br	3.327618	0.0	0.0
