16

C	-0.346774	-0.016621	-1.495083
C	0.0	0.0	0.0
Cl	0.122705	1.537534	-2.206133
H	1.097974	0.0	0.0
C	0.355964	-1.153786	-2.200102
H	1.424452	-1.071946	-1.981258
H	0.175836	-1.093497	-3.271779
H	-0.018522	-2.109276	-1.823604
N	-1.857979	-0.141965	-1.713711
O	-2.224791	-0.378482	-2.860464
O	-2.590484	0.006162	-0.739482
C	-0.439599	-1.238077	0.641198
N	-0.762711	-2.250183	1.142065
C	-0.48632	1.169935	0.724381
N	-0.844155	2.117566	1.318369
Br	3.32652	0.0	0.0
