16

C	-0.371562	0.062787	-1.492183
C	0.0	0.0	0.0
Cl	-2.139747	0.079904	-1.722325
H	1.093793	0.0	0.0
C	0.269305	1.261364	-2.149964
H	-0.146436	2.171759	-1.714956
H	0.067264	1.251331	-3.220693
H	1.347035	1.223817	-1.968115
N	0.128662	-1.225926	-2.157314
O	0.880537	-1.110615	-3.117451
O	-0.290322	-2.277252	-1.687718
C	-0.524601	-1.137915	0.750679
N	-0.938472	-1.996161	1.439145
C	-0.436392	1.234508	0.652335
N	-0.787331	2.230746	1.165786
Br	3.305725	0.0	0.0
