16

C	-0.408703	-0.087074	-1.483666
C	0.0	0.0	0.0
Cl	-2.17745	-0.018	-1.669877
H	1.106015	0.0	0.0
C	0.258898	1.003338	-2.285707
H	-0.138943	1.968733	-1.96995
H	0.05696	0.86258	-3.347428
H	1.334016	0.968854	-2.101978
N	0.04655	-1.462908	-1.994679
O	-0.612662	-2.435215	-1.6458
O	1.056364	-1.479889	-2.689272
C	-0.510459	-1.083412	0.834039
N	-0.912344	-1.926327	1.546627
C	-0.430888	1.28581	0.544197
N	-0.772383	2.324787	0.973165
Br	3.302826	0.0	0.0
