15
Coordinates from ORCA-job run
  C   -0.50019176699496     -0.00562789482673     -0.24214556218096
  C   0.89445302560823     -0.59071161353581     -0.39636234921704
  H   -0.77198398504499      0.54815545010274     -1.14178742932080
  H   1.21966219176586     -1.12750716700271      0.49033017170717
  H   0.96512566889830     -1.22599338846166     -1.27942021584689
  C   -0.65993418283134      0.85926590368775      0.99679117208479
  H   -1.68441835929376      1.22665643864426      1.06512167218829
  H   -0.42193840527532      0.28593374647323      1.89577658859931
  H   0.00981851426344      1.71928689043998      0.94513882211980
  N   -1.49029543064154     -1.13141130734334     -0.15893955518055
  O   -1.08247394903956     -2.23033515390398      0.21438469591865
  O   -2.65304883836318     -0.85088103419105     -0.43167261254975
  N   1.83248424888376      0.55008229166549     -0.60215582379105
  O   2.67168451730202      0.76247453638003      0.26985740493701
  O   1.67205675076304      1.21161230187182     -1.62591697946797
