15
Coordinates from ORCA-job run
  C   -0.63891205933649     -0.05736619749528     -0.34693824306276
  C   0.75124915838348     -0.18178009776220     -0.94296366470564
  H   -1.34353594799216     -0.07578906254444     -1.18467287700250
  H   0.90167377095387     -1.17511832224885     -1.36536780392561
  H   0.92494301019554      0.58622871166045     -1.69484332902566
  C   -0.84110589366889      1.17949778269245      0.50214625745565
  H   -0.21485717204954      1.15105959622919      1.39320668737850
  H   -0.58603459986373      2.06456263439005     -0.08590450063455
  H   -1.87826361476644      1.26130505203773      0.82321483149630
  N   -0.97418878316419     -1.32347778384464      0.41584302230125
  O   -0.80090619002123     -2.37525414051866     -0.19178730728105
  O   -1.42976832569587     -1.21360639740397      1.54743329131321
  N   1.78876719458717      0.00917533059530      0.11088410617830
  O   2.65677506814851      0.85488818731976     -0.08697227109388
  O   1.68416438428998     -0.70332529310689      1.10672180060844
