15
Coordinates from ORCA-job run
  C   -0.48020268670700     -0.04548791749505     -0.29378482857532
  C   0.93969235250595     -0.59020187548920     -0.25340985493371
  H   -0.68479765486324      0.39263498862222     -1.27042495903226
  H   1.18094826110927     -1.03177412254858      0.70939863432082
  H   1.11567068092492     -1.29944643116265     -1.06340756457577
  C   -0.77791274187198      0.93348079065018      0.82866789409842
  H   -1.82103756577484      1.25100847529008      0.78175536239497
  H   -0.14876760540333      1.81995961832459      0.73203034349221
  H   -0.58633343333487      0.47030300184736      1.79861590926409
  N   -1.42435885056999     -1.20440334257924     -0.17201102335466
  O   -1.13172709816723     -2.08404426824373      0.63641671851739
  O   -2.44237360212010     -1.16573863501136     -0.85705668630573
  N   1.86518056555944      0.55779907472704     -0.47051953416942
  O   1.79247954018482      1.11906543908372     -1.56182525802744
  O   2.60453983852817      0.87684520398461      0.45755484688641
