15
Coordinates from ORCA-job run
  C   -0.46811647800483      0.03969731597051     -0.23424571707360
  C   0.99181409909889      0.39095781938183     -0.11733867884781
  H   -0.73185115558822     -0.19317950328887     -1.26499345701353
  H   1.21159620698117      1.30014479372015     -0.68183347178136
  H   1.30907328147528      0.51890613641874      0.91494388768686
  C   -1.36494511391646      1.12851717424356      0.33572371888243
  H   -1.13455286704366      1.30604000786272      1.38860377620941
  H   -1.22291204192994      2.05966157868354     -0.21619413944708
  H   -2.41039645301714      0.83170485952040      0.24752011139065
  N   -0.74874352941876     -1.23075150387457      0.52259301781831
  O   0.02285508215600     -1.54344504454365      1.42640157109476
  O   -1.76852433142829     -1.83210822818193      0.20425950798247
  N   1.87864514426429     -0.67215367101269     -0.69189720231180
  O   1.37410327323686     -1.48425195617710     -1.46254103051704
  O   3.05895488313481     -0.61973977872264     -0.36800189407265
