15
Coordinates from ORCA-job run
  C   -0.46300530418683     -0.08843561252306     -0.30529436056628
  C   0.98986444340099     -0.52794484434600     -0.20829373556341
  H   -0.66491127466545      0.31569453143003     -1.29737082552368
  H   1.23384899280582     -0.92598062534141      0.77249677376188
  H   1.24082803217002     -1.24329764338404     -0.99244607979325
  C   -0.86814411005894      0.89135840002360      0.78280965925264
  H   -1.92735753851159      1.13638836591643      0.68959028465676
  H   -0.68311783430453      0.46224570129079      1.76982182033465
  H   -0.29553595990823      1.81570941681706      0.68976019699273
  N   -1.33235106420695     -1.30538927379727     -0.18807581128892
  O   -2.38259462993639     -1.29399111822778     -0.82303979412584
  O   -0.95654730465158     -2.19813563679563      0.57001996096493
  N   1.83508921651888      0.67933998165241     -0.43091265648446
  O   2.51345770026474      1.08127058492641      0.51149016614302
  O   1.76047663527004      1.20116777235846     -1.54155559876075
