17
Coordinates from ORCA-job run
  C   -0.60033423044711     -0.45858307774836     -0.24428289846798
  C   0.74490166187792      0.20773433625366     -0.58125683439393
  F   -0.94885133771015     -1.17964009944228     -1.41591012196164
  H   0.60252196897048      0.73128142926620     -1.53265690462327
  N   -0.46264635172989     -1.32247407487628      0.87090014832035
  H   0.18837308240195     -2.07342237418152      0.67085656036608
  H   -1.35583876252045     -1.72448631622516      1.12604331451013
  C   -1.71357528245673      0.54238185062608     -0.02004333445127
  H   -1.57467974062308      1.08348211363683      0.91490256909630
  H   -2.66392989256314      0.00526915050994      0.02115368777236
  H   -1.76314998484249      1.24776788327850     -0.85115570021199
  C   1.74831865205237     -0.83756051190607     -0.80253400136441
  N   2.55035302031987     -1.68518809355593     -0.93107566656557
  C   1.22348733686619      1.18396179777643      0.49605730911103
  H   1.26223505674874      0.68113047591482      1.46234512933807
  H   2.21775538715406      1.56137113278050      0.25177996632826
  H   0.54605941650146      2.03597437789266      0.56587677719747
