17
Coordinates from ORCA-job run
  C   -0.62395121156964     -0.39773647505717     -0.02571511058131
  C   0.66537250783016      0.46555547091894     -0.05401690283670
  F   -0.26996050737184     -1.60666440271047     -0.62469611016846
  H   0.41802181302789      1.42263307219405      0.42156852812135
  N   -1.09697746471172     -0.71737623984459      1.28853321174246
  H   -0.35810477945577     -1.04168950018705      1.89707817942384
  H   -1.57995268704963      0.06139220567693      1.71377673210628
  C   -1.74687870912671      0.21480793050203     -0.83492331959698
  H   -1.45313447614555      0.30431786600511     -1.88046314681048
  H   -2.00751554009129      1.20721749929953     -0.45741388548815
  H   -2.61829008520138     -0.43644755816491     -0.76279511067175
  C   1.05335797923508      0.75070346359687     -1.43746623896350
  N   1.37383756120620      0.97640400225496     -2.54427569171903
  C   1.83943870975927     -0.18314166565684      0.68702098827910
  H   2.74040730830253      0.42136510746054      0.57359957360932
  H   2.03437461859305     -1.17694930206144      0.28383887485865
  H   1.62995496276934     -0.26339147422647      1.75534942869537
