17
Coordinates from ORCA-job run
  C   -0.54254410785743     -0.47926739786154     -0.30399451987139
  C   0.77692461708630      0.27169778604326     -0.56412109452711
  F   -0.76462849224642     -1.27494381750720     -1.42596296501010
  H   0.61399260133517      0.94364038149526     -1.41502034447741
  N   -0.38410212246915     -1.37556677465500      0.82279812046859
  H   -0.87675063976740     -1.03006345797840      1.63596599554363
  H   -0.76167417342165     -2.28108722739693      0.57547231800315
  C   -1.73066821653275      0.45765140844654     -0.18798056644127
  H   -2.63820575166538     -0.14399602825805     -0.10734715389161
  H   -1.81035713194341      1.09149795537648     -1.07358293888886
  H   -1.65502974326620      1.09158923029680      0.69762070542402
  C   1.80586388536916     -0.70018177779848     -0.94122356858570
  N   2.64871616536984     -1.46554241086686     -1.22545888762387
  C   1.23849759031094      1.07448466335227      0.65377838486519
  H   2.18364984933823      1.57571369309934      0.43980035994669
  H   1.38741339912641      0.40487981415766      1.50126766847544
  H   0.50690227123374      1.84049396005486      0.91798848659062
