17
Coordinates from ORCA-job run
  C   -0.59284150400417     -0.33162649827302      0.02510898103809
  C   0.67260095002987      0.53391115102269     -0.11654075255943
  F   -0.24842226829227     -1.61063322150598     -0.47716262275382
  H   0.39690094382293      1.54750138967098      0.19415842582523
  N   -0.96451162767480     -0.40600828490436      1.39560403097679
  H   -1.85994441422121     -0.86955932221948      1.48947160460609
  H   -0.28070548941668     -0.93296475038116      1.92415850298096
  C   -1.74552238632025      0.17116110564974     -0.81571676024255
  H   -2.59397921171487     -0.50903906923835     -0.70938851298754
  H   -1.46340066946007      0.19754704538521     -1.86804210774163
  H   -2.04704676293068      1.16821833759520     -0.49163559296064
  C   1.07812381881219      0.59132399936330     -1.52320138542523
  N   1.41966682890330      0.64347243757118     -2.64498496667811
  C   1.83891994777582      0.03891581597280      0.74541181236847
  H   2.74021674617640      0.61424430681676      0.53013249219427
  H   2.04278974265227     -1.01195195746222      0.53618903069860
  H   1.60915535586222      0.16548751493672      1.80443782066044
