17
Coordinates from ORCA-job run
  C   -0.63423058998001     -0.48139432300585     -0.35700095460561
  C   0.73475214068094      0.21323408492347     -0.57163388424980
  F   -0.88876706635221     -1.11022278464940     -1.57815072551600
  H   0.64651684031897      0.82141102592175     -1.47865523189897
  N   -0.66101266744486     -1.50100557298112      0.64309246163148
  H   -0.74678119598797     -1.12570067368881      1.57599849596244
  H   0.13793094399062     -2.12043535289803      0.58284135358017
  C   -1.75138721897129      0.51266432878485     -0.11827183806842
  H   -1.66999936346319      0.99263537138691      0.85840524959777
  H   -2.69596779568263     -0.02947757900752     -0.16522139222092
  H   -1.74602871836821      1.28151756409987     -0.89281812447169
  C   1.74435029737175     -0.81706267740567     -0.82408462940732
  N   2.54411811306962     -1.66235593916537     -0.98073438405231
  C   1.16268011524196      1.09107527598888      0.60630021588160
  H   1.19015647908705      0.51018561991124      1.53045697485529
  H   0.47472793890745      1.92788496356747      0.73313952022723
  H   2.16094174758204      1.49704666821735      0.43633689275503
