17
Coordinates from ORCA-job run
  C   -0.59603135290862     -0.43891951671358      0.01725165080918
  C   0.62981890161834      0.50523496966154     -0.10223746452381
  F   -0.18310649037840     -1.64972815765935     -0.53803474201606
  H   0.33543715941734      1.46623944488302      0.33714911451087
  N   -0.99859870067089     -0.72338838477582      1.36291730172278
  H   -0.21785817922517     -0.96618125207598      1.95692517592899
  H   -1.51803158616411      0.04221024576271      1.76881817472832
  C   -1.78638546592684      0.05781421180322     -0.77483590686084
  H   -1.53719200374926      0.11453607074120     -1.83412622015415
  H   -2.60874772241355     -0.64483695467830     -0.63841963945637
  H   -2.09964837853940      1.04838293861460     -0.43451474301094
  C   0.94845730413410      0.74536160698045     -1.51154615336152
  N   1.21437177179356      0.93533145058314     -2.63922252456857
  C   1.87085242545819     -0.02700337886377      0.62288122027639
  H   1.70600880665524     -0.06599477690273      1.70121500893648
  H   2.72452625966965      0.62827893906693      0.44464993668687
  H   2.11712725122983     -1.02533745642726      0.26112981035237
