17
Coordinates from ORCA-job run
  C   -0.64698776189782     -0.48566074046289     -0.32751833847421
  C   0.71984358437838      0.19372262332422     -0.59698337672221
  F   -0.93689762039411     -1.14652360027377     -1.52384571083308
  H   0.61096295631098      0.77951421015206     -1.51641196166956
  N   -0.65341665871689     -1.47725509242896      0.70055438924700
  H   0.13869547123578     -2.10481805091860      0.63447713207326
  H   -0.70987535660429     -1.07647308802903      1.62505241007344
  C   -1.75219147653341      0.52143780275800     -0.08798044074213
  H   -1.64176932236091      1.02994337157181      0.87124589232315
  H   -2.70015814964821     -0.01675883199523     -0.09274017153258
  H   -1.76416111574492      1.26659206745969     -0.88525668830253
  C   1.71597150992683     -0.84973562967186     -0.84912463129664
  N   2.50879726234115     -1.70403809793042     -0.99165288425612
  C   1.18593804801760      1.09753452224203      0.54632621422693
  H   2.17997523756689      1.49543548625716      0.33711159103780
  H   1.23933729423905      0.53821066452705      1.48256042250567
  H   0.50493609788392      1.93987238341879      0.67418615234181
