17
Coordinates from ORCA-job run
  C   -0.55532251944874     -0.38882483115520      0.05095239970661
  C   0.61545587940468      0.58832209670280     -0.16131683968789
  F   -0.06782670390297     -1.66695403009845     -0.31665361069174
  H   0.22820271791715      1.59238815036462      0.04303325727998
  N   -0.94783975877804     -0.36718667866748      1.41752018923572
  H   -0.22532607493126     -0.76522116240480      2.00418264414949
  H   -1.79273314986826     -0.91029290862981      1.54655597817995
  C   -1.73499704180555     -0.09631201806944     -0.84975224367492
  H   -2.50974470642155     -0.84930388358549     -0.68663910141922
  H   -1.43328678047133     -0.14316931867268     -1.89591411165630
  H   -2.14661914080078      0.88987242296150     -0.63052155239732
  C   1.04503016233748      0.55001345683582     -1.56135679079277
  N   1.40512506079944      0.52857179332677     -2.67839628282653
  C   1.80716500245943      0.30728628224523      0.76033130873993
  H   1.54152105988290      0.51341007440571      1.79827494123188
  H   2.12361933130482     -0.73178601905879      0.66091375800879
  H   2.64857666232259      0.95018657349970      0.49878605661433
