15

C	-0.575853	-0.044981	-1.418514
C	0.0	0.0	0.0
Cl	0.12242	1.317924	-2.358518
H	1.097332	0.0	0.0
H	-0.34855	0.935067	0.449796
C	-0.201504	-1.295482	-2.08343
N	0.034682	-2.315425	-2.616071
C	-2.093343	0.089843	-1.421881
H	-2.486879	0.043316	-2.438606
H	-2.512269	-0.714296	-0.817235
H	-2.362644	1.052852	-0.981628
N	-0.546018	-1.143041	0.75246
H	-0.54174	-0.89952	1.735641
H	0.118486	-1.905001	0.657706
Cl	3.490784	0.0	0.0
