15

C	-0.443641	0.010673	-1.465582
C	0.0	0.0	0.0
Cl	0.064349	-1.517323	-2.258965
H	1.093049	0.0	0.0
H	-0.325079	0.960174	0.423695
C	-1.905206	0.073848	-1.550848
N	-3.075537	0.172846	-1.579008
C	0.208441	1.176667	-2.197042
H	-0.047257	1.165625	-3.257755
H	1.289884	1.092931	-2.069873
H	-0.129288	2.119095	-1.757299
N	-0.541476	-1.136222	0.72808
H	0.217143	-1.637753	1.163851
H	-1.184359	-0.838704	1.445395
Cl	3.46381	0.0	0.0
