15

C	-0.586358	-0.036004	-1.413989
C	0.0	0.0	0.0
Cl	0.137659	1.303709	-2.368362
H	1.097418	0.0	0.0
H	-0.342126	0.936422	0.452781
C	-0.257303	-1.300565	-2.077938
N	-0.071801	-2.33851	-2.595814
C	-2.101027	0.137038	-1.403196
H	-2.505828	0.093444	-2.415774
H	-2.342223	1.108934	-0.96652
H	-2.533346	-0.65326	-0.788974
N	-0.552135	-1.138417	0.753734
H	-0.533984	-0.899963	1.737979
H	0.100105	-1.90941	0.648389
Cl	3.497253	0.0	0.0
