15

C	-0.446642	0.063739	-1.467389
C	0.0	0.0	0.0
Cl	-0.125248	-1.538836	-2.234823
H	1.093306	0.0	0.0
H	-0.36785	-0.930103	0.447783
C	-1.894675	0.288626	-1.542828
N	-3.054135	0.483877	-1.573627
C	0.326568	1.138702	-2.216955
H	0.117273	2.099938	-1.744393
H	0.038799	1.17058	-3.269563
H	1.393172	0.917666	-2.119889
N	-0.455416	1.210876	0.678218
H	0.27892	1.541015	1.290731
H	-1.285119	1.034668	1.227646
Cl	3.482474	0.0	0.0
