15

C	-0.419362	-0.061107	-1.470709
C	0.0	0.0	0.0
Cl	-2.22648	-0.257453	-1.577436
H	1.094673	0.0	0.0
H	-0.36573	0.935137	0.440654
C	-0.123379	1.208154	-2.136777
N	0.103717	2.229818	-2.671589
C	0.248333	-1.222883	-2.180864
H	1.32966	-1.085147	-2.104586
H	-0.056935	-1.272904	-3.227261
H	-0.030013	-2.138808	-1.661201
N	-0.433971	-1.203026	0.698985
H	-1.292902	-1.039977	1.206667
H	0.289624	-1.468743	1.354099
Cl	3.436806	0.0	0.0
