15

C	-0.579208	-0.023145	-1.417756
C	0.0	0.0	0.0
Cl	0.134479	1.338386	-2.35037
H	1.097505	0.0	0.0
H	-0.344491	0.93105	0.461676
C	-0.228524	-1.27417	-2.096265
N	-0.0203	-2.302038	-2.624896
C	-2.095443	0.134504	-1.411066
H	-2.522672	-0.668264	-0.809626
H	-2.346765	1.097835	-0.961195
H	-2.496466	0.102758	-2.425522
N	-0.54947	-1.149441	0.738612
H	0.115674	-1.910414	0.643637
H	-0.55964	-0.916549	1.724104
Cl	3.497295	0.0	0.0
