17
Coordinates from ORCA-job run
  C   -0.58314232361393      0.30815671451934      0.18944261071020
  C   0.70784405149114     -0.24229961799577     -0.42758269737708
  F   -0.34107313579585      1.54235741257284      0.70736199965495
  H   0.48860855311843     -1.25376065802292     -0.78325137398367
  C   -1.77866218866508      0.36339088210847     -0.72621537220521
  H   -2.00469751391965     -0.62585949752600     -1.12234414867409
  H   -1.56757787466719      1.05068616723019     -1.54641675610186
  H   -2.63969794806051      0.73654761191866     -0.16829220566271
  N   -0.91355075198759     -0.61063832542729      1.36041087457687
  O   -1.11223721791714     -1.78333169079586      1.05515736646750
  O   -0.94953244897377     -0.12760207875504      2.48245160424770
  C   1.85886685019476     -0.28588594040367      0.58296674864041
  H   1.62926269609428     -0.98242396080704      1.39121464623637
  H   2.03604624299176      0.70308720648160      1.00532952162776
  H   2.77105767068371     -0.62606430773777      0.09156816004548
  C   1.05577418791083      0.58463879571791     -1.58385612657126
  N   1.34171115111580      1.25000128692235     -2.50794485163136
