17
Coordinates from ORCA-job run
  C   -0.70916873809707      0.47391126009109     -0.03954834783031
  C   0.78641940990062      0.42732643545912     -0.38554092502362
  F   -1.14615673925746      1.73838764173102     -0.30051535797581
  H   0.82876973394309      0.78807850969039     -1.42078610108898
  C   -1.57338656839568     -0.51579968631536     -0.77713722731071
  H   -1.42276117450251     -0.39310716158112     -1.85137114431138
  H   -2.61906469253649     -0.30468823346382     -0.54591679222978
  H   -1.34385317547727     -1.53733453831282     -0.48482516074158
  N   -0.87947956046491      0.25769079967285      1.46061757296827
  O   -1.17242805700180      1.22333248072637      2.14969954908442
  O   -0.68653592834319     -0.89289178191310      1.84732964846416
  C   1.44840002668982     -0.95105731643441     -0.30738464896699
  H   0.94923474247926     -1.65439959452020     -0.97488765717002
  H   2.48971101646653     -0.86475599824882     -0.62145249936199
  H   1.41997373388321     -1.34482666820289      0.70691941423604
  C   1.51075297503489      1.40035610049935      0.43789451154587
  N   2.12057299567894      2.14977775112234      1.10490516571240
