17
Coordinates from ORCA-job run
  C   -0.69363413470815      0.35053112012195     -0.06111941263632
  C   0.83621593344057      0.42471197956818     -0.01803479043925
  F   -1.10661915130027      1.09545548441542     -1.13572043639483
  H   1.07654293803693      1.49203606387644      0.03719661144499
  C   -1.29892639711679     -1.02157078079846     -0.12998644803557
  H   -2.38533091299496     -0.94283862346691     -0.09305570533547
  H   -0.96494662322421     -1.64232853096778      0.70012794969398
  H   -1.01255238720202     -1.48379334982739     -1.07529946619188
  N   -1.19809989504823      1.10912977214068      1.16852767404889
  O   -1.77922625669833      0.46911543280364      2.03900728820361
  O   -0.94855462587580      2.30954043455929      1.18574558127584
  C   1.48303016310085     -0.18510965473499     -1.26490177518979
  H   1.33996314668851     -1.26561525047470     -1.30030927617224
  H   1.05500448066715      0.26649326397231     -2.16032123299020
  H   2.55545020660202      0.01425174316416     -1.25409539417522
  C   1.32326362109485     -0.22116047305369      1.20075690266770
  N   1.71841989453787     -0.76884863129816      2.16148193022576
