17
Coordinates from ORCA-job run
  C   -0.69549948993107      0.33975149023675     -0.09827189770086
  C   0.83254085917491      0.43020981380237     -0.02747994835920
  F   -1.09038898640433      1.01251041766930     -1.22576088067608
  H   1.06324452285505      1.50113862425353     -0.03590219448261
  C   -1.28838341536568     -1.03950897169747     -0.09436644037726
  H   -2.37593064840102     -0.96881555304972     -0.08459400767417
  H   -0.97839632483998     -1.55613902755364     -1.00341096305585
  H   -0.96663223874554     -1.60479261570580      0.77904452617463
  N   -1.23143362149423      1.16854391350416      1.07091277524140
  O   -0.99580555061505      2.37058931742504      1.01600227875909
  O   -1.82158987030245      0.57768551545401      1.96947188626091
  C   1.51135664267696     -0.25284397715964     -1.21782144806036
  H   1.37960095353127     -1.33486613934729     -1.18484669906187
  H   1.09829546351984      0.13414316045879     -2.14977718457759
  H   2.58139268149712     -0.04152729785756     -1.19798987184668
  C   1.29865753230913     -0.12932753053406      1.24127326893508
  N   1.67897149053507     -0.60675113989876      2.24451680050144
