17
Coordinates from ORCA-job run
  C   -0.63378132282868      0.25053260088771      0.08326090856973
  C   0.75938850549121     -0.23730582741988     -0.33111229088798
  F   -0.61274528335691      1.60350426270323      0.21884469194868
  H   0.71676419230935     -1.32965057296346     -0.37950629513758
  C   -1.76849520594369     -0.15533503453054     -0.82171155394678
  H   -2.70725441458290      0.21787567553036     -0.40781548073818
  H   -1.81808787947795     -1.23987567632608     -0.91152808933431
  H   -1.61653979748085      0.29042406327394     -1.80555759136402
  N   -0.88792235994266     -0.33345538224397      1.46837160442547
  O   -0.88752510355182     -1.56049681590070      1.51850318949185
  O   -1.05872076672077      0.43944788188952      2.39964631050729
  C   1.84245517960874      0.19612890812007      0.66288810100761
  H   1.83932248722521      1.27929031388672      0.78392785270984
  H   1.67582136636340     -0.27161012533066      1.63478715892035
  H   2.82362794421750     -0.11338655466876      0.30120257718188
  C   1.04688216767848      0.27298445620321     -1.67224842045781
  N   1.28581029099235      0.69092782688929     -2.74295267289604
