17
Coordinates from ORCA-job run
  C   -0.56039120815432      0.27032255208605      0.28890474460659
  C   0.69132886160649     -0.14088237848503     -0.49489893486663
  F   -0.23390860189559      1.25184965551991      1.17192719376861
  H   0.40222899259869     -0.96693248309287     -1.15191178447553
  C   -1.74339552734092      0.70046026674007     -0.53957209673314
  H   -2.57972810734577      0.93151790106153      0.12303710357254
  H   -1.47898098259675      1.59948576052415     -1.09765851453549
  H   -2.03595883926880     -0.08979289182966     -1.22994060325573
  N   -0.96279252692355     -0.95113524813861      1.10770760023914
  O   -0.97255883102927     -0.85299475227143      2.32590962254442
  O   -1.24171592440917     -1.94672248735637      0.44526322200214
  C   1.83073951113916     -0.58620775982662      0.42793730004202
  H   2.07294497145011      0.19894282458894      1.14397835968052
  H   1.54873454521727     -1.48977037818473      0.97125730816586
  H   2.72027510378803     -0.80916987950833     -0.16211548030454
  C   1.10380215009615      0.98724309292720     -1.33106947870788
  N   1.44137641306823      1.89278620524580     -1.99775556174289
