17
Coordinates from ORCA-job run
  C   -0.56634833751099      0.29921786859143      0.24579151062001
  C   0.69464998515980     -0.19884639249433     -0.46978581313711
  F   -0.26023978483160      1.40644084474799      0.97409972597845
  H   0.42343878427433     -1.11840346464284     -0.99776032537836
  C   -1.75619768595393      0.57978711238097     -0.63539140053145
  H   -2.59653687039475      0.89173075909479     -0.01221595775736
  H   -1.50798564181490      1.38991931769096     -1.32209629953802
  H   -2.03406313140247     -0.30981827032651     -1.19924858658133
  N   -0.94667949617832     -0.79563793329265      1.23631981631149
  O   -0.95960739194803     -0.51950849024399      2.42690043033142
  O   -1.20652536372320     -1.88288480582292      0.72816713003931
  C   1.84052063920545     -0.48122270046036      0.50756333994839
  H   2.07034671376053      0.40667889863052      1.09623077650610
  H   1.57270273471148     -1.29609581666478      1.18233791609016
  H   2.73384332147678     -0.77699260161317     -0.04341386686966
  C   1.08697239933000      0.80124472262224     -1.46364105941998
  N   1.40970912583981      1.60639095180262     -2.25485733661207
