17
Coordinates from ORCA-job run
  C   -0.72597889266258      0.44925023666406     -0.01650348562586
  C   0.76257075617431      0.46013410147273     -0.39585277659713
  F   -1.21220414549742      1.70126087540262     -0.24871849202138
  H   0.76918189829618      0.83671799385908     -1.42630244085449
  C   -1.57191253024353     -0.55881652948761     -0.75046206633728
  H   -2.61856457332655     -0.38993794915716     -0.49021354366377
  H   -1.29881083455435     -1.57646724830883     -0.48271152509783
  H   -1.45236191597160     -0.41152835513448     -1.82569211512445
  N   -0.85446923387226      0.20552623520812      1.48301178602617
  O   -1.16516250470436      1.14984365196857      2.19351530022049
  O   -0.61259678584818     -0.94306968574997      1.84758500110629
  C   1.47366391151635     -0.89520870922812     -0.35307664502032
  H   2.50377888541051     -0.76841896889213     -0.68957668363942
  H   0.98348495462071     -1.60613346063168     -1.01923739578859
  H   1.48248251433201     -1.30388255766778      0.65570577741823
  C   1.47016013018804      1.44639772712072      0.42615133103716
  N   2.06773836614275      2.20633264256186      1.09237797396220
