15

C	0.0	0.0	0.0
C	-0.443186	0.114973	-1.481937
Br	2.008218	0.0	0.0
H	0.433105	0.167258	-2.132216
H	-0.205434	0.94565	0.495205
N	-0.508757	-1.156185	0.659011
H	-1.535466	-0.984393	0.562137
H	-0.285253	-1.048349	1.645269
N	-1.016941	1.561628	-1.685007
O	-1.854836	1.700182	-2.569527
O	-0.512428	2.488284	-1.055795
N	-1.332318	-0.882084	-1.919453
H	-1.563799	-0.707189	-2.888239
H	-2.171839	-0.746398	-1.320272
F	-2.784881	0.0	0.0
