15

C	0.0	0.0	0.0
C	-0.250817	0.095129	-1.53928
Br	1.992932	0.0	0.0
H	0.424216	-0.611796	-2.021022
H	-0.269055	0.931502	0.500791
N	-0.603613	-1.191785	0.494714
H	-1.622496	-0.956511	0.38528
H	-0.424481	-1.248206	1.492765
N	0.273703	1.451818	-2.009667
O	0.930008	1.473267	-3.049878
O	-0.061329	2.447776	-1.373266
N	-1.564903	-0.026015	-2.055964
H	-1.674366	-0.957665	-2.430017
H	-2.279169	0.105565	-1.286763
F	-2.990003	0.0	0.0
