15

C	0.0	0.0	0.0
C	-0.492092	-0.087706	-1.460576
Br	2.038027	0.0	0.0
H	-1.564825	-0.300509	-1.287868
H	-0.265113	1.002431	0.333708
N	-0.507774	-0.948782	0.917976
H	-1.533623	-0.72008	0.833629
H	-0.377042	-1.871805	0.516476
N	0.139559	-1.252806	-2.151427
O	-0.139173	-2.370687	-1.70548
O	0.91994	-1.053382	-3.079002
N	-0.343879	1.093277	-2.254389
H	-1.065086	1.736924	-1.953024
H	0.568865	1.511315	-2.112854
F	-2.753171	0.0	0.0
