15

C	0.0	0.0	0.0
C	-0.266378	-0.138589	-1.537063
Br	1.949204	0.0	0.0
H	0.390061	-0.927927	-1.901735
H	-0.285797	0.994055	0.349285
N	-0.613289	-1.105975	0.666535
H	-0.422933	-1.025607	1.660843
H	-1.629875	-0.884641	0.533675
N	0.283588	1.113514	-2.217027
O	0.926193	0.956692	-3.254447
O	-0.01571	2.205866	-1.739994
N	-1.586933	-0.306557	-2.018992
H	-2.295097	-0.054792	-1.271775
H	-1.721132	-1.278825	-2.256053
F	-3.022341	0.0	0.0
