15

C	0.0	0.0	0.0
C	-0.478217	-0.001163	-1.45443
Br	2.044047	0.0	0.0
H	-1.577993	-0.077215	-1.279238
H	-0.249612	0.997308	0.356611
N	-0.52381	-0.967947	0.883518
H	-1.54799	-0.716253	0.804956
H	-0.416993	-1.8813	0.456701
N	-0.024221	-1.258488	-2.176988
O	0.627096	-1.134167	-3.216372
O	-0.340298	-2.346898	-1.695048
N	-0.11209	1.185831	-2.145466
H	-0.616379	1.246916	-3.019335
H	0.879469	1.179263	-2.350768
F	-2.76956	0.0	0.0
