15

C	0.0	0.0	0.0
C	-0.428776	0.056368	-1.510457
Br	2.000508	0.0	0.0
H	0.476335	0.032288	-2.124027
H	-0.237035	0.937524	0.499047
N	-0.515296	-1.181154	0.614835
H	-1.541479	-0.95704	0.555094
H	-0.250094	-1.163266	1.594193
N	-0.974447	1.445386	-1.792104
O	-0.369495	2.380132	-1.263171
O	-1.899237	1.573172	-2.580406
N	-1.355211	-0.920199	-1.979766
H	-0.957131	-1.821287	-1.735304
H	-2.182366	-0.767119	-1.372685
F	-2.755029	0.0	0.0
