14

C	0.0	0.0	0.0
C	-0.550689	-0.115013	-1.423627
F	1.372819	0.0	0.0
H	-1.555064	-0.536882	-1.287125
H	-0.300041	0.984645	0.374339
N	-0.502711	-1.09852	0.766239
H	-0.230088	-0.955624	1.733505
H	-1.526801	-0.932513	0.686742
C	0.27925	-0.987002	-2.251383
N	0.901352	-1.687072	-2.961999
N	-0.646798	1.237207	-2.013457
H	-1.495814	1.598112	-1.585277
H	-0.853352	1.138059	-3.003041
F	-2.794847	0.0	0.0
