14

C	0.0	0.0	0.0
C	-0.365865	-0.054446	-1.5285
F	1.410587	0.0	0.0
H	0.567139	-0.299175	-2.049184
H	-0.322031	0.947709	0.42834
N	-0.515539	-1.052798	0.792075
H	-1.524311	-0.80571	0.810172
H	-0.463607	-1.903471	0.240274
C	-0.754424	1.293865	-1.994094
N	-1.039293	2.353736	-2.414152
N	-1.355684	-1.085163	-1.802589
H	-1.603061	-1.041164	-2.785709
H	-2.175522	-0.78871	-1.21836
F	-2.834763	0.0	0.0
