14

C	0.0	0.0	0.0
C	-0.283869	0.254081	-1.523205
F	1.400674	0.0	0.0
H	-0.033499	-0.716362	-1.977392
H	-0.293029	0.879606	0.590312
N	-0.594883	-1.219062	0.415565
H	-1.612742	-0.998713	0.286687
H	-0.460888	-1.303943	1.418735
C	0.706449	1.231153	-2.020323
N	1.431691	2.06469	-2.422351
N	-1.590178	0.687165	-1.999506
H	-1.660259	1.683643	-1.809933
H	-2.300731	0.278811	-1.342022
F	-2.989895	0.0	0.0
