14

C	0.0	0.0	0.0
C	-0.51376	-0.267878	-1.439811
F	1.393715	0.0	0.0
H	-1.106898	-1.18877	-1.3857
H	-0.279952	1.032721	0.239698
N	-0.531589	-0.982819	0.885812
H	-0.325399	-0.690573	1.835923
H	-1.553614	-0.833851	0.734427
C	0.596166	-0.515877	-2.369648
N	1.446782	-0.761793	-3.14141
N	-1.307678	0.882684	-1.88378
H	-2.118564	0.792652	-1.234193
H	-1.65107	0.675707	-2.817957
F	-2.858924	0.0	0.0
