13

C	-0.570188	-0.070549	-1.394319
C	0.0	0.0	0.0
Br	-2.482023	0.261333	-1.415787
H	1.090998	0.0	0.0
H	-0.101572	0.709291	-1.992924
H	-0.331868	0.927534	0.464139
N	-0.240078	-1.363877	-2.126802
O	-1.121045	-2.172279	-2.373167
O	0.943162	-1.452039	-2.416731
N	-0.488885	-1.091623	0.873644
O	-0.398234	-2.236918	0.438172
O	-0.914894	-0.783838	1.985398
Cl	3.266626	0.0	0.0
