13

C	-0.517101	-0.019159	-1.414634
C	0.0	0.0	0.0
Br	-0.032129	1.543665	-2.412061
H	1.08795	0.0	0.0
H	-0.064803	-0.872745	-1.921886
H	-0.363012	-0.885255	0.525709
N	-2.017619	-0.295364	-1.472591
O	-2.352725	-1.291319	-0.836177
O	-2.755175	0.404494	-2.145475
N	-0.524642	1.168871	0.761247
O	0.168843	1.616299	1.666499
O	-1.651701	1.570887	0.460071
Cl	3.315968	0.0	0.0
