13

C	-0.484412	-0.058664	-1.425118
C	0.0	0.0	0.0
Br	-0.016141	1.491685	-2.450143
H	1.087965	0.0	0.0
H	0.007499	-0.90977	-1.899281
H	-0.348382	-0.887058	0.532341
N	-1.972271	-0.381438	-1.517995
O	-2.705131	0.262097	-2.249974
O	-2.30188	-1.356706	-0.846798
N	-0.559996	1.160193	0.740827
O	-1.642878	1.605224	0.35246
O	0.055972	1.552533	1.723627
Cl	3.30429	0.0	0.0
