14
Coordinates from ORCA-job run
  C   -0.89592340668638     -0.39358693707773      0.03119189702044
  C   0.44749959010433      0.31572156748632     -0.14227919704694
  F   -0.99694209000104     -1.30697577673167     -1.04069973532926
  H   0.38603527179666      0.89936052119249     -1.06990921584177
  H   -0.89856772085472     -1.00014844194890      0.94054032566929
  N   -1.96645561366390      0.52216416653692      0.07027146909047
  H   -2.02832768496338      1.05686100846641     -0.78662987697691
  H   -2.84869721158633      0.06026727597392      0.24357331063997
  C   1.61333117857017     -0.67113891847076     -0.24467190729522
  H   1.68536707756983     -1.27143961935043      0.66492924380623
  H   2.55555324814578     -0.13762958854645     -0.37701264946538
  H   1.45985678670397     -1.33655279988390     -1.09305059569110
  C   0.65165814639740      1.25175781093750      0.96453438370410
  N   0.83561242846761      2.01233973141628      1.83921254771609
