14
Coordinates from ORCA-job run
  C   -0.98683552862686      0.27517064604795     -0.17534114806585
  C   0.53178753704632      0.19996060848276     -0.36579114658039
  F   -1.25554133938494      0.86455523443669      1.04461681783760
  H   0.71898740475781     -0.34607884123615     -1.29946109098524
  H   -1.43061802902650      0.94094729910042     -0.92852104682845
  N   -1.54445407666211     -1.05058758331599     -0.13593339931879
  H   -1.43145129508490     -1.50441790945815     -1.03445690515027
  H   -2.53585103250439     -0.98822865512599      0.06319338773117
  C   1.22184594417428     -0.51632964985976      0.79787578672008
  H   2.29523157355992     -0.58781787293972      0.61589832320655
  H   0.80402004735926     -1.51563112382239      0.91069736372359
  H   1.05976834768309      0.03583647392454      1.72312251247914
  C   1.06362607400353      1.55357083584369     -0.54242506656383
  N   1.48948437270548      2.63905053792210     -0.67547438820532
