14
Coordinates from ORCA-job run
  C   -1.02175028242808      0.29153679149400     -0.17367479966600
  C   0.48289694887941      0.29563756228589     -0.45380250920147
  F   -1.20910031748919      0.83202345557059      1.11157736581432
  H   0.61085780517913     -0.04523977837222     -1.48653223217748
  H   -1.53610631645195      0.96699903951480     -0.86119725977551
  N   -1.56706441631374     -1.00917537831479     -0.30159704376869
  H   -2.57675091600622     -0.97877495165706     -0.24962058825308
  H   -1.22786974354926     -1.61767047221404      0.43220675809916
  C   1.26472509939537     -0.62182035156949      0.49132448945642
  H   1.05664507564160     -0.36075791178522      1.52933093048773
  H   2.33656904654753     -0.52058068636880      0.31793666397525
  H   0.99774526485681     -1.66548242095120      0.31689702720105
  C   0.98703996612785      1.66875655675288     -0.36927128576280
  N   1.40216278561074      2.76454854561465     -0.30457751642889
