15

C	-0.556107	-0.004212	-1.412278
C	0.0	0.0	0.0
F	-0.162587	1.175378	-2.056836
H	1.098477	0.0	0.0
H	-0.382762	0.911931	0.480921
C	-0.005764	-1.13313	-2.191887
N	0.370123	-2.028714	-2.851171
C	-2.073527	-0.056685	-1.46896
H	-2.420095	-0.962249	-0.969198
H	-2.424621	-0.0452	-2.503861
H	-2.46842	0.82172	-0.948735
N	-0.442436	-1.23372	0.679871
H	-1.020816	-1.018002	1.48253
H	0.406021	-1.669118	1.023138
F	2.666863	0.0	0.0
