15

C	-0.549334	-0.039812	-1.413789
C	0.0	0.0	0.0
F	-0.198363	1.150269	-2.065847
H	1.094101	0.0	0.0
H	-0.38985	0.917515	0.461567
C	0.050609	-1.1522	-2.180943
N	0.44219	-2.044408	-2.835329
C	-2.062842	-0.155303	-1.481516
H	-2.406419	-0.161296	-2.518883
H	-2.37438	-1.072361	-0.98198
H	-2.497779	0.706685	-0.967711
N	-0.432561	-1.223934	0.703591
H	-1.009922	-0.997699	1.502376
H	0.417933	-1.648705	1.055647
F	2.666136	0.0	0.0
