15

C	-0.239851	-0.070671	-1.498555
C	0.0	0.0	0.0
F	-1.586918	-0.401332	-1.810976
H	1.093862	0.0	0.0
H	-0.365021	-0.944653	0.42118
C	-0.031423	1.259899	-2.107308
N	0.094472	2.319365	-2.598969
C	0.707219	-1.088171	-2.104304
H	0.666326	-1.087499	-3.195895
H	0.429047	-2.07837	-1.732956
H	1.705319	-0.837496	-1.717681
N	-0.573946	1.137662	0.702874
H	-1.464965	1.399967	0.299734
H	0.057274	1.921149	0.602741
F	2.715486	0.0	0.0
