15

C	-0.239577	-0.113412	-1.506045
C	0.0	0.0	0.0
F	-1.557648	-0.562577	-1.799298
H	1.093793	0.0	0.0
H	-0.458066	0.907482	0.402575
C	-0.135542	1.2162	-2.135208
N	-0.073982	2.279286	-2.630407
C	0.771309	-1.068764	-2.112575
H	1.752151	-0.766867	-1.714599
H	0.734558	-1.062761	-3.202245
H	0.55056	-2.078037	-1.753319
N	-0.437415	-1.186157	0.734101
H	0.339403	-1.833673	0.768918
H	-1.216526	-1.633334	0.26787
F	2.717922	0.0	0.0
