15

C	-0.428884	-0.095289	-1.460023
C	0.0	0.0	0.0
F	0.021709	1.041608	-2.145443
H	1.093661	0.0	0.0
H	-0.383029	-0.889055	0.51818
C	0.208371	-1.271409	-2.085926
N	0.682531	-2.222502	-2.585676
C	-1.930678	-0.165191	-1.706695
H	-2.34643	-1.067894	-1.254874
H	-2.140226	-0.169649	-2.779046
H	-2.416387	0.709203	-1.266835
N	-0.431335	1.227933	0.666618
H	0.291291	1.915562	0.487751
H	-1.305049	1.591633	0.302754
F	2.655424	0.0	0.0
