11

C	-0.474912	-0.012529	-1.45596
C	0.0	0.0	0.0
Br	0.068985	1.646292	-2.348722
H	1.092627	0.0	0.0
H	-1.566056	-0.028843	-1.553468
H	-0.354324	0.917322	0.477378
C	0.073569	-1.142332	-2.202753
N	0.480677	-2.051857	-2.825033
C	-0.557305	-1.143857	0.695099
N	-1.011369	-2.073294	1.255227
F	2.528094	0.0	0.0
