11

C	-0.473499	-0.015261	-1.451129
C	0.0	0.0	0.0
Br	0.073575	1.64477	-2.343623
H	1.092579	0.0	0.0
H	-1.562415	-0.023641	-1.552139
H	-0.353828	0.918283	0.479147
C	0.063612	-1.144718	-2.203627
N	0.481722	-2.039421	-2.838466
C	-0.554274	-1.145936	0.697636
N	-1.010438	-2.07462	1.257689
F	2.526581	0.0	0.0
