16

C	0.0	0.0	0.0
C	-0.475904	0.13359	-1.459237
F	1.41458	0.0	0.0
H	-1.570198	0.177659	-1.381092
N	-0.52674	1.040655	0.78918
H	-0.306591	0.856364	1.762438
H	-1.567157	0.877537	0.63409
C	-0.344945	-1.379658	0.455039
N	-0.510387	-2.472986	0.851887
N	-0.008327	-0.891924	-2.347132
H	0.953124	-1.129169	-2.132602
H	-0.589727	-1.711415	-2.228988
N	0.024123	1.452402	-1.974567
O	1.186995	1.494257	-2.375676
O	-0.755848	2.401282	-1.973044
F	-2.729104	0.0	0.0
