16

C	0.0	0.0	0.0
C	-0.483584	0.07711	-1.459227
F	1.407827	0.0	0.0
H	-1.577925	0.122976	-1.376574
N	-0.521265	1.07397	0.749837
H	-0.295492	0.931753	1.729194
H	-1.559998	0.912413	0.608591
C	-0.343516	-1.360477	0.515437
N	-0.497305	-2.437536	0.958864
N	-0.017002	-0.980196	-2.310286
H	0.944111	-1.210433	-2.088749
H	-0.599857	-1.79388	-2.163944
N	0.012733	1.376384	-2.028214
O	1.178369	1.406205	-2.422322
O	-0.771018	2.320602	-2.074694
F	-2.730361	0.0	0.0
