16

C	0.0	0.0	0.0
C	-0.487173	-0.061976	-1.4473
F	1.404116	0.0	0.0
H	-1.584546	-0.095577	-1.354586
N	-0.522427	1.144074	0.644901
H	-1.560435	0.968429	0.515557
H	-0.30774	1.076638	1.634291
C	-0.354172	-1.288577	0.666318
N	-0.534057	-2.260763	1.300575
N	0.104878	-1.161999	-2.125187
H	-0.327922	-1.296934	-3.028149
H	1.095159	-0.993457	-2.247492
N	-0.12304	1.271882	-2.096482
O	1.010802	1.37298	-2.575133
O	-0.974131	2.1538	-2.125878
F	-2.738735	0.0	0.0
