16

C	0.0	0.0	0.0
C	-0.485916	-0.047455	-1.459436
F	1.405668	0.0	0.0
H	-1.57771	0.032375	-1.378546
N	-0.509036	1.14311	0.654691
H	-1.546714	0.978849	0.540102
H	-0.275354	1.085003	1.640735
C	-0.353266	-1.301629	0.6398
N	-0.467684	-2.328812	1.199072
N	-0.055026	-1.194267	-2.205645
H	-0.660541	-1.970842	-1.977009
H	0.900225	-1.429474	-1.965833
N	0.041198	1.178436	-2.148721
O	1.194714	1.131816	-2.573628
O	-0.709854	2.143953	-2.253913
F	-2.721037	0.0	0.0
