16

C	0.0	0.0	0.0
C	-0.337004	0.11853	-1.533852
F	1.369213	0.0	0.0
H	0.57325	0.542385	-1.96798
N	-0.530506	1.109068	0.712988
H	-0.327036	0.963185	1.697766
H	-1.558788	0.978615	0.585761
C	-0.401928	-1.310235	0.585308
N	-0.63962	-2.314377	1.146613
N	-1.477869	0.827936	-1.892503
H	-1.624728	0.770255	-2.890315
H	-2.284986	0.483568	-1.313514
N	-0.276415	-1.335593	-2.11709
O	0.789525	-1.938108	-1.987116
O	-1.260738	-1.76278	-2.712688
F	-2.856925	0.0	0.0
