16

C	0.0	0.0	0.0
C	-0.353442	0.384737	-1.482827
F	1.376208	0.0	0.0
H	0.579393	0.80636	-1.870524
N	-0.507842	0.974811	0.902529
H	-1.53651	0.867348	0.769989
H	-0.28922	0.655951	1.842528
C	-0.391481	-1.384727	0.383603
N	-0.597798	-2.451117	0.832039
N	-1.435113	1.243124	-1.674911
H	-1.60359	1.370157	-2.66263
H	-2.251332	0.823435	-1.16715
N	-0.428718	-0.93805	-2.31615
O	-1.366868	-1.074629	-3.095309
O	0.514865	-1.720014	-2.203348
F	-2.805844	0.0	0.0
