16

C	0.0	0.0	0.0
C	-0.50226	-0.377511	-1.447727
F	1.399058	0.0	0.0
H	-0.938647	0.530328	-1.860926
N	-0.525067	1.263722	0.359508
H	-0.316033	1.440026	1.337811
H	-1.556383	1.073511	0.276417
C	-0.335431	-1.105682	0.943804
N	-0.514584	-1.972433	1.715992
N	-1.406922	-1.468758	-1.603602
H	-1.007563	-2.293901	-1.169282
H	-2.215524	-1.140812	-1.037362
N	0.728664	-0.652675	-2.268117
O	1.178236	0.260841	-2.95728
O	1.213184	-1.778312	-2.183426
F	-2.774581	0.0	0.0
