13
Coordinates from ORCA-job run
  C   0.66701164232682     -0.57710163664275     -0.47096456352299
  C   -0.55521176654747      0.34917635521877     -0.52269157597281
  F   1.54752266219558     -0.07004513219447     -1.43719195682786
  H   -0.96469806820826      0.35493231282696     -1.53464858808309
  H   0.37350960706198     -1.57381283580488     -0.80038822188150
  N   1.19182921398393     -0.62811125148166      0.82868082542535
  H   1.55836492778878      0.26366639643995      1.13772247827062
  H   1.89249226753059     -1.34763844776923      0.93370959239277
  C   -0.21596810220512      1.69780851936153     -0.09091129680701
  N   0.11520925970822      2.77324893772866      0.24327046856611
  N   -1.61883582485627     -0.25354973167267      0.36418050736910
  O   -1.93584910139938      0.33854594312720      1.38527639263041
  O   -2.05637671737941     -1.32711942913741     -0.03504406155910
