13
Coordinates from ORCA-job run
  C   0.66037966193434     -0.51743972504463      0.27213557556554
  C   -0.51128706763457      0.26785331805471     -0.31681802284816
  F   0.37595018132979     -1.86252189329573     -0.00258191646544
  H   -0.56037619702697      0.12179882714804     -1.39819440061112
  H   0.66885016294731     -0.41108525689957      1.35729994847064
  N   1.86885461057336     -0.06251544345152     -0.28150831775787
  H   1.93408451044796     -0.26167099915358     -1.27110658622773
  H   2.67439796733873     -0.43887932667877      0.19774356827611
  C   -0.43346853149740      1.68108254582929      0.02484236066404
  N   -0.37758546579871      2.82091300409599      0.29981040007215
  N   -1.79483535498232     -0.30542358531716      0.23717485678755
  O   -2.59358402199228     -0.75409368832613     -0.57497565104799
  O   -1.91138045563925     -0.27901777696095      1.45617818512228
