13
Coordinates from ORCA-job run
  C   0.60875038676088     -0.63077919907008      0.09648441375634
  C   -0.44605631616375      0.42645153343069     -0.22900225029381
  F   0.42194184311378     -1.64157386191086     -0.85686523956540
  H   -0.27701720670383      0.83642462053282     -1.22720680055973
  H   0.40083769625080     -1.07258448527225      1.07151044812141
  N   1.88938672654135     -0.05282078144703      0.07498389009113
  H   2.15366217678040      0.25234260016788     -0.85271099149795
  H   2.59470947153335     -0.67461799589784      0.44416972435500
  C   -0.47857738123188      1.47794742793709      0.77761246374832
  N   -0.51213894584401      2.32830499677230      1.58610876571083
  N   -1.79632727529948     -0.24973448533718     -0.28266712794419
  O   -2.40556615676571     -0.18020636281810     -1.34233980316918
  O   -2.15160501897191     -0.81915400708744      0.74192250724723
