13
Coordinates from ORCA-job run
  C   0.93877078927095      0.02321072254055     -0.07918329875074
  C   -0.53241742966884      0.11408309120572     -0.52004391506109
  F   1.07019951365034      0.93510567034171      0.98049864719946
  H   -0.77249866284144     -0.74207084148599     -1.15437333584458
  H   1.56952458121440      0.40505972494980     -0.88451055797337
  N   1.31799495841547     -1.29241291912047      0.23608117896651
  H   2.30213080722324     -1.34478587861662      0.45989544865187
  H   0.76303658121570     -1.67647284604319      0.98905072761444
  C   -0.80335221217301      1.36723682559560     -1.21096386283725
  N   -0.96869430473496      2.35643943499034     -1.82056791402894
  N   -1.42059135330291     -0.00711771133180      0.70240744344615
  O   -2.10741234111392      0.95065161766207      1.02237919254599
  O   -1.35769092715501     -1.08892689068774      1.27933024607156
