13
Coordinates from ORCA-job run
  C   0.96379304595575     -0.04866880168903     -0.14957714034472
  C   -0.53560302625011      0.19767805289604     -0.43146670752059
  F   1.33361219576406      0.99057087707710      0.70976336455853
  H   -0.93028196375891     -0.62644642473358     -1.02866702817387
  H   1.51278342409664      0.11330016699925     -1.08057208552494
  N   1.24931601210474     -1.30373839127206      0.38080713358526
  H   0.53142377426403     -1.78758034811641      0.89036572787370
  H   1.91311767239147     -1.87609103509308     -0.10440101936025
  C   -0.75712399194459      1.47369144617012     -1.09603366323359
  N   -0.90366114000193      2.47093656575174     -1.69739283661018
  N   -1.28664577815247      0.15638962767207      0.88015345087735
  O   -1.64215666068768      1.21139690227025      1.38206884895120
  O   -1.44857356378100     -0.97043863793241      1.34595195492212
