13
Coordinates from ORCA-job run
  C   0.66903560442535     -0.56965132426048     -0.47825303213154
  C   -0.56162670337659      0.34594717017819     -0.51947751924433
  F   1.53870578471146     -0.05092051540294     -1.44872463535728
  H   -0.97857533217391      0.34854991824294     -1.52837578843134
  H   0.38293796016460     -1.56774038569136     -0.81009376848130
  N   1.20237108500347     -0.62073183520703      0.81749354963214
  H   1.91310505371324     -1.33145228829666      0.91504163724968
  H   1.55758541326971      0.27410375552787      1.13067688668979
  C   -0.23086720414342      1.69686150380637     -0.08857092950041
  N   0.08892956482867      2.77171737263459      0.25843637272061
  N   -1.61341257408458     -0.26745686501177      0.37426410471468
  O   -1.92251088309867      0.31589698041662      1.40270612193558
  O   -2.04567776923933     -1.34312348693633     -0.02512299979630
