13
Coordinates from ORCA-job run
  C   0.76887484875413     -0.47712626348632     -0.42266719248045
  C   -0.56925240586772      0.26038506137540     -0.56216166887212
  F   1.61708170396713      0.12507808690149     -1.33154699674880
  H   -0.97945864380519      0.14329197600886     -1.57088079843210
  H   0.64187033771389     -1.51970726926895     -0.72187819558598
  N   1.28343719778634     -0.31124981114305      0.90464752940746
  H   1.26084099279376     -1.18009531736654      1.41866225626004
  H   2.23175088022086      0.03661027706966      0.86305575565610
  C   -0.42548405669541      1.67513041071079     -0.24799213240709
  N   -0.27585003806018      2.81888279022213     -0.03301120460255
  N   -1.59459271232138     -0.36272769178342      0.36090858567909
  O   -2.60614988540278      0.28747687219255      0.57932745563273
  O   -1.35206821908349     -1.49594912143261      0.76553660649364
