13
Coordinates from ORCA-job run
  C   0.95582298215728      0.04317431666298     -0.19173598082959
  C   -0.56994590431530      0.01823581213785     -0.43470763382770
  F   1.19769888973395      1.29462313320076      0.38489261675624
  H   -0.86030137095680     -0.96694242544724     -0.80443113205800
  H   1.45244453433134      0.05410885633054     -1.16519712132199
  N   1.42701686395828     -1.00566378774364      0.59122412608038
  H   0.80234826841206     -1.44633768228892      1.24241469077889
  H   2.16601914425463     -1.57317728656611      0.22387083997616
  C   -0.98613809364775      1.06390664469675     -1.35790390950336
  N   -1.28786543672254      1.86967207977598     -2.15620475089417
  N   -1.27342856589559      0.18655845763366      0.89334322896951
  O   -1.26213108194933     -0.81124267480938      1.61251856972101
  O   -1.76254022936017      1.27308455641685      1.16091645615264
