13
Coordinates from ORCA-job run
  C   0.59131670738109     -0.63914789778430     -0.14274397921164
  C   -0.44545490054550      0.48051859962689     -0.05693344446559
  F   0.30267525674797     -1.31605221409462     -1.33614103178973
  H   -0.33244458058163      1.16734903925181     -0.89872905796661
  H   0.43660951127042     -1.34986142920955      0.66962801090599
  N   1.88691022855639     -0.09778865585591     -0.09026529938658
  H   2.59394652347139     -0.81071879598903      0.02020604108464
  H   2.09598010048178      0.46871587282526     -0.90201475841578
  C   -0.36989586062842      1.18482425138764      1.21516658916922
  N   -0.32003709631257      1.75700122483085      2.23888790400186
  N   -1.81946242792237     -0.13075620514927     -0.20323209742812
  O   -2.12107791501844     -0.97698774141705      0.62937623952969
  O   -2.50006554690007      0.26190395157730     -1.14220511602735
