13
Coordinates from ORCA-job run
  C   0.57107949408934     -0.66168274923480     -0.11484777880354
  C   -0.42403269417320      0.49791295701352     -0.07845964308525
  F   0.30681764879887     -1.33478217481634     -1.31599058634375
  H   -0.24873466414924      1.17473558869031     -0.91767688083900
  H   0.35459264967111     -1.36037701014857      0.69384068063144
  N   1.88346497176950     -0.17067419344800     -0.01030214532026
  H   2.14865562504774      0.38129958913239     -0.81564325531534
  H   2.55675749211293     -0.90970722678332      0.13417719114703
  C   -0.37440508564440      1.20559975859910      1.19305419706552
  N   -0.34266026709468      1.77481656356699      2.21914379902607
  N   -1.81336306717312     -0.06063595690882     -0.28039016630776
  O   -2.43697479057874      0.35067966291518     -1.25037331852257
  O   -2.18319731267610     -0.88818480857762      0.54346790666742
