13
Coordinates from ORCA-job run
  C   0.74530453063221     -0.52459123715721     -0.55001736880040
  C   -0.52459458293749      0.35876283347592     -0.55351680030531
  F   1.54950252376987      0.05039589017285     -1.52750498073660
  H   -0.98983797383729      0.33820824225925     -1.54036282390676
  H   0.47099597060009     -1.52367571589008     -0.89332269756623
  N   1.40367212691995     -0.59723753304353      0.68244745892893
  H   1.29933641484776     -1.45925337348596      1.18742547060950
  H   1.36304804860749      0.22138608149868      1.26927667258144
  C   -0.22422315317130      1.72174460796445     -0.14245137994761
  N   0.05897035091616      2.81227957968172      0.18732920666172
  N   -1.49745111665463     -0.28646890686745      0.39643387183554
  O   -2.02011751170463     -1.31305198414545     -0.02717938310923
  O   -1.63660562798813      0.20150151553679      1.51144275375500
