13
Coordinates from ORCA-job run
  C   0.60194023864934     -0.64989258807759     -0.00057200147802
  C   -0.50469837596496      0.35989088074111     -0.31812900246270
  F   0.44653563372360     -1.69739069807933     -0.87879814902497
  H   -0.44265797962970      0.62638790695139     -1.37365577951935
  H   0.45140992383838     -1.05580320186321      1.00701424932835
  N   1.87161865365311     -0.03748906922892     -0.26456061049959
  H   2.58578013495181     -0.75614602951200     -0.27154403245858
  H   2.10408102663592      0.63326845268828      0.45868778656910
  C   -0.39494866267837      1.52868954829246      0.54256902772929
  N   -0.24448111732794      2.46042908696125      1.24110661910890
  N   -1.84028351578900     -0.30349339859185     -0.09988459341322
  O   -2.56660718196210     -0.41320202574287     -1.07978994392115
  O   -2.06768877810007     -0.69524886453872      1.03955643004195
