13
Coordinates from ORCA-job run
  C   0.93860684841083      0.01606369868770     -0.07994879042937
  C   -0.53223177134141      0.09076862470665     -0.52460423872662
  F   1.07321357681414      0.97782878556482      0.93422210775738
  H   -0.77559766387879     -0.79332089310598     -1.11810042858916
  H   1.57011068322472      0.35654328343391     -0.90305714415640
  N   1.31414284243200     -1.28392237831582      0.29821659890134
  H   0.75877109125683     -1.62974239559971      1.06921739363502
  H   2.29846915820386     -1.32801864848060      0.52321447352493
  C   -0.79848442543539      1.31079759736972     -1.27428593254860
  N   -0.95833035481657      2.26954289760960     -1.93211674492256
  N   -1.42151775273351      0.03057171513375      0.70153701031727
  O   -1.35554853156923     -1.01918980040182      1.33451382272313
  O   -2.11060370056748      1.00207751339779      0.97119187251369
