13
Coordinates from ORCA-job run
  C   0.63764157432794     -0.70340295045276     -0.09856799412149
  C   -0.44459997645587      0.38147929549552     -0.23532363018190
  F   0.47413861800050     -1.49188089113830     -1.22711214350078
  H   -0.29502756153756      0.93794058819150     -1.16338582825501
  H   0.41959557538625     -1.31927442408484      0.77558175201054
  N   1.95214492263715     -0.20157623540905     -0.02811159113143
  H   2.12930180224223      0.62359737311208     -0.58087365163660
  H   2.30835255848849     -0.10965193393215      0.90902088471411
  C   -0.43718743764630      1.26115099495506      0.92479085019363
  N   -0.39251227465329      1.95167908800528      1.87334568601137
  N   -1.79654168765562     -0.27816821032261     -0.35450426607454
  O   -2.13057792541368     -0.98601472913638      0.58879421269496
  O   -2.42572818772023     -0.06787796528334     -1.38365428072283
