13
Coordinates from ORCA-job run
  C   0.65947908871539     -0.55334181127129     -0.51024490405869
  C   -0.57819881114004      0.35293031550421     -0.49102122683792
  F   1.49499720571471     -0.00449757293752     -1.49397004606356
  H   -1.02467643058233      0.38044824531502     -1.48688979757283
  H   0.37065688062376     -1.54560306787338     -0.85679515934033
  N   1.23324305780184     -0.63102691710941      0.76711167991505
  H   1.95079034783904     -1.33928547017988      0.82522685940140
  H   1.59416220627088      0.25866050446389      1.08847980641060
  C   -0.24567738877026      1.69531124491944     -0.03485503276658
  N   0.06724702391388      2.77287459034206      0.30994450723363
  N   -1.59941330608672     -0.29174045274574      0.41579767071271
  O   -1.88889866512483      0.26654722318439      1.46381205497650
  O   -2.03371120917532     -1.36127683161179      0.00240358799000
