13
Coordinates from ORCA-job run
  C   0.65408925145384     -0.68260897568289      0.12423668149346
  C   -0.50776470161750      0.23413373476468     -0.29224280002936
  F   0.32332122525846     -1.91783905030659     -0.41372684357757
  H   -0.58359566831886      0.26354390456567     -1.38165506475386
  H   0.66139601402400     -0.78327919434935      1.21080552523350
  N   1.91349642552607     -0.25522018812752     -0.33714145176024
  H   1.91674137170695      0.20964995798462     -1.23206974883083
  H   2.46300259041250      0.23677371537306      0.34738980030542
  C   -0.33644127531595      1.56719787802528      0.26774739110733
  N   -0.16345638486882      2.63223631888462      0.73068046338283
  N   -1.80623219021650     -0.35368381725069      0.20396687093819
  O   -2.63670009862701     -0.65431257083953     -0.64379525329901
  O   -1.89785655941724     -0.49659171304137      1.41780442979014
