13
Coordinates from ORCA-job run
  C   0.74968664077034     -0.51352156886088     -0.55446929591111
  C   -0.53235907672813      0.35211280997408     -0.55005166345902
  F   1.54034480889827      0.07356349313259     -1.53575713231788
  H   -1.00247173939608      0.32588735378752     -1.53448239682588
  H   0.48724248527164     -1.51589491688623     -0.89749718873523
  N   1.41556025962839     -0.57836605680820      0.67426408793717
  H   1.36727080049319      0.23881040108098      1.26249188705107
  H   1.32679644179119     -1.44249963998088      1.17856599409405
  C   -0.24875499430935      1.71878515629823     -0.13959765907419
  N   0.02136404637851      2.81242866001114      0.19086543626094
  N   -1.49118027327230     -0.30748928260211      0.40429693461944
  O   -1.63065714891011      0.17715348263113      1.52066635935400
  O   -2.00284225061558     -1.33996989177741     -0.01829536299340
