13
Coordinates from ORCA-job run
  C   0.61710823857239     -0.71442550370085      0.13761448416210
  C   -0.46777243194263      0.27419420827313     -0.32307326127372
  F   0.31990429705027     -1.88706298104093     -0.53921672252987
  H   -0.42199430065977      0.39580404101173     -1.40774479554807
  H   0.49962038242841     -0.90415113933293      1.20591268611394
  N   1.93359193675479     -0.29781658384686     -0.14260029388082
  H   2.39655989335493      0.15183021600772      0.63011582361379
  H   2.04920980512726      0.21834285033851     -1.00173594900509
  C   -0.32271773802506      1.55026534309854      0.36301191753612
  N   -0.15237551733185      2.57263651756861      0.91463970535752
  N   -1.82736139771255     -0.30631971064443     -0.02091273728243
  O   -2.05795868249417     -0.53733942522924      1.16063253433133
  O   -2.56481448512204     -0.51495783250295     -0.97564339159486
