13
Coordinates from ORCA-job run
  C   0.62767615046800     -0.60672043722150      0.12391231338293
  C   -0.47531420449998      0.38625894150358     -0.24127511079530
  F   0.36712546492776     -1.74634859366486     -0.64970909654067
  H   -0.41569396233720      0.64777639397977     -1.30013322882928
  H   0.52740753129853     -0.90330207785190      1.16843329982063
  N   1.88805589664282     -0.03096802676197     -0.11099038505019
  H   2.05059555172262      0.13768678838200     -1.09532457896801
  H   2.63866454488794     -0.59109488927523      0.26766952836581
  C   -0.42750692320466      1.57311573526920      0.60082496248351
  N   -0.39609291773715      2.53154939748449      1.27777219609186
  N   -1.81027755771650     -0.29722746409380     -0.05895328658952
  O   -2.05010535681840     -0.71307613393060      1.06787265475241
  O   -2.52353421763376     -0.38664963381919     -1.05009926812420
