13
Coordinates from ORCA-job run
  C   0.71415637833869     -0.45956149847244     -0.52794156172387
  C   -0.60134603865683      0.32910488545818     -0.48350403705044
  F   1.51271184406510      0.21980680483352     -1.45903253515598
  H   -1.03259035848269      0.37403727147982     -1.48543432379833
  H   0.52225905271038     -1.45128972386927     -0.93759310298015
  N   1.27064334622174     -0.56236095590796      0.75528101135279
  H   2.04665583675310     -1.20767026403046      0.78847327455088
  H   1.54534480439732      0.33471689635229      1.13587061456833
  C   -0.39857560423055      1.66632877496406      0.05595289709401
  N   -0.17621324640423      2.73925299994285      0.47706020697555
  N   -1.57321494935276     -0.45709413318944      0.36374861774781
  O   -1.92657595501240      0.00925157174768      1.43679980521390
  O   -1.90325511034688     -1.53452262930882     -0.11968086679451
