13
Coordinates from ORCA-job run
  C   0.88654111234060     -0.14328647336083     -0.28524691249892
  C   -0.63555712303570      0.04837160721603     -0.40137575432139
  F   1.35690507685027      0.99121500249977      0.39531942561128
  H   -1.09871117607953     -0.90057951292934     -0.68056547541290
  H   1.32230183705168     -0.09615072617862     -1.28529585705930
  N   1.22292678665037     -1.36552802721589      0.32063926280506
  H   0.84618504023237     -1.44148957782542      1.25595079344425
  H   2.22399798432989     -1.50431173397727      0.33010365042785
  C   -0.96738421402383      1.09293726215344     -1.36049796773567
  N   -1.19659276766853      1.89375157811998     -2.18732447315595
  N   -1.19218602596741      0.40127111384215      0.96371526305931
  O   -1.07571962611751     -0.47991535977370      1.81054188739866
  O   -1.69270690456263      1.50371484742971      1.12303615743768
