13
Coordinates from ORCA-job run
  C   0.66721082579887     -0.57156623925086     -0.47725091058467
  C   -0.55924842190082      0.34960529895329     -0.51625794369611
  F   1.53955635546181     -0.05480567323408     -1.44591527277361
  H   -0.97395739307277      0.35968845401245     -1.52609075275053
  H   0.37607374099639     -1.56761565475278     -0.81085826537292
  N   1.20018506661137     -0.62827263444481      0.81868046698983
  H   1.56433852535391      0.26305693420257      1.13159805864641
  H   1.90412398160991     -1.34582838423402      0.91544391957948
  C   -0.22412527368024      1.69738740292051     -0.07881516285485
  N   0.10266602783780      2.77514631403034      0.25225916938342
  N   -1.61527647954631     -0.26320932576421      0.37245933622940
  O   -2.05305683858125     -1.33451456951432     -0.03261952193173
  O   -1.92849011688868      0.32092807707591      1.39936687913584
