13
Coordinates from ORCA-job run
  C   0.97356739914751     -0.04238173425551     -0.04979803411515
  C   -0.48676173226950      0.23383229310149     -0.47177470591699
  F   1.24491908241223      0.92377737585936      0.92507611131379
  H   -0.81156301995845     -0.53764875053909     -1.17242727038188
  H   1.62019526227013      0.19093993235810     -0.89941145683876
  N   1.20159715297382     -1.33755040673858      0.40315452360513
  H   0.43849263587977     -1.85851211692840      0.79636344721807
  H   1.93205470606202     -1.86798564019098     -0.03055929556545
  C   -0.63940480140436      1.56050581179337     -1.05109608368123
  N   -0.72670597056115      2.60685149311266     -1.57560760464009
  N   -1.37608674623798      0.09152582816668      0.74319896772863
  O   -1.78938442589834      1.10467924510451      1.28546730169313
  O   -1.58291954241570     -1.06803333084361      1.09741409958079
