13
Coordinates from ORCA-job run
  C   0.65115764241120     -0.69036817957263      0.08901623955566
  C   -0.50386908250835      0.25311283347776     -0.28392773389841
  F   0.32766990640520     -1.88733421433257     -0.53416915606066
  H   -0.56455286626149      0.35318843162654     -1.37004761566431
  H   0.64102477869585     -0.86311475903067      1.16639164474155
  N   1.91720050618799     -0.23480478221735     -0.32397971779705
  H   1.93356886986673      0.29880851982915     -1.17939653604189
  H   2.46199304150618      0.19795800820844      0.40289172606903
  C   -0.34128420568363      1.54691784972403      0.36386485646521
  N   -0.16550426551631      2.58317407630151      0.88728400679619
  N   -1.80991272632840     -0.36468588941049      0.15346457950564
  O   -1.91777979877710     -0.59116013642150      1.35304924948672
  O   -2.63071179999792     -0.60169175818221     -0.72344154315769
