13
Coordinates from ORCA-job run
  C   0.96617545330307     -0.04479409643567     -0.18566518290940
  C   -0.56230143977901      0.07629843830477     -0.41952804751623
  F   1.31846127978318      1.15568530167653      0.41799287026214
  H   -0.95114887120543     -0.88048099323713     -0.77403575407000
  H   1.45203347302675     -0.07023498264640     -1.16436161089872
  N   1.38479579949826     -1.13911211251542      0.58673197560143
  H   1.79734220980785     -1.89119458217370      0.06241591232090
  H   0.72651816988374     -1.45343456005297      1.28232179888613
  C   -0.88096526794757      1.14360680462244     -1.35659623503022
  N   -1.09762326541084      1.96064221630535     -2.17109137515337
  N   -1.23310242739445      0.33054160985009      0.91039133543478
  O   -1.27826293629673     -0.64493724281995      1.65815579820034
  O   -1.64192217726882      1.45541419912207      1.15326851487223
