13
Coordinates from ORCA-job run
  C   0.62197392957461     -0.69294324285903      0.20263358742253
  C   -0.49047968665013      0.22870500497212     -0.32574175190927
  F   0.26379047270061     -1.95393130402067     -0.24819115783793
  H   -0.53067966640938      0.17351307839284     -1.41602106365021
  H   0.59109974117025     -0.70495790839828      1.29346200629890
  N   1.91363544434204     -0.35223664473041     -0.24551922544193
  H   1.96200213189358      0.01736863198053     -1.18304197086622
  H   2.44170389944353      0.20609592343885      0.40488634878363
  C   -0.28385492435879      1.59519112223607      0.13231718974872
  N   -0.06744014380839      2.68832389878165      0.50215535157963
  N   -1.82531051942792     -0.27035903041683      0.17143399373109
  O   -2.63545273057991     -0.62132427859037     -0.67654125742289
  O   -1.95798794789018     -0.31344525078644      1.38916794956395
