13
Coordinates from ORCA-job run
  C   0.92531440747365     -0.12463024706683     -0.12856898203692
  C   -0.51912022899183      0.28297176168842     -0.46659809576443
  F   1.24734932902700      0.57540678100505      1.04558869117997
  H   -0.92594177818232     -0.40822617742716     -1.20803990385755
  H   1.58930393941885      0.26593316572737     -0.90230346681211
  N   1.07560551027905     -1.51823882071621     -0.03411819303182
  H   0.48165283661334     -1.91648248451010      0.68068770958872
  H   2.04101073536857     -1.77104044311186      0.12568394313589
  C   -0.58419579702678      1.65742310626279     -0.94420564901404
  N   -0.58639826090741      2.74435856140359     -1.38708707324752
  N   -1.37812078979919      0.12299986900314      0.77197514751387
  O   -1.87521435241853      1.12070176308894      1.27079184358449
  O   -1.49024555085440     -1.03117683534712      1.17519402876146
