13
Coordinates from ORCA-job run
  C   0.73611522501910     -0.50526191544367     -0.58323745788759
  C   -0.55242825153466      0.35237571976635     -0.53136034526534
  F   1.49434302023012      0.09893478423838     -1.57612777536577
  H   -1.05278996250027      0.33113559837461     -1.50090924186446
  H   0.46816858169157     -1.50597658400693     -0.92744883319335
  N   1.44707819731946     -0.58341642860649      0.62191671859251
  H   1.30994910587104     -1.42760357702046      1.15023671715705
  H   1.44229807417099      0.24659269109663      1.19529842334239
  C   -0.26362006810158      1.71640076338200     -0.11633026644031
  N   0.01732796886456      2.80608964506450      0.21819677903380
  N   -1.47514901363757     -0.32296388339475      0.44665922011249
  O   -1.99643172415227     -1.35301035159953      0.02955013873517
  O   -1.57686115324049      0.14670353814933      1.57355592304340
