13
Coordinates from ORCA-job run
  C   0.73373575047844     -0.52742512823354     -0.56241666366296
  C   -0.53051328766094      0.36369443137406     -0.54441848987592
  F   1.52681059935168      0.04560936183490     -1.55029004445504
  H   -1.01013716225688      0.34898443618657     -1.52447680784152
  H   0.44810294693177     -1.52365344032281     -0.90480182522344
  N   1.40927586371795     -0.60798939221448      0.65984593035379
  H   1.38331295784920      0.20835126719934      1.25054161411443
  H   1.31137741043623     -1.47202843008559      1.16248772498952
  C   -0.21584564143106      1.72355226124076     -0.13386104610708
  N   0.08066848331196      2.81089214261370      0.19476718204087
  N   -1.49350223482027     -0.27854342474637      0.41755337235681
  O   -1.61246692933916      0.20618374493318      1.53626487278981
  O   -2.02981875656894     -1.29962782977973     -0.00219581947928
