13
Coordinates from ORCA-job run
  C   0.63553340740824     -0.71079071834082     -0.03143789503866
  C   -0.46206065007651      0.34274480035157     -0.25957201192828
  F   0.41354593845423     -1.65501652457745     -1.02159929477221
  H   -0.36966883171546      0.76304272027346     -1.26366948659573
  H   0.47530240839983     -1.19269355878231      0.93455764114585
  N   1.94768761900738     -0.20372748851443     -0.11254700321834
  H   2.35624436235191      0.02557174224803      0.77863482454730
  H   2.08438419644452      0.53259302579132     -0.78865452421598
  C   -0.39617135952771      1.38014658730017      0.76003329778919
  N   -0.28795641369514      2.21315032343606      1.58036795601332
  N   -1.81209726223781     -0.32896726059546     -0.20577895717042
  O   -2.49544590225153     -0.28040529505041     -1.22041405193797
  O   -2.08929751256193     -0.88464835353971      0.85107950538193
