13
Coordinates from ORCA-job run
  C   0.95587151423774     -0.18342921767814     -0.15443856307260
  C   -0.51029071779733      0.25515463773356     -0.41442373760814
  F   1.45872715080046      0.78756098584694      0.69970339263802
  H   -1.03127782476765     -0.53135204703343     -0.96436384103442
  H   1.49943059113474     -0.10218644568346     -1.09925065861898
  N   1.13455947579412     -1.46652215143389      0.38928490745471
  H   0.39660132989168     -1.77246775503216      1.00470913190594
  H   1.39780964227617     -2.16762021642452     -0.28229680173663
  C   -0.57299540530046      1.51941916445154     -1.13297426293814
  N   -0.58291702628375      2.50329042534490     -1.77320387806776
  N   -1.21907793915255      0.37223405556471      0.91455815654911
  O   -1.46617538719328     -0.70149161967950      1.46123239440487
  O   -1.45926540363990      1.48641018402347      1.35346376012403
