13
Coordinates from ORCA-job run
  C   0.91230699319796     -0.14830799583010     -0.18528745172944
  C   -0.54144098860158      0.28831123075170     -0.43683935797495
  F   1.32458023735596      0.55847247391304      0.95564760767095
  H   -1.00975804788136     -0.40467652705745     -1.13932639643153
  H   1.53371240652085      0.21615375542126     -1.00580466951229
  N   1.03710226016866     -1.54388960574816     -0.08121297329263
  H   2.00515502986308     -1.81706872058761      0.01709308422401
  H   0.48419834849007     -1.91858390513866      0.67794394042204
  C   -0.60644872128497      1.65642138050311     -0.93199599102157
  N   -0.61475908627400      2.74063318496347     -1.38131443219542
  N   -1.32297602981716      0.16657340212125      0.85631702540624
  O   -1.76926418293293      1.18207020983512      1.36703762933778
  O   -1.43040821880459     -0.97810888314699      1.28674198509682
