13
Coordinates from ORCA-job run
  C   0.66544242592101     -0.55620018440451     -0.49899941019854
  C   -0.56581429727633      0.35930125140950     -0.50291714033381
  F   1.52535518037594     -0.01088973100758     -1.46314258746109
  H   -0.99137880058988      0.39147964747562     -1.50774362736963
  H   0.37612504098110     -1.54521079334810     -0.85445115831056
  N   1.21168882272595     -0.64239300382103      0.78975148761790
  H   1.57347713254591      0.24294590427736      1.12176087857405
  H   1.92034251577008     -1.35820367364381      0.86153213598893
  C   -0.23248244842436      1.69780004099777     -0.03636064324513
  N   0.08896435357945      2.76620509889281      0.32854909427253
  N   -1.60939821729427     -0.28004780402344      0.38169125141400
  O   -1.91409379775534      0.27657789195683      1.42628997770625
  O   -2.04922791055928     -1.34136464476144     -0.04696025865490
