13
Coordinates from ORCA-job run
  C   0.92877631255850      0.14127899619096      0.04698753338632
  C   -0.54797199090572      0.22519042714515     -0.35941139013377
  F   1.62682888854672      0.81149756973093     -0.97930891494236
  H   -0.58194308297971     -0.01823856435086     -1.42703809704833
  H   1.13162618177516      0.72251707758072      0.95025579516048
  N   1.33650399924673     -1.18928256610178      0.24175125687873
  H   1.06422458908052     -1.79578517561805     -0.51957523629816
  H   2.33109308007537     -1.25139199106051      0.41170484282226
  C   -0.99601392036412      1.62593765073576     -0.21509203879389
  N   -1.40348622157127      2.71650702862993     -0.06002722115584
  N   -1.36034805655476     -0.74272747902602      0.35911791271678
  H   -2.34360665424390     -0.56369878898248      0.19622589100550
  H   -1.18468312466350     -0.68280418487376      1.35440966640226
