13
Coordinates from ORCA-job run
  C   0.84474365049478      0.07004929059425      0.08346882715980
  C   -0.61770051034077      0.32298901050263     -0.30406121502019
  F   1.63906794291649      0.94038637385223     -0.67379566296249
  H   -0.71350733956074      0.07181632939267     -1.36848390812480
  H   1.00922036038376      0.32273058070113      1.13432599769042
  N   1.16500412991210     -1.29314375501421     -0.13508866340387
  H   2.07191921153357     -1.52589279228597      0.24689888233629
  H   1.16636471892985     -1.50138794070099     -1.12683635244663
  C   -0.92960471795755      1.74924372734843     -0.16133183913111
  N   -1.17754851654517      2.88465664442390     -0.00198012187676
  N   -1.58200948331043     -0.46788112123361      0.44569352123163
  H   -1.62014034631743     -0.14450323973407      1.40552898685842
  H   -1.25680910013848     -1.42806310784638      0.45466154768929
