13
Coordinates from ORCA-job run
  C   0.64170538540625     -0.51896673664040     -0.22290925748531
  C   -0.51259447110807      0.48555065982318     -0.13385670676890
  F   0.15730142545283     -1.75514173555044      0.19179338789122
  H   -0.16092403326920      1.43954248450612     -0.54567554960330
  H   0.89251926805405     -0.65943529665649     -1.28493857796724
  N   1.72534582326818     -0.15104360340160      0.61832981523941
  H   2.57866896991642     -0.63607006037033      0.38357836571540
  H   1.88644529957633      0.84486741997242      0.65082292906878
  C   -0.86739577580480      0.71503654042530      1.27483472491376
  N   -1.16327117302272      0.90492361846916      2.39397571387676
  N   -1.70441210403852      0.09319498425966     -0.86972592273684
  H   -1.96777062840419     -0.84491991798222     -0.59122166919295
  H   -1.50561798602655      0.08246164314565     -1.86300725295077
