13
Coordinates from ORCA-job run
  C   0.98321541729491      0.17554330301986      0.00461996042594
  C   -0.50736439666933      0.26393230109337     -0.33102739944055
  F   1.62825459940075      1.14342572883420     -0.75007802414558
  H   -0.57531445159506      0.05502684634577     -1.40282149726358
  H   1.16037579120557      0.46282145963006      1.05153645142966
  N   1.45307569616283     -1.11432742356899     -0.36231365142392
  H   0.74706686022551     -1.80353296632438     -0.13574257647740
  H   2.32077535194372     -1.34378636453613      0.10168986465317
  C   -1.00285798325866      1.62992583045358     -0.08890543776984
  N   -1.44729348359744      2.68765342670229      0.16107903494402
  N   -1.24054303660524     -0.77143016448321      0.38875810875908
  H   -2.16890257866973     -0.87785436422270     -0.00082765056840
  H   -1.34848778583784     -0.50839761294372      1.36203281687739
