13
Coordinates from ORCA-job run
  C   0.74601283415604     -0.51765799845000     -0.26087585891859
  C   -0.44305602686604      0.43512561951138     -0.20571367267177
  F   0.27213726229343     -1.78833407793278      0.06049163488466
  H   -0.09915471558325      1.42081002859049     -0.53897326597995
  H   1.07087751248144     -0.59318997921518     -1.30500924928761
  N   1.74849179908005     -0.15628012686111      0.67992873594587
  H   1.84301080421168      0.84088668280454      0.80235535123775
  H   2.64453848855997     -0.56685382189351      0.46203988314293
  C   -0.92569715114819      0.57417861494453      1.18500531063474
  N   -1.37791773684280      0.71477997877505      2.25947670240710
  N   -1.45201771743724     -0.03164952320521     -1.14266375550414
  H   -2.23826390396569      0.60586187143503     -1.15850437452338
  H   -1.78796144893938     -0.93767726850323     -0.83855744136761
