13
Coordinates from ORCA-job run
  C   0.92209408887087     -0.11755852491942     -0.49607804094982
  C   -0.50735895817342      0.43285632393086     -0.37746929813053
  F   0.85984746896316     -0.96467275555006     -1.61921656765800
  H   -0.77521267786053      0.88809397013329     -1.34135619730784
  H   1.62291837959172      0.67930819824251     -0.75437547243199
  N   1.34851895914519     -0.82639650229435      0.63854124121240
  H   0.58409881526021     -1.14258811505534      1.21718765218562
  H   2.08364514126040     -0.38090207832246      1.15973992668096
  C   -0.52990839672624      1.48110259732983      0.64744916346439
  N   -0.53447657792667      2.32712931729750      1.46055563256676
  N   -1.37633182184657     -0.66889805016932      0.02515859645054
  H   -1.37116881111445     -1.36185282850888     -0.71437873276529
  H   -2.32666560944367     -0.34562155211417      0.15424209668282
