13
Coordinates from ORCA-job run
  C   0.92797642109637     -0.16699981609767     -0.46945194725262
  C   -0.47132209620164      0.46150258266682     -0.38971891585482
  F   0.85266370563698     -1.00441112956186     -1.59946093381999
  H   -0.68570458327880      0.93374062909179     -1.35879944065826
  H   1.67924752803634      0.59062803120586     -0.70256699707610
  N   1.28013611495358     -0.90339701703209      0.67292807559972
  H   0.48253650595019     -1.17688334277087      1.22795435510115
  H   2.02408082448004     -0.50297328381890      1.21748016992636
  C   -0.46491553076159      1.50665235317658      0.63865420727723
  N   -0.44502087905651      2.34960037212039      1.45472633358013
  N   -1.41168495969584     -0.59116730538187     -0.01696833716706
  H   -2.34609055618954     -0.21570226333123      0.08414225882120
  H   -1.42290249496958     -1.28158981026696     -0.75891882847694
