13
Coordinates from ORCA-job run
  C   0.96757122069359      0.02664181492295     -0.32242044514902
  C   -0.49570741361436      0.46854273094911     -0.37178365798191
  F   1.10168040603365     -0.85472900411158     -1.43243736816940
  H   -0.66308020590697      0.92947904997450     -1.35544317343540
  H   1.64382352698540      0.85754680572662     -0.53175291028914
  N   1.26703782252370     -0.56825918385817      0.90800935451981
  H   0.58918430297595     -1.28208198557649      1.13903200847476
  H   2.21182020629574     -0.92035705598231      0.95306361405317
  C   -0.75180643303172      1.48738512689288      0.64964289185318
  N   -0.98826436562961      2.32413379638601      1.43718869015468
  N   -1.32880796834149     -0.70844133749402     -0.12572444608894
  H   -1.25496051424989     -1.32071457010372     -0.92949495896851
  H   -2.29849058473398     -0.43914618772578     -0.01787959897328
