13
Coordinates from ORCA-job run
  C   0.72039723809899     -0.55513805254934     -0.12565146440413
  C   -0.50981552611633      0.35420520120672     -0.12068293757600
  F   0.40663196450528     -1.75439249743124      0.46386602207084
  H   -0.17030248566457      1.36748641844732     -0.39290791416252
  H   0.97727103716615     -0.79087928365543     -1.17012458916496
  N   1.76959662705387      0.04019416416347      0.65353551611403
  H   2.10063705050530      0.89486330276940      0.22449587972448
  H   2.54635389099180     -0.60486759166621      0.72761269847088
  C   -1.04918265262838      0.43657919072653      1.23985142603347
  N   -1.53282522940621      0.52924209954428      2.30427380542085
  N   -1.52509337055586     -0.18469655158828     -1.02154185687633
  H   -2.43363129687774      0.20453155930663     -0.80531233449694
  H   -1.30003724707229      0.06287204072614     -1.97741425115366
