13
Coordinates from ORCA-job run
  C   0.92497554204606      0.17458408770875     -0.00129497955730
  C   -0.55673077088083      0.30811604487888     -0.34328700505698
  F   1.65572001681632      0.81691289126644     -0.97840284916185
  H   -0.65107732714260      0.03555051723325     -1.40367119857637
  H   1.13679665248029      0.67769005575940      0.95055622391375
  N   1.27832492863402     -1.22579337221988     -0.03452500293391
  H   2.27268361999159     -1.29860616090574     -0.21443417402573
  H   1.09619184464347     -1.63224417312979      0.87508867498031
  C   -0.99058686265990      1.69819327192717     -0.18324107909655
  N   -1.34270369869779      2.80872577435312     -0.04335265392854
  N   -1.29891798160560     -0.56400086510449      0.56803444766167
  H   -1.25153871323141     -1.50674029846726      0.20060031211663
  H   -2.27313725039364     -0.29238777329984      0.60892928366485
