13
Coordinates from ORCA-job run
  C   0.90172335089673     -0.09630884197118     -0.44697642147108
  C   -0.51841291624084      0.47810241604733     -0.50485849730049
  F   1.09640273398681     -0.90750887699893     -1.53772087781340
  H   -0.60870960290293      1.04441857229830     -1.43749030177182
  H   1.63158004444617      0.72125437694831     -0.52862491644133
  N   1.04180823044831     -0.91714821201366      0.73205779653310
  H   1.86447418047114     -1.49881032788010      0.62928291405490
  H   1.16604972364372     -0.33426665680389      1.55189869538375
  C   -0.64399172536662      1.42783748064140      0.62474838348379
  N   -0.74537092284722      2.14175048976130      1.55249225881338
  N   -1.48264297838591     -0.60091308188154     -0.50110811705687
  H   -1.27902913485469     -1.21478796253955      0.27837108929550
  H   -2.42488098329469     -0.24361937560778     -0.41407200570941
