13
Coordinates from ORCA-job run
  C   0.80892384433477     -0.05241742948574     -0.45874697852611
  C   -0.61213222030773      0.52886849807567     -0.37796153101007
  F   0.83621297187967     -0.90369684329165     -1.54967784035276
  H   -0.78451691058494      1.10750745378758     -1.29147582729504
  H   1.54222263759089      0.73883117051244     -0.66933308710144
  N   1.07751047176492     -0.84776931404207      0.70822105474075
  H   1.94213518108411     -1.35841450967935      0.57646983839540
  H   1.18135456409790     -0.25307699035697      1.52254510909288
  C   -0.65037007559073      1.45576582768715      0.76222742153967
  N   -0.60452894071103      2.16777431883556      1.69413306370150
  N   -1.65820956377254     -0.47027092454420     -0.25731157136722
  H   -1.38240454256108     -1.12475152425652      0.46740057992896
  H   -1.69719741722421     -0.98934973324190     -1.12649023174651
