13
Coordinates from ORCA-job run
  C   0.97731384187074      0.10622566407197      0.17503430527330
  C   -0.43944924988265      0.34787988766598     -0.35062887302948
  F   1.77030658808998      1.13714768931225     -0.30617462082526
  H   -0.35161082806505      0.32080254707441     -1.44065116005295
  H   1.00655670492952      0.20965246527482      1.26959751067704
  N   1.44196524196093     -1.13659221129092     -0.33292619728736
  H   2.21959956286454     -1.49451955390778      0.20378359497070
  H   0.68179384019357     -1.80503397029540     -0.32993352061017
  C   -0.90753455154332      1.68637617405491      0.04892724614641
  N   -1.33975086429423      2.71635869608854      0.41088829451472
  N   -1.31747002157319     -0.73893915156989      0.06870376447366
  H   -1.56293770382861     -0.63059168209317      1.04648284769513
  H   -2.17778256072224     -0.71976655438573     -0.46410319194575
