13
Coordinates from ORCA-job run
  C   1.01418165300224      0.14670756879993     -0.10008668974023
  C   -0.51382283891596      0.17870592914701     -0.28497729146578
  F   1.55443757290617      0.84303847809418     -1.16158366883355
  H   -0.72946090430459     -0.36867471700446     -1.20862102677331
  H   1.27964279153680      0.67113469532358      0.82484994940141
  N   1.58771453027425     -1.15836697324086     -0.07200713934225
  H   1.30292619851229     -1.67917909038625     -0.89405925738150
  H   1.25119703500905     -1.65283852101022      0.74425120532391
  C   -0.99234880652027      1.56320754443542     -0.44785573795112
  N   -1.39852342438517      2.66338511204355     -0.50792789777423
  N   -1.13100447516395     -0.53121632442633      0.83043058462847
  H   -1.12196597581795      0.05807956507426      1.65613570048126
  H   -2.10097335613293     -0.73498326684981      0.62145126942691
