13
Coordinates from ORCA-job run
  C   0.81594296590843     -0.01423659777478      0.24463254395046
  C   -0.52908452222879      0.41548538599000     -0.35469522587493
  F   1.78715534003233      0.88824845196282     -0.20663915831383
  H   -0.43309156215992      0.33374585248298     -1.44532751106460
  H   0.78965117414734      0.06551234924112      1.33467985472678
  N   1.09641655911296     -1.35233064027082     -0.12884474016660
  H   1.89801810286238     -1.71539709578806      0.36928905530623
  H   1.27730247381635     -1.41114725701341     -1.12419867192003
  C   -0.78400773237250      1.82592093705109     -0.04280352143626
  N   -0.99598064617094      2.94175013503332      0.25038453143020
  N   -1.66103557822494     -0.39393506084006      0.07131519665009
  H   -1.39591964531389     -1.36856700081208     -0.01569936480372
  H   -1.86436692940881     -0.21404945926211      1.04790701151622
