13
Coordinates from ORCA-job run
  C   0.77527361849212     -0.41340177820334     -0.41587428567427
  C   -0.53489716061154      0.30015440601054     -0.03118258186572
  F   0.53888067560708     -1.76731534335407     -0.35436663004231
  H   -0.30833144883014      1.37902805138815     -0.06139436651329
  H   1.01163673058455     -0.16120017843264     -1.45662574505437
  N   1.90348989452734     -0.10382035813701      0.39498150876488
  H   1.68360817955644     -0.10884652360638      1.38256303318722
  H   2.34566379632497      0.76380217783610      0.13210557304446
  C   -0.85986211942279     -0.02232467829364      1.36458898211402
  N   -1.07891979033166     -0.25023035572174      2.49450658733113
  N   -1.63060622491677     -0.10876827831457     -0.89770083115402
  H   -2.46406582561382      0.42621212234409     -0.68677229729397
  H   -1.38287032536579      0.06571073648451     -1.86482894684377
