13
Coordinates from ORCA-job run
  C   0.98865311304846      0.07788322376454     -0.30749172000180
  C   -0.49608221414130      0.44671479282112     -0.42025041243511
  F   1.36943759462421     -0.44241311005009     -1.55622578265082
  H   -0.65307049206213      0.81884958828850     -1.43597718330082
  H   1.59845508899359      0.97059887738889     -0.15228898775795
  N   1.18567739881758     -0.83716235946649      0.74829916723219
  H   0.72681773863100     -1.71073791541196      0.51956233016377
  H   2.16862811206567     -1.00566544382128      0.91263289219518
  C   -0.80302779214002      1.53950157712697      0.52167964077421
  N   -1.07080319068874      2.38721928881662      1.28892710726290
  N   -1.32103232883149     -0.73871360506302     -0.22573043153012
  H   -2.22641696764574     -0.61229066756855     -0.65836478899293
  H   -1.46723606067110     -0.89478424682525      0.76422816904129
