13
Coordinates from ORCA-job run
  C   0.71477091760589     -0.40848172342319     -0.34640808920630
  C   -0.55060420251651      0.43258257927886     -0.08691392540020
  F   0.31272427255579     -1.73792310045482     -0.20520884198891
  H   -0.29206231307237      1.47646426830421     -0.29772699806480
  H   1.01109306990692     -0.27778297996518     -1.39230236914773
  N   1.82320972821398     -0.15385475961969      0.49294075191618
  H   2.49857021064323      0.48060684970888      0.10044154315428
  H   1.57865772403577      0.09071634738462      1.44185877747855
  C   -0.88235147436608      0.35230123298212      1.34466127679902
  N   -1.08425536574468      0.27672852979133      2.49822913494449
  N   -1.71614110863093      0.07796325609543     -0.87996292565066
  H   -1.55209303321182      0.31223910232032     -1.85158749750386
  H   -1.86251842541917     -0.92255960240288     -0.81802083733005
