13
Coordinates from ORCA-job run
  C   0.98410325729404      0.12580324152090      0.11264293586773
  C   -0.46321860019098      0.32350676250023     -0.34349349131651
  F   1.73523553746724      1.13591719882725     -0.46946201864491
  H   -0.43708028811325      0.23897551430770     -1.43399754788855
  H   1.07304972620132      0.29107357039919      1.19650525887439
  N   1.43595457440249     -1.13886645835636     -0.35112107162543
  H   0.68659562042762     -1.81409482056764     -0.26615687668400
  H   2.24839012947996     -1.45681863856338      0.15852144038606
  C   -0.92653271805554      1.67656301311725      0.00945144857386
  N   -1.35083121759950      2.72072143654010      0.33921181872975
  N   -1.30134165963540     -0.74812925141474      0.18303190950420
  H   -1.49389587630419     -0.58828723368485      1.16563705731908
  H   -2.19042848537382     -0.76636433462566     -0.30077086309566
