13
Coordinates from ORCA-job run
  C   0.71255293415491     -0.53573434506948     -0.20407696458548
  C   -0.53566089737646      0.35096335412520     -0.22251868386080
  F   0.44604499839551     -1.65312400817001      0.58536571395320
  H   -0.27001793133661      1.23060327611194     -0.82698647218548
  H   0.89768315633653     -0.91125397294638     -1.21583596072165
  N   1.83843451681414      0.20137306303676      0.23441447098444
  H   2.68369836503111     -0.34729071298170      0.15222791388075
  H   1.72887055119827      0.48599194852209      1.20102124623617
  C   -0.79898373421873      0.82880487093123      1.14120969218396
  N   -0.97727297753754      1.23287779108226      2.22821969193505
  N   -1.68927430103636     -0.39610772714550     -0.70741248887190
  H   -2.51208379100299      0.19428250415757     -0.69882136428733
  H   -1.52399088942178     -0.68138604165397     -1.66580679466094
