13
Coordinates from ORCA-job run
  C   0.92059393690306      0.11827284786641      0.15959402655609
  C   -0.48374182972330      0.38010215441345     -0.37787199167480
  F   1.81844017011644      0.83747898726387     -0.60083525750031
  H   -0.42319669561043      0.24577202588794     -1.46679684385482
  H   1.00038619354786      0.48130524064213      1.19195974423198
  N   1.22120496604362     -1.28427417369142     -0.01142802842807
  H   0.88251666477376     -1.79357595529706      0.79581314054241
  H   2.22802557058313     -1.39187657569134     -0.04748091337243
  C   -0.88224874955792      1.76292371983421     -0.10434239824227
  N   -1.20918680422658      2.86588004379848      0.12684580310200
  N   -1.39090618742529     -0.55342533496417      0.29101489262671
  H   -2.34693522843219     -0.22695637131632      0.23488372241594
  H   -1.33395200699217     -1.44162660874619     -0.19235589640242
