13
Coordinates from ORCA-job run
  C   0.95935760100879     -0.00373409650502     -0.43577046700626
  C   -0.52015776457265      0.40639951942479     -0.38846644444865
  F   1.05163529132043     -0.78426464617987     -1.60410589952884
  H   -0.76680083288174      0.89276199577371     -1.34286248139312
  H   1.59632203618641      0.86781575423011     -0.60162688032481
  N   1.37653818412044     -0.73775417796349      0.68669531544038
  H   0.60877879888952     -1.15251216235146      1.19389069542332
  H   2.02967373012246     -0.25752093688615      1.28100926141900
  C   -0.70875096653238      1.38503378834519      0.68692396347653
  N   -0.84656937327856      2.17770816139164      1.54132801053818
  N   -1.30562801725872     -0.79171150097612     -0.10782150795816
  H   -1.18453547036541     -1.43711113223229     -0.87967561759346
  H   -2.28886321675859     -0.56411056607104     -0.03251794804409
