13
Coordinates from ORCA-job run
  C   0.78507345890649     -0.05043000973074      0.32644866400447
  C   -0.48861500328308      0.45776833720291     -0.36073827335986
  F   1.79895486102184      0.88453034165205      0.08211504096801
  H   -0.27818196615261      0.49243069464979     -1.43761791692344
  H   0.64334205740646     -0.08943775642097      1.40986454997616
  N   1.10354415764433     -1.34302557410484     -0.15953495692983
  H   1.84767253542603     -1.76763838054426      0.37770450383347
  H   1.38916613373204     -1.29563106234604     -1.13070747929040
  C   -0.77467090507322      1.82910743711577      0.07418146799685
  N   -1.01605827955799      2.90909466448988      0.46309004182086
  N   -1.65999371269334     -0.37908495369025     -0.14673369510113
  H   -1.38934562698297     -1.34119033964130     -0.31691741228185
  H   -1.96088771039397     -0.30849339863200      0.81884546528671
