13
Coordinates from ORCA-job run
  C   0.79788422871043     -0.36448283652859     -0.41766484833829
  C   -0.55448339291739      0.26417326695314     -0.03029298562280
  F   0.65173361373684     -1.73086036843416     -0.34529906799409
  H   -0.39997045137765      1.35516790820359     -0.07598698166405
  H   1.01106509709520     -0.10475138926574     -1.46172286642947
  N   1.90766471974921      0.02522743687606      0.38378474045167
  H   2.29190026740706      0.91683687293554      0.11018501059398
  H   1.69401343971731      0.01632860365030      1.37245650505300
  C   -0.84643442016124     -0.06117575913808      1.37198161983307
  N   -1.04070883646514     -0.29040439578629      2.50628033019446
  N   -1.62682647209891     -0.22778821037745     -0.88252338464876
  H   -2.49092154176613      0.25804705971409     -0.67631245280848
  H   -1.39491625162959     -0.05631818880242     -1.85388561862024
