13
Coordinates from ORCA-job run
  C   0.89285534217954      0.01670458381093     -0.49876709286838
  C   -0.56929274946801      0.50127362563659     -0.39700729792077
  F   0.91895474877462     -0.73261539519137     -1.67624642077523
  H   -0.77944637386186      1.08651987779798     -1.29905765827443
  H   1.56312301970074      0.86908662362809     -0.63970621024590
  N   1.37269840189738     -0.77875445132188      0.57098557915795
  H   0.66815483871468     -1.38355321572682      0.96732204677643
  H   1.82424955048570     -0.23628369326996      1.29077405304977
  C   -0.67952696201931      1.39007542200288      0.76375190229278
  N   -0.70607902791141      2.07624798979056      1.71539423604343
  N   -1.56676527479692     -0.55437370436046     -0.31412005816226
  H   -1.53223020902560     -1.03359162125914      0.57643938483424
  H   -1.40669530466955     -1.22173604153740     -1.05876246390763
