13
Coordinates from ORCA-job run
  C   0.98572782096873      0.10712081508297     -0.30910884417282
  C   -0.50749614756703      0.44583156442944     -0.40792319028416
  F   1.37347938895582     -0.37078822681484     -1.57231035601680
  H   -0.67679350470593      0.83632368236085     -1.41472812930104
  H   1.57604074213081      1.00873224636028     -0.13186133487753
  N   1.20692643327302     -0.83069565434394      0.72148293506163
  H   2.19409560570827     -0.98185185866185      0.87742577203390
  H   0.76571007791419     -1.70774104733006      0.47210308518502
  C   -0.83396483025238      1.51027108610392      0.55975306525352
  N   -1.11752360139463      2.33209897058401      1.34917903696880
  N   -1.30547087493194     -0.76119839373401     -0.23575838568318
  H   -1.44147433488880     -0.94265832190893      0.75138214360357
  H   -2.21625677521013     -0.64544486212785     -0.65963579777092
