13
Coordinates from ORCA-job run
  C   1.00446493716695      0.02774719170696     -0.48102956535046
  C   -0.48048717898031      0.43996438213007     -0.37850873891271
  F   1.11027129390299     -0.55129072856600     -1.74420220756825
  H   -0.73954638960256      0.96823170595747     -1.30317957308666
  H   1.64947199909257      0.91098912021952     -0.47008826268057
  N   1.42657857205062     -0.89452748449400      0.49988016201165
  H   0.67480388241032     -1.52717649029761      0.74112293192489
  H   1.83248561774485     -0.45542383197328      1.31107060160159
  C   -0.63923108620659      1.36749930968888      0.74446912683167
  N   -0.75809530138087      2.07760218142413      1.67178077191427
  N   -1.30158149730933     -0.75869746162546     -0.19232016707969
  H   -1.86779671260119     -0.93300825564748     -1.00976632837028
  H   -1.91233813628744     -0.67290963852320      0.60777124876454
