17

C	-0.524931	-0.013938	-1.440635
C	0.0	0.0	0.0
F	-0.221172	1.257591	-1.973825
H	1.090945	0.0	0.0
C	0.138695	-0.972138	-2.348352
N	0.605344	-1.643023	-3.19197
N	-1.922984	-0.268287	-1.469503
H	-2.272549	-0.248613	-2.419146
H	-2.414961	0.416072	-0.909287
N	-0.433217	-1.280757	0.635258
O	-1.122067	-1.226915	1.658056
O	-0.067729	-2.316929	0.087346
C	-0.478292	1.203912	0.784309
H	-1.562134	1.234157	0.919717
H	-0.017972	1.178969	1.771795
H	-0.138548	2.10339	0.270933
Cl	3.272159	0.0	0.0
