17

C	-0.529135	-0.015319	-1.439042
C	0.0	0.0	0.0
F	-0.182329	1.233217	-1.990151
H	1.090944	0.0	0.0
C	0.098919	-1.017234	-2.326703
N	0.532842	-1.728144	-3.155893
N	-1.937539	-0.224643	-1.465273
H	-2.406366	0.490394	-0.920408
H	-2.283417	-0.20913	-2.416805
N	-0.441258	-1.272618	0.646481
O	-1.144831	-1.212615	1.655091
O	-0.073903	-2.314155	0.114095
C	-0.465012	1.211152	0.782703
H	-0.022508	1.171176	1.7786
H	-0.093705	2.104466	0.281228
H	-1.550156	1.266861	0.901635
Cl	3.262943	0.0	0.0
