17

C	-0.398782	-0.050176	-1.473216
C	0.0	0.0	0.0
F	-1.788936	-0.196563	-1.587647
H	1.09189	0.0	0.0
C	-0.109989	1.268158	-2.093931
N	0.142642	2.299477	-2.598236
N	0.236329	-1.134608	-2.132119
H	0.330964	-0.967216	-3.12474
H	1.147423	-1.323017	-1.721052
N	-0.460283	-1.283404	0.62308
O	0.236918	-2.278509	0.445613
O	-1.509477	-1.263773	1.26847
C	-0.563052	1.186311	0.747924
H	-1.645782	1.253776	0.640311
H	-0.319387	1.092835	1.806571
H	-0.091077	2.096545	0.374732
Cl	3.281805	0.0	0.0
