17

C	-0.531683	-0.0151	-1.436206
C	0.0	0.0	0.0
F	-0.16126	1.229176	-1.991174
H	1.090928	0.0	0.0
C	0.075671	-1.027096	-2.325654
N	0.496439	-1.751536	-3.149889
N	-1.943021	-0.192686	-1.460445
H	-2.289463	-0.184613	-2.411686
H	-2.395957	0.538743	-0.925302
N	-0.431351	-1.2732	0.657306
O	-0.137504	-2.317679	0.082026
O	-1.035966	-1.210185	1.72729
C	-0.46891	1.207659	0.785853
H	-1.551162	1.231306	0.940448
H	-0.141111	2.107666	0.264907
H	0.006683	1.188157	1.76671
Cl	3.263803	0.0	0.0
