14

C	-0.546273	-0.279019	-1.393307
C	0.0	0.0	0.0
Br	0.167144	1.139303	-2.609529
H	1.099225	0.0	0.0
H	-0.096465	-1.195606	-1.764446
N	-1.961467	-0.371656	-1.385162
H	-2.3841	0.515979	-1.138878
H	-2.31324	-0.663089	-2.287488
N	-0.373088	-1.165777	0.885535
O	-0.712952	-0.92896	2.040492
O	-0.245475	-2.279776	0.39179
C	-0.55707	1.223974	0.554797
N	-1.057665	2.216648	0.934374
Cl	3.167457	0.0	0.0
