14

C	-0.541147	-0.079404	-1.420567
C	0.0	0.0	0.0
Br	0.156212	1.511634	-2.414321
H	1.09459	0.0	0.0
H	-0.078656	-0.926138	-1.92087
N	-1.95453	-0.189694	-1.428769
H	-2.388505	0.64373	-1.048665
H	-2.304353	-0.343291	-2.365089
N	-0.383246	-1.282401	0.702292
O	-0.812391	-1.215436	1.849387
O	-0.185018	-2.313756	0.071231
C	-0.555523	1.134533	0.722542
N	-1.047219	2.049765	1.271315
Cl	3.174512	0.0	0.0
