14

C	-0.279693	-0.340067	-1.463053
C	0.0	0.0	0.0
Br	-2.221647	-0.528834	-1.836582
H	1.107219	0.0	0.0
H	-0.016174	0.555375	-2.035582
N	0.405666	-1.537003	-1.824015
H	0.51262	-1.585241	-2.828639
H	1.327117	-1.540957	-1.387507
N	-0.485642	-1.075583	0.920202
O	0.199443	-2.090408	0.980064
O	-1.536592	-0.876564	1.529253
C	-0.547111	1.286113	0.388021
N	-0.954155	2.351357	0.66828
Cl	3.189888	0.0	0.0
