19

C	-0.409597	-0.022246	-1.479553
C	0.0	0.0	0.0
Cl	0.109529	1.561828	-2.181343
H	1.088083	0.0	0.0
C	0.459451	-1.078222	-2.160152
H	0.394984	-0.956594	-3.244478
H	1.486478	-0.94407	-1.806852
H	0.118534	-2.08108	-1.895545
C	-1.891436	-0.202415	-1.75864
H	-2.474246	0.598686	-1.309182
H	-2.229823	-1.159741	-1.351406
H	-2.060113	-0.208542	-2.83826
N	-0.510945	-1.234463	0.663736
O	0.138926	-2.263765	0.503826
O	-1.566323	-1.163879	1.301392
N	-0.524966	1.11691	0.829194
O	-1.388433	1.873015	0.387026
O	-0.03315	1.197094	1.951894
F	2.523096	0.0	0.0
