19

C	-0.399794	-0.068235	-1.48921
C	0.0	0.0	0.0
Cl	-0.173222	1.625455	-2.10607
H	1.088264	0.0	0.0
C	0.636609	-0.923792	-2.212672
H	1.626772	-0.644895	-1.840367
H	0.554587	-0.770235	-3.291632
H	0.458648	-1.974919	-1.983064
C	-1.834133	-0.458133	-1.803807
H	-2.537958	0.219475	-1.322365
H	-2.020714	-1.476756	-1.460083
H	-1.983573	-0.419983	-2.886134
N	-0.415799	-1.185384	0.78845
O	-0.515102	-2.267266	0.206339
O	-0.539894	-1.03527	2.003224
N	-0.596376	1.170252	0.700442
O	-1.827622	1.210184	0.770246
O	0.161979	2.020075	1.152148
F	2.528908	0.0	0.0
