19

C	-0.276715	0.026024	-1.496322
C	0.0	0.0	0.0
Cl	-2.033073	-0.148494	-1.912548
H	1.089984	0.0	0.0
C	0.268829	1.34015	-2.043914
H	-0.31111	2.194058	-1.702375
H	1.301323	1.410215	-1.687708
H	0.252394	1.312155	-3.135511
C	0.496294	-1.120584	-2.143454
H	0.49091	-0.983492	-3.227122
H	1.514434	-1.06946	-1.746337
H	0.064261	-2.090281	-1.907521
N	-0.540558	-1.201277	0.68343
O	0.020364	-2.269001	0.448336
O	-1.514099	-1.066724	1.426062
N	-0.485404	1.164528	0.788063
O	0.030688	1.288215	1.89754
O	-1.345696	1.914864	0.325497
F	2.543316	0.0	0.0
