19

C	-0.408633	0.089041	-1.48328
C	0.0	0.0	0.0
Cl	-0.103685	-1.576511	-2.143395
H	1.088247	0.0	0.0
C	-1.860194	0.415496	-1.78802
H	-2.09499	1.414799	-1.421786
H	-2.530333	-0.3049	-1.322076
H	-2.009327	0.391812	-2.870691
C	0.587485	1.009728	-2.18232
H	0.364599	2.045416	-1.923387
H	1.589643	0.759167	-1.822075
H	0.509482	0.884361	-3.264907
N	-0.584608	-1.188275	0.68136
O	-1.814025	-1.215907	0.796957
O	0.17788	-2.064928	1.069881
N	-0.422584	1.16366	0.817578
O	-0.626205	2.242885	0.257083
O	-0.459856	0.994908	2.035793
F	2.526616	0.0	0.0
