19

C	-0.423917	-0.055304	-1.476137
C	0.0	0.0	0.0
Cl	0.053119	1.537096	-2.193741
H	1.086794	0.0	0.0
C	0.453896	-1.094291	-2.169157
H	0.386651	-0.958114	-3.251335
H	0.120149	-2.099807	-1.913732
H	1.479557	-0.957343	-1.817424
C	-1.90671	-0.2664	-1.732583
H	-2.231073	-1.208229	-1.278829
H	-2.492637	0.547985	-1.312939
H	-2.086476	-0.325268	-2.809124
N	-0.5112	-1.197131	0.724344
O	0.01329	-2.272058	0.447712
O	-1.427233	-1.056282	1.538694
N	-0.505704	1.162252	0.78382
O	-1.472696	1.811407	0.382708
O	0.092927	1.376589	1.833168
F	2.519265	0.0	0.0
