19

C	-0.464843	0.024768	-1.459994
C	0.0	0.0	0.0
Cl	0.041804	-1.55255	-2.185252
H	1.088007	0.0	0.0
C	-1.960201	0.191069	-1.676966
H	-2.294655	1.136173	-1.238586
H	-2.513848	-0.624988	-1.217172
H	-2.173182	0.213654	-2.748726
C	0.36001	1.093718	-2.17352
H	1.401777	0.980683	-1.861702
H	0.25662	0.968954	-3.254037
H	0.010811	2.090296	-1.897726
N	-0.496537	-1.124941	0.840433
O	-1.38685	-1.870213	0.429954
O	0.045137	-1.22095	1.939677
N	-0.491808	1.228454	0.692587
O	-1.505197	1.145136	1.392582
O	0.136139	2.265674	0.4977
F	2.516211	0.0	0.0
