19

C	-0.454285	-0.025191	-1.463893
C	0.0	0.0	0.0
Cl	0.057368	1.552395	-2.185507
H	1.088011	0.0	0.0
C	0.376132	-1.091856	-2.174527
H	0.271857	-0.969434	-3.25551
H	1.417362	-0.973303	-1.862874
H	0.031927	-2.089744	-1.897039
C	-1.947539	-0.191645	-1.691343
H	-2.504132	0.622453	-1.232011
H	-2.153429	-0.209475	-2.764587
H	-2.283558	-1.138826	-1.259034
N	-0.492625	-1.228868	0.690975
O	0.141283	-2.264693	0.503811
O	-1.512092	-1.147591	1.382859
N	-0.50222	1.123838	0.838075
O	-1.379661	1.878219	0.41765
O	0.021945	1.209828	1.94636
F	2.515584	0.0	0.0
