15

C	-0.429365	-0.013264	-1.444156
C	0.0	0.0	0.0
Cl	0.27686	1.322693	-2.370094
H	1.09307	0.0	0.0
H	-0.344159	-0.945759	0.434806
C	-0.087399	-1.26924	-2.109577
N	0.184687	-2.278884	-2.645148
N	-1.973195	0.102904	-1.511064
O	-2.574063	-0.929829	-1.227695
O	-2.482289	1.195591	-1.713948
C	-0.530444	1.189061	0.783875
H	-0.262933	2.12745	0.294371
H	-0.045005	1.185683	1.762254
H	-1.616394	1.175388	0.936018
F	2.591723	0.0	0.0
