15

C	-0.41293	0.014128	-1.442942
C	0.0	0.0	0.0
Cl	0.085069	1.523746	-2.238772
H	1.093246	0.0	0.0
H	-0.378298	0.921709	0.453157
C	0.131165	-1.11151	-2.202021
N	0.566326	-2.016019	-2.812468
N	-1.952703	-0.067836	-1.538054
O	-2.437319	-1.152458	-1.854215
O	-2.580858	0.917393	-1.175026
C	-0.491757	-1.239208	0.734226
H	-0.1204	-2.146156	0.250333
H	-1.582369	-1.313182	0.821932
H	-0.066472	-1.22159	1.740294
F	2.586247	0.0	0.0
