15

C	-0.437	-0.052616	-1.444644
C	0.0	0.0	0.0
Cl	0.301462	-1.406326	-2.311103
H	1.092899	0.0	0.0
H	-0.384805	0.943079	0.402068
C	-1.885877	-0.136263	-1.636206
N	-3.051142	-0.253144	-1.739717
N	0.001972	1.274894	-2.096484
O	0.959507	1.287022	-2.844849
O	-0.673005	2.239095	-1.748441
C	-0.50752	-1.183017	0.808226
H	-1.600663	-1.273804	0.829786
H	-0.084334	-2.113568	0.424539
H	-0.149704	-1.073875	1.835102
F	2.606306	0.0	0.0
