15

C	-0.408215	0.024137	-1.445112
C	0.0	0.0	0.0
Cl	0.097382	1.536172	-2.23047
H	1.093248	0.0	0.0
H	-0.37767	0.9194	0.458509
C	0.135474	-1.098086	-2.208341
N	0.571496	-2.000585	-2.821112
N	-1.947749	-0.052582	-1.550742
O	-2.430297	-1.13943	-1.853097
O	-2.575857	0.93903	-1.208593
C	-0.492319	-1.244789	0.725427
H	-1.582768	-1.317153	0.813094
H	-0.066795	-1.235077	1.731411
H	-0.123018	-2.148409	0.23357
F	2.583764	0.0	0.0
