13

C	0.0	0.0	0.0
C	-0.399936	-0.184634	-1.44861
F	1.409888	0.0	0.0
H	-1.483291	-0.062408	-1.50993
H	-0.275774	0.997924	0.349324
H	-0.152836	-1.229201	-1.713818
N	-0.502809	-1.002919	0.877024
H	-1.285926	-0.617154	1.388938
H	-0.898099	-1.758757	0.332458
N	0.269628	0.802358	-2.294828
H	1.263371	0.614936	-2.28282
H	-0.059333	0.706325	-3.246515
Cl	-3.772981	0.0	0.0
