16

C	0.0	0.0	0.0
C	-0.45684	0.089823	-1.489732
Br	1.92178	0.0	0.0
H	0.453053	0.034055	-2.09589
H	-0.344207	-0.930666	0.433812
N	-0.423271	1.0645	0.971345
O	-0.711856	0.674279	2.096652
O	-0.353804	2.239954	0.628066
C	-1.200453	1.363868	-1.896813
H	-1.466275	1.252394	-2.955753
H	-2.103079	1.407971	-1.28921
H	-0.591671	2.262681	-1.787504
N	-1.213798	-1.143869	-1.717685
H	-1.482294	-1.155951	-2.697317
H	-2.059444	-0.955918	-1.134955
F	-2.698924	0.0	0.0
