16

C	0.0	0.0	0.0
C	-0.433412	0.019537	-1.523252
Br	1.924742	0.0	0.0
H	0.49314	-0.096149	-2.093897
H	-0.344676	-0.906202	0.483043
N	-0.424537	1.094373	0.938107
O	-0.372931	2.256745	0.552706
O	-0.700527	0.740081	2.078547
C	-1.112617	1.300049	-1.988664
H	-1.361554	1.154165	-3.043055
H	-2.022069	1.409423	-1.400882
H	-0.472225	2.174931	-1.882665
N	-1.290082	-1.109403	-1.845484
H	-2.084295	-0.942934	-1.190166
H	-0.816468	-1.967105	-1.573696
F	-2.625144	0.0	0.0
