16

C	0.0	0.0	0.0
C	-0.508294	0.17904	-1.433517
Br	1.926017	0.0	0.0
H	-1.524982	0.549117	-1.23765
H	-0.373788	-0.896086	0.478401
N	-0.42598	1.123112	0.907467
O	-0.457154	0.861336	2.106751
O	-0.633233	2.222952	0.415491
C	-0.672038	-1.202823	-2.052783
H	-1.444357	-1.719539	-1.481498
H	-1.012479	-1.105599	-3.088981
H	0.264042	-1.776765	-2.051695
N	0.303965	1.10951	-2.213058
H	-0.31242	1.721598	-2.728138
H	0.890881	0.612872	-2.872405
F	-2.595513	0.0	0.0
