16

C	0.0	0.0	0.0
C	-0.456239	-0.079384	-1.489055
Br	1.933091	0.0	0.0
H	0.453997	-0.19861	-2.085142
H	-0.340042	-0.876559	0.537106
N	-0.420529	1.167333	0.843636
O	-0.341201	2.296544	0.370973
O	-0.726402	0.905899	2.001498
C	-1.205579	1.13644	-2.036045
H	-0.608668	2.049991	-2.011493
H	-1.457389	0.913312	-3.079492
H	-2.114877	1.236141	-1.444112
N	-1.209332	-1.333636	-1.577157
H	-1.478461	-1.453675	-2.549926
H	-2.053523	-1.081324	-1.016014
F	-2.697726	0.0	0.0
