16

C	0.0	0.0	0.0
C	-0.520445	0.120529	-1.432396
Br	1.916393	0.0	0.0
H	-1.569654	0.402253	-1.23114
H	-0.390561	-0.875326	0.504375
N	-0.429359	1.158354	0.860817
O	-0.545257	2.258508	0.32817
O	-0.544668	0.942098	2.060428
C	-0.526997	-1.258885	-2.065966
H	-1.229013	-1.882498	-1.508423
H	0.470923	-1.711204	-2.086375
H	-0.888155	-1.19192	-3.098551
N	0.270738	1.053992	-2.252808
H	0.166216	1.969529	-1.825664
H	-0.209338	1.108398	-3.14641
F	-2.636318	0.0	0.0
