16

C	0.0	0.0	0.0
C	-0.214784	-0.049566	-1.557959
Br	1.933239	0.0	0.0
H	0.492197	0.696843	-1.947708
H	-0.397778	-0.846289	0.536734
N	-0.437187	1.250547	0.667557
O	-0.501901	2.268436	-0.019081
O	-0.568455	1.206976	1.886343
C	-1.537432	0.266118	-2.233065
H	-1.96545	1.1871	-1.857957
H	-1.317566	0.354076	-3.312004
H	-2.26504	-0.515393	-2.031963
N	0.196145	-1.414361	-1.955745
H	-0.366509	-1.691428	-2.749532
H	1.166337	-1.422593	-2.241642
F	-2.356045	0.0	0.0
