16

C	0.0	0.0	0.0
C	-0.497343	0.134152	-1.460203
Br	1.924693	0.0	0.0
H	-1.544835	0.41976	-1.278674
H	-0.385796	-0.880214	0.49669
N	-0.420414	1.153613	0.865927
O	-0.521874	2.257812	0.338187
O	-0.538994	0.931633	2.065149
C	-0.513493	-1.249671	-2.083629
H	0.47326	-1.732291	-2.082182
H	-1.230178	-1.860403	-1.531095
H	-0.846791	-1.160516	-3.119947
N	0.178901	1.09106	-2.321509
H	0.100605	2.00372	-1.890996
H	1.167191	0.87025	-2.393102
F	-2.574791	0.0	0.0
