12
Coordinates from ORCA-job run
  C   -0.78805648387171     -0.48919255340160      0.44100337237871
  C   0.42280061041098     -0.09024287265329      0.05078337851636
  H   -0.92904763360503     -1.29619960585089      1.14711780251596
  N   -2.01120817574834      0.14048729342261     -0.03081795151895
  O   -3.04008947058829     -0.24786195467217      0.52243952655922
  O   -1.92624554760995      0.98578599848215     -0.91851807834012
  N   1.63510844297624     -0.75274846972678      0.57718289114695
  O   2.70237910353318     -0.27256933420959      0.21122342982865
  O   1.46334568917478     -1.70495666141050      1.32428575271919
  N   0.73334953003112      0.98614614867166     -0.88446224951345
  O   0.83372981163983      2.10367395399023     -0.39620849506634
  O   0.90393412365719      0.63767805735817     -2.04502937922617
