12
Coordinates from ORCA-job run
  C   -0.93974829781037      0.33021021461636      0.25053265955620
  C   0.36577889659058      0.23613291757420     -0.00311044749284
  H   -1.39398772358549      1.24691755491874      0.60131417287089
  N   -1.85107032800810     -0.79310588457647      0.09928175782325
  O   -2.99655960278595     -0.58812508651209      0.50095579388740
  O   -1.42078350099958     -1.82878292303411     -0.40269642715318
  N   1.08666962175806     -0.94396686652620     -0.46940508451622
  O   1.49033218505024     -1.70093080065318      0.40317777253478
  O   1.24476268646271     -1.01558107607621     -1.68073298653720
  N   1.25139963720548      1.40466617756468      0.18639876745712
  O   0.71831339461653      2.45266598105928      0.52088369455208
  O   2.44489303150589      1.20189979164499     -0.00859967298228
