12
Coordinates from ORCA-job run
  C   -0.77760627170120     -0.48099426351069      0.46720455873598
  C   0.42394191606734     -0.08461873205590      0.04649998467760
  H   -0.90154574695524     -1.28718247246367      1.17743272225683
  N   -2.01297286067588      0.13526621630815      0.00987286450558
  O   -1.93941652263192      1.05607445342316     -0.80040795289256
  O   -3.03975005323570     -0.34137761756073      0.49388185450857
  N   1.64751018732257     -0.74718698210852      0.54635815236184
  O   2.70458071463689     -0.31155025730245      0.10305438893815
  O   1.49434860066051     -1.65841201015689      1.34668669696501
  N   0.71431237913626      0.98528032444453     -0.90287697551598
  O   0.89389656927760      2.09179776807911     -0.41235207827113
  O   0.79170108809877      0.64390357290391     -2.07535421626988
