12
Coordinates from ORCA-job run
  C   -0.77565478769412     -0.62978168428115      0.16700499895856
  C   0.44367167885372     -0.11308981075009      0.06115023656650
  H   -0.95263623718659     -1.64805836982021      0.49203873441737
  N   -1.98798665854551      0.13145056947950     -0.14854310312535
  O   -2.25973888981128      0.26008928327055     -1.33696672717517
  O   -2.62894026951333      0.51406965803752      0.82050932719581
  N   1.63961647455346     -0.86219789959246      0.44945321185530
  O   2.37851365979733     -0.27387763111027      1.23076745196972
  O   1.72363138557982     -2.02104645393672      0.05545482387263
  N   0.73497451662650      1.22564506841520     -0.45452657829120
  O   -0.09613290203047      2.10066809931690     -0.24220344328572
  O   1.77968202937045      1.31712917097122     -1.09313893295843
