12
Coordinates from ORCA-job run
  C   -0.98029554174981      0.30075404753490      0.05239946975003
  C   0.34182810755272      0.24511687369532     -0.11084466849360
  H   -1.54306049933189      1.20928292234435     -0.11371570739805
  N   -1.77025982844837     -0.84887839849354      0.46383615475903
  O   -2.97811183273497     -0.63589818138273      0.57093344086392
  O   -1.18920391268045     -1.91231287074927      0.66718144518978
  N   1.09470385060359      1.44599278808615     -0.53123034388586
  O   0.44765994034242      2.46627791658018     -0.71760252412683
  O   2.30585202931595      1.29666609745944     -0.65181883891992
  N   1.20352501552862     -0.91726137748327      0.08144980934250
  O   1.39274266609341     -1.60378751762577     -0.91360998840423
  O   1.67562000550879     -1.04495229996576      1.20302175132323
