12
Coordinates from ORCA-job run
  C   -0.94753616683647      0.30751509442308      0.24958215188780
  C   0.36383828734378      0.23685552324248      0.01914057498508
  H   -1.41876037626844      1.20807795169794      0.61927473205184
  N   -1.84603118456476     -0.81380083226713      0.02585013578015
  O   -1.37293447111607     -1.86132135829934     -0.40868669376482
  O   -3.02595724591215     -0.59550310435480      0.30127033037436
  N   1.23085910075493      1.40857913591964      0.26700506772625
  O   2.42376651581061      1.24318012054120      0.03607802936404
  O   0.68474896321395      2.42317258670911      0.67532692188560
  N   1.10940406687179     -0.91627794338343     -0.47592140779601
  O   1.55487981402271     -1.66636861585414      0.38191678271514
  O   1.24372269668013     -0.97410855837461     -1.69083662520945
