12
Coordinates from ORCA-job run
  C   -0.78198958923537     -0.51204054529050      0.42494861034409
  C   0.42395089498214     -0.07720934313170      0.05832632504985
  H   -0.91131360912770     -1.34289937732777      1.10517882771260
  N   -2.01458558507384      0.08980317917482     -0.05816189177742
  O   -1.93438529298823      1.03807765606916     -0.83539256733586
  O   -3.04620435529595     -0.42588772004437      0.37261885097332
  N   1.64474412711635     -0.72736291173513      0.58060445391488
  O   1.48551652407358     -1.66531456483302      1.34823993069636
  O   2.70594499846263     -0.25513560688769      0.18754192881670
  N   0.72216015058207      1.02923648199887     -0.84569852799420
  O   0.85912022242155      2.12278269491673     -0.31414901738036
  O   0.84704151408277      0.72795005709062     -2.02505692301995
