12
Coordinates from ORCA-job run
  C   -0.91909617774742      0.27115009352681      0.40144229901216
  C   0.35407610695281      0.28400806884515      0.00263338215712
  H   -1.43652021885644      1.15533056559808      0.74783542841506
  N   -1.73650446173314     -0.92374975625289      0.25281119045733
  O   -1.34091025915416     -1.95862677074218      0.79104844328263
  O   -2.73802209852928     -0.77088808181388     -0.44144292640038
  N   1.17491632113615      1.50121617696181      0.08856804248035
  O   0.58724226056181      2.54021004192740      0.36759963550597
  O   2.36905920162948      1.35718083275267     -0.16245301867705
  N   1.06790099792562     -0.86640169093370     -0.54467970584319
  O   1.54371021304306     -1.64969734456017      0.26980661854714
  O   1.07414811477152     -0.94273213530910     -1.77316938893713
