12
Coordinates from ORCA-job run
  C   -0.94281096622127      0.34801000105577      0.21384578350052
  C   0.37366575864053      0.21810452625959      0.04779977392545
  H   -1.39245165801691      1.26968575241774      0.55746935123837
  N   -1.87853413855670     -0.72654272686219     -0.07733337928831
  O   -3.06600863202305     -0.40482964483829     -0.03477005406328
  O   -1.42553512730860     -1.83929106838655     -0.33500404519293
  N   1.08734937512104     -0.96734805658867     -0.41630369820941
  O   1.19423893022923     -1.08603416891835     -1.62942510899331
  O   1.53751401338370     -1.68444924422501      0.46728433136845
  N   1.27949839799718      1.35011387021392      0.33505639940863
  O   2.46136736441201      1.16430306441538      0.06598490123799
  O   0.77170668234285      2.35827769545666      0.80439574506783
