12
Coordinates from ORCA-job run
  C   -0.96096653171892      0.34884465992496      0.09860120080143
  C   0.35476828652841      0.23570475159749     -0.08558319642490
  H   -1.46763099472476      1.30345830309430      0.05726224830821
  N   -1.81635932721112     -0.79407064922714      0.37551473442532
  O   -3.00442844976569     -0.52201647021064      0.54990523879091
  O   -1.30362107957080     -1.91012590942113      0.41259881680930
  N   1.14622094771251     -0.99014695602675     -0.05017434938799
  O   1.60334726894004     -1.29319282964195      1.04362708839159
  O   1.30142983438011     -1.54798744503680     -1.12812188765012
  N   1.17721598901256      1.43382201935196     -0.35810691818696
  O   2.37846127620882      1.23100223678919     -0.49793575983413
  O   0.59056278020885      2.50470828880650     -0.41658721604265
