12
Coordinates from ORCA-job run
  C   -0.79803184048399     -0.43546937250705      0.47859900261167
  C   0.42142876159697     -0.08697940104277      0.06769530963508
  H   -0.95839478941875     -1.21149329151123      1.21472227884083
  N   -2.00708882078944      0.17575975561372     -0.05031578754229
  O   -3.05507113886910     -0.37702188728443      0.28353430178976
  O   -1.89281655510774      1.16695661406542     -0.76737009709637
  N   1.61763004174757     -0.75860876770883      0.61764780553189
  O   2.68651405039400     -0.43440010357279      0.11162292015784
  O   1.43234260052784     -1.56986225408059      1.51320873586977
  N   0.75541783132470      0.93397901400768     -0.92065939699009
  O   0.75380269804389      0.56735764607619     -2.08819776143010
  O   1.04426716103404      2.03078204794468     -0.46148731137800
