12
Coordinates from ORCA-job run
  C   -0.93141943320482      0.29794492881355      0.31317101973523
  C   0.34803030284064      0.25369648262964     -0.05941998106385
  H   -1.41721768155532      1.22217634385468      0.59518240177648
  N   -1.77513566040475     -0.88538164885839      0.36840162652803
  O   -1.27871039882601     -1.96916324978038      0.07022595273853
  O   -2.93706143612074     -0.67747467704230      0.71828205235938
  N   1.15887284824166      1.48951079802340     -0.09806981636809
  O   2.32397112177148      1.34784230690504     -0.45329598455667
  O   0.59937269276414      2.52734364082817      0.22468687953871
  N   1.10704206353336     -0.92678249586967     -0.46094500667083
  O   1.70447626693664     -1.50126129349199      0.43912735472290
  O   1.09677931402372     -1.17845113601175     -1.65834649873980
