12
Coordinates from ORCA-job run
  C   -0.77329772852612     -0.65581185936421      0.16129762760924
  C   0.42460769984804     -0.08172348585211      0.04620007350366
  H   -0.89033765881482     -1.68558061760245      0.47050266503274
  N   -2.01325520978743      0.05084412979416     -0.11758850092469
  O   -3.03592392748248     -0.61771212864109      0.03408650156825
  O   -1.94743905534129      1.22527641490132     -0.47294355428486
  N   0.70610488523010      1.29185960695849     -0.35940879424627
  O   0.77702226113516      2.10695587886485      0.55037416527597
  O   0.88519858983762      1.46167310942879     -1.55789283433575
  N   1.65329452609684     -0.84865348664784      0.34341269357859
  O   1.50778712335801     -2.01168840540432      0.69057213519007
  O   2.70623849444637     -0.23443915643560      0.21038782203306
