12
Coordinates from ORCA-job run
  C   -0.78736845703183     -0.52148442759074      0.40358587258903
  C   0.42264248461401     -0.08494672363862      0.05286338277467
  H   -0.92501519427725     -1.38228148480903      1.04376816039631
  N   -2.01374768894376      0.12009618075402     -0.04265401164598
  O   -1.92387382298031      1.10152514023175     -0.77657182509953
  O   -3.05051209794328     -0.39885016420089      0.37151950943381
  N   1.63654901876111     -0.77653211171362      0.53760725956105
  O   2.70265551832440     -0.29991873447649      0.16361368157399
  O   1.46719372423333     -1.74895301069675      1.25871358517454
  N   0.73273942101434      1.05812285537957     -0.80004846656816
  O   0.85049313923860      0.81028949288003     -1.99248250984595
  O   0.88624395499063      2.12393298788075     -0.21891463834379
