12
Coordinates from ORCA-job run
  C   -0.76230960638202     -0.62915294261606      0.27838068815572
  C   0.42643894091059     -0.07423205158655      0.04051974717053
  H   -0.86071022087013     -1.60830484790972      0.72707793361394
  N   -2.01678941561140      0.03198018716162     -0.04432038272032
  O   -1.97206380088762      1.14837561688171     -0.55573028023118
  O   -3.02843444728871     -0.61151546792768      0.23519890117870
  N   1.67071906082533     -0.79303196539841      0.38907678956180
  O   2.71366736266255     -0.20096961178002      0.13348223329633
  O   1.54628820834935     -1.89913668777739      0.89433864129346
  N   0.68307143657164      1.23251609551848     -0.55698430793735
  O   0.81388230824059      1.23989955874079     -1.77355814813811
  O   0.78524017347983      2.16257211669323      0.23151818475649
