12
Coordinates from ORCA-job run
  C   -0.94532800537165      0.30277095178849      0.26304551997092
  C   0.34566007230735      0.25497511300956     -0.06689355458737
  H   -1.45294587985793      1.23603131870803      0.46575783510015
  N   -1.77187082682092     -0.88829122532294      0.37630398658664
  O   -1.25020279375453     -1.98119790959898      0.16802582397350
  O   -2.94662653806046     -0.67721672559245      0.67817817023032
  N   1.13495052741746     -0.93720397325152     -0.36049698851910
  O   1.16675390837723     -1.27336298908487     -1.53657215508222
  O   1.71323500244002     -1.43512002146191      0.59601859445556
  N   1.13806924057546      1.49910266325508     -0.16800045989830
  O   2.31444930974744      1.35383705068665     -0.48224217942757
  O   0.55385598300052      2.54667574686485      0.06787540719748
