12
Coordinates from ORCA-job run
  C   -0.97291349129762      0.31691392601702     -0.08647386503446
  C   0.35453650820949      0.25076580506244      0.02005709907751
  H   -1.49785926725737      1.25988947070658     -0.15691911113574
  N   -1.81857988245855     -0.86576631345297     -0.11610337881628
  O   -1.28092326615642     -1.96826341026055     -0.04287704069674
  O   -3.02457500483261     -0.63828947383559     -0.21410532784018
  N   1.16501860581609      1.48708578671664      0.04574683150681
  O   2.37620092735449      1.32447709283081      0.14755046247973
  O   0.55984292153203      2.54604933672250     -0.03605242443421
  N   1.16987956176192     -0.95561774767204      0.12123887219348
  O   1.57226221648802     -1.41103662012280     -0.94076810007218
  O   1.39711017084053     -1.34520785271206      1.25870598277225
