12
Coordinates from ORCA-job run
  C   -0.76611751442665     -0.45051035268730      0.51415797601054
  C   0.42545241564273     -0.07752818635921      0.04641783191336
  H   -0.87275072443397     -1.20172930071373      1.28489161222443
  N   -2.01360237699704      0.11930023203472      0.03026981300595
  O   -1.96032726298157      0.97699094200244     -0.84806148446555
  O   -3.02885989528253     -0.32742389002702      0.56455656283437
  N   1.66232366573594     -0.69024847385687      0.57618235594509
  O   2.70868833141716     -0.28124108790418      0.08469500207013
  O   1.52942059058149     -1.53872334061007      1.44614574950481
  N   0.69187317398851      0.91917494144250     -0.98598908531204
  O   0.75472703537159      0.48968388511025     -2.13008363169850
  O   0.86917256138435      2.06125463156849     -0.58418270203258
