12
Coordinates from ORCA-job run
  C   -0.93885035815498      0.34033414408273      0.23918280039347
  C   0.35771044402438      0.24069478188313     -0.05537882289434
  H   -1.41349880981717      1.29286591364575      0.43184899208224
  N   -1.81660292602980     -0.81625705629894      0.32187073924588
  O   -2.98961163840422     -0.55837997924354      0.59241054905003
  O   -1.33468860829792     -1.92857188931121      0.12073112830472
  N   1.10514360892746     -0.98155330483726     -0.33389957894088
  O   1.15671163703591     -1.31260573766463     -1.51073294229070
  O   1.63398157558482     -1.50869264029180      0.63549634108764
  N   1.20300280461501      1.45159009014378     -0.12874768126105
  O   0.65514143332683      2.52176482153679      0.09240074392915
  O   2.38156083718968      1.25881085635520     -0.40718226870617
