12
Coordinates from ORCA-job run
  C   -0.73493940609690     -0.67863536336787      0.23210906355542
  C   0.42735727056110     -0.04737952600289      0.06362223956199
  H   -0.79493954053593     -1.66748756306001      0.66604749816699
  N   -2.00931789617263     -0.09430661687539     -0.15446831100880
  O   -2.99125316196922     -0.80622834062319      0.05670813404144
  O   -2.00812287578072      1.03098864541727     -0.64805483627370
  N   1.69401879188543     -0.69110500585551      0.47284081637710
  O   2.70990383291293     -0.03251809846652      0.27819529776355
  O   1.61278975073164     -1.80837192360350      0.96211327939205
  N   0.63289748177144      1.27984871097568     -0.50761799608384
  O   0.63536779613796      2.20437779844459      0.29393512708701
  O   0.82623795655489      1.31081728301733     -1.71543031257922
