12
Coordinates from ORCA-job run
  C   -0.74576595508551     -0.50935729297245      0.48872669304588
  C   0.42809092289914     -0.06642635409919      0.03728313828182
  H   -0.81883976795785     -1.31551262968384      1.20602730666233
  N   -2.01604631787872      0.05076453411953      0.05615873237213
  O   -1.99994452471765      0.96974065256445     -0.75946572170049
  O   -3.01070138350794     -0.46688455652017      0.56461627904810
  N   1.68959376769712     -0.67354149018567      0.51258264644300
  O   1.59327068393769     -1.58452974434100      1.32209806811440
  O   2.71701254613943     -0.19739598582813      0.04201658204606
  N   0.65175480801110      1.00776111124756     -0.92548273915911
  O   0.71488079928410      0.66126815283057     -2.09732145774826
  O   0.79769442117909      2.12411360286833     -0.44623952740587
