12
Coordinates from ORCA-job run
  C   -0.97580996446509      0.24666723571458      0.20382828043536
  C   0.34889598524892      0.25400014674335      0.05280236571256
  H   -1.51623399252136      1.10380925826103      0.58198706634771
  N   -1.79756888057153     -0.90696298555194     -0.12525551748961
  O   -3.00331495943968     -0.75825783051126      0.07433504124794
  O   -1.24238910132216     -1.91134607894467     -0.56452260778114
  N   1.18334652451151     -0.83533189166584     -0.44505924732470
  O   1.38692989381995     -0.83478457016998     -1.65162519781781
  O   1.62203335274246     -1.59612211178445      0.40695149256908
  N   1.13528842146633      1.45543288635812      0.40492337650003
  O   2.34632779696920      1.36449682550448      0.23527592477584
  O   0.51249492356143      2.41839911604657      0.82835902282474
