12
Coordinates from ORCA-job run
  C   -0.75989371622234     -0.62893673984369      0.28562175236855
  C   0.42605242522694     -0.06364865869294      0.05814436206198
  H   -0.85571361643507     -1.58637688481884      0.77944644027404
  N   -2.01447458219912     -0.00941102600959     -0.11074493196197
  O   -1.97298886197941      1.08287580976926     -0.67207974066169
  O   -3.02303353768828     -0.66001549698086      0.16355904522143
  N   1.67057720208485     -0.74015414526090      0.48212997629428
  O   1.54898012371484     -1.82040881582122      1.04119780260141
  O   2.71105455730370     -0.14329513599936      0.22750684393509
  N   0.67937148096131      1.21630081822158     -0.59592588690123
  O   0.74145707010218      2.18579698464611      0.14802353717028
  O   0.84761145513040      1.16627329079046     -1.80687920040218
