12
Coordinates from ORCA-job run
  C   -0.97787210641531      0.27500944202207      0.15007032291375
  C   0.35255714474313      0.24525434142980      0.06760477438446
  H   -1.51386223896186      1.15113326665829      0.48898945053868
  N   -1.81269862562833     -0.86123494317099     -0.20599980346560
  O   -3.02270316688190     -0.67715974727364     -0.07277456907072
  O   -1.26311072834085     -1.88687488024386     -0.60085539412372
  N   1.18170641961088     -0.87261520691379     -0.37229591632837
  O   1.55668382212097     -1.63117592106414      0.51153789176402
  O   1.44540098964634     -0.89607870317075     -1.56688276781656
  N   1.15201204587633      1.43090347669760      0.44304525266082
  O   2.36700750240313      1.30711465450547      0.33293572326501
  O   0.53487894182747      2.41472422052394      0.82462503527823
