12
Coordinates from ORCA-job run
  C   -0.92698699193137      0.32658083362144      0.28897181784451
  C   0.37506346958697      0.24256063961024      0.03882989317493
  H   -1.37980675382126      1.21239478689372      0.71741994526887
  N   -1.85093278679316     -0.77469778456431      0.03006228938024
  O   -2.77401061877964     -0.49961019548527     -0.72908659976009
  O   -1.61924970075673     -1.84816434037202      0.57317962596872
  N   1.06947226705019     -0.93026036864545     -0.49546584267803
  O   0.47791463213241     -1.58789127101270     -1.34211903778648
  O   2.18424921426342     -1.12903266041404     -0.02476965170045
  N   1.26251719016057      1.38374188249483      0.26594593291405
  O   1.26517296918507      1.87780625914572      1.38813367580897
  O   1.91859710970353      1.72657221872786     -0.71210204843524
