12
Coordinates from ORCA-job run
  C   -0.76905914333286     -0.63256165539627      0.25073832901727
  C   0.42517613477152     -0.07512543247628      0.04870688788856
  H   -0.87833550923448     -1.61936022400940      0.67972718009099
  N   -2.01531754050853      0.03504027726377     -0.08949181040857
  O   -3.03339012676146     -0.61508750938785      0.14843527966675
  O   -1.95840421499585      1.16289504099409     -0.57398162320822
  N   0.69700869183162      1.24143176175088     -0.51963896134236
  O   0.78617310798044      2.15611362984351      0.28826871267377
  O   0.85194114004265      1.27135407026601     -1.73301526788980
  N   1.66064845412947     -0.80167216271309      0.41265776290921
  O   2.70988947499742     -0.20855443572604      0.18689506390119
  O   1.52366953108006     -1.91447336040936      0.89969844670122
