12
Coordinates from ORCA-job run
  C   -0.95588640151713      0.35628994419696      0.18614683770323
  C   0.36033034621932      0.22840131537737      0.03953283877837
  H   -1.42636495859478      1.28843753696259      0.47211027993463
  N   -1.87612386194244     -0.74357684005878     -0.05812416201852
  O   -1.40671960491324     -1.87318347777179     -0.16785096511760
  O   -3.06159243504510     -0.42496298582112     -0.13478083905167
  N   1.10852340405232     -0.96979827411478     -0.34062000659703
  O   1.69004475126781     -1.51840333652645      0.58806824139136
  O   1.12401070649334     -1.25534008576829     -1.52994215370123
  N   1.25181138341081      1.36803783907378      0.26490041112106
  O   1.35128893725242      1.77526336154981      1.41694703032317
  O   1.84067773331668      1.76783500290070     -0.73538751276577
