12
Coordinates from ORCA-job run
  C   -0.73618480745994     -0.54264530983722      0.46696904152491
  C   0.42919980799722     -0.05767874996995      0.03758775084896
  H   -0.79482134360642     -1.36457501507580      1.16748705268167
  N   -2.01704468949269     -0.00275885545779      0.03932978142673
  O   -3.00089445025536     -0.52793023503009      0.56076997378277
  O   -2.01888228181269      0.90911778869978     -0.78435848902526
  N   1.70239267853637     -0.64056578568463      0.51229351252844
  O   1.62326997774071     -1.57835216057378      1.29246094298097
  O   2.72086385337449     -0.11868866047496      0.07182186180685
  N   0.63255505739006      1.04434399816581     -0.89759223414419
  O   0.72370803864229      2.15575290151872     -0.39391255925769
  O   0.73683815894596      0.72398008371994     -2.07385663515418
