12
Coordinates from ORCA-job run
  C   -0.75705442698454     -0.64588759583192      0.25201396980709
  C   0.42711375595040     -0.07203794377827      0.03685861203692
  H   -0.84687520121984     -1.64298497697471      0.66126761062003
  N   -2.01726993357354      0.01697447052162     -0.04318629432645
  O   -3.02315730893663     -0.64647296303747      0.20935713816167
  O   -1.98258817582249      1.15410501141961     -0.50756786149692
  N   1.67726205663914     -0.79380406937403      0.35713217320143
  O   1.56207213846215     -1.92187375718258      0.81371719218623
  O   2.71522357728891     -0.18160262166185      0.13026461317114
  N   0.67283412267395      1.25987646192431     -0.50722461278222
  O   0.80457223561913      1.31708450778925     -1.72244006881798
  O   0.76586715990334      2.15862347618605      0.31780752823907
