12
Coordinates from ORCA-job run
  C   -0.78130115742254     -0.48736538863400      0.45393991629214
  C   0.42261395184394     -0.09681135606394      0.03452891288483
  H   -0.91294297323548     -1.32976651447086      1.11936515117053
  N   -2.00870000107221      0.18193683489732      0.05369134494772
  O   -1.92627561894524      1.14530395597058     -0.70462928352982
  O   -3.03863383322722     -0.29760380630355      0.52806212895994
  N   0.72374362539790      1.01768896664718     -0.85855884018319
  O   0.77046924413185      0.74230067816540     -2.04979995105061
  O   0.94141079987867      2.08943571129212     -0.30959850550858
  N   1.63741478176352     -0.81638169656546      0.47372621636039
  O   1.47536903699868     -1.76290162756887      1.23011171503775
  O   2.69683214388813     -0.38683575736589      0.03016119461888
