18

C	-0.346452	-0.051934	-1.517729
C	0.0	0.0	0.0
Cl	-0.191661	1.650218	-2.11542
H	1.091258	0.0	0.0
C	0.70258	-0.863704	-2.266847
H	0.543236	-1.9257	-2.086482
H	1.681825	-0.590194	-1.866047
H	0.630977	-0.663168	-3.338529
C	-1.773968	-0.491803	-1.788603
H	-2.488604	0.141567	-1.256176
H	-1.903694	-1.52813	-1.46607
H	-1.987287	-0.436154	-2.858985
N	-0.433905	-1.261802	0.66207
O	-0.027294	-2.315303	0.174014
O	-1.155383	-1.198908	1.660752
C	-0.591562	1.120543	0.702359
N	-1.042244	2.043651	1.274778
F	2.516378	0.0	0.0
