18

C	-0.389537	0.053995	-1.495463
C	0.0	0.0	0.0
Cl	0.121368	-1.496664	-2.263578
H	1.092098	0.0	0.0
C	-1.877618	0.214943	-1.752604
H	-2.441869	-0.61462	-1.324069
H	-2.232716	1.143713	-1.298276
H	-2.066731	0.249646	-2.828548
C	0.464407	1.16202	-2.100057
H	0.388643	1.148242	-3.189795
H	0.11752	2.133702	-1.73465
H	1.495017	0.999553	-1.770171
N	-0.574734	-1.19376	0.685142
O	-1.730468	-1.111142	1.119682
O	0.127344	-2.197237	0.757278
C	-0.494102	1.192602	0.664964
N	-0.865212	2.193438	1.159958
F	2.529166	0.0	0.0
