18

C	-0.367653	0.039382	-1.503535
C	0.0	0.0	0.0
Cl	0.066461	-1.563238	-2.212691
H	1.092127	0.0	0.0
C	-1.837561	0.279781	-1.798662
H	-1.999428	0.289602	-2.879585
H	-2.142021	1.245279	-1.385777
H	-2.460549	-0.497379	-1.354563
C	0.559942	1.078272	-2.122577
H	0.498613	1.040566	-3.213037
H	0.262256	2.077058	-1.787114
H	1.574495	0.870157	-1.767109
N	-0.586771	-1.186048	0.689807
O	-1.782721	-1.134849	1.002091
O	0.145636	-2.149424	0.886794
C	-0.497834	1.1995	0.649269
N	-0.869137	2.202777	1.137845
F	2.539779	0.0	0.0
