18

C	-0.345416	-0.088746	-1.513059
C	0.0	0.0	0.0
Cl	-0.051725	1.580224	-2.16318
H	1.091276	0.0	0.0
C	0.647086	-1.010208	-2.214852
H	0.408151	-2.053497	-2.00399
H	1.638806	-0.785589	-1.807623
H	0.609454	-0.843249	-3.294552
C	-1.8041	-0.414839	-1.773416
H	-2.034275	-1.412018	-1.387916
H	-2.457856	0.312358	-1.286206
H	-2.006864	-0.405551	-2.847649
N	-0.461814	-1.241263	0.685008
O	-1.332174	-1.161947	1.558142
O	0.057898	-2.297539	0.323994
C	-0.598484	1.145459	0.656086
N	-1.065505	2.088448	1.180307
F	2.519764	0.0	0.0
