18

C	-0.198249	-0.022788	-1.520542
C	0.0	0.0	0.0
Cl	-1.963697	-0.117581	-1.952911
H	1.093846	0.0	0.0
C	0.377654	1.287831	-2.040693
H	0.367396	1.28921	-3.132619
H	-0.184008	2.151681	-1.680063
H	1.405805	1.330337	-1.667805
C	0.548127	-1.182564	-2.165712
H	0.084886	-2.141672	-1.951961
H	0.57795	-1.030802	-3.247604
H	1.557169	-1.159758	-1.741677
N	-0.509487	-1.199295	0.709935
O	-0.062155	-2.290982	0.36342
O	-1.3225	-1.041789	1.623397
C	-0.541353	1.194365	0.619342
N	-0.914354	2.199951	1.101451
F	2.533727	0.0	0.0
