18

C	0.0	0.0	0.0
C	-0.558227	-0.007502	-1.435078
Br	1.960019	0.0	0.0
H	-1.65827	-0.06862	-1.313053
C	-0.472359	1.282767	0.673933
H	-1.566962	1.282616	0.664549
H	-0.091339	2.16973	0.164522
H	-0.119484	1.296549	1.707257
C	-0.470285	-1.21949	0.780147
H	-0.145995	-1.117605	1.81822
H	-0.064329	-2.146873	0.378121
H	-1.562938	-1.245238	0.740791
N	-0.130368	-1.22781	-2.207984
O	0.802486	-1.1147	-3.000647
O	-0.744755	-2.262967	-1.966631
C	-0.189854	1.178863	-2.198155
N	0.05475	2.143536	-2.821559
Cl	-3.713389	0.0	0.0
