18

C	0.0	0.0	0.0
C	-0.553042	-0.020171	-1.437373
Br	1.959884	0.0	0.0
H	-1.653558	-0.078427	-1.319867
C	-0.471996	1.288969	0.661904
H	-0.089974	2.171201	0.145268
H	-1.566536	1.288592	0.652189
H	-0.119201	1.311428	1.695151
C	-0.470168	-1.212724	0.79062
H	-0.147677	-1.10059	1.828128
H	-0.062208	-2.143226	0.397983
H	-1.562716	-1.239366	0.749393
N	-0.123542	-1.248351	-2.196829
O	0.809837	-1.143214	-2.990027
O	-0.736833	-2.281492	-1.944841
C	-0.176645	1.158212	-2.209248
N	0.077096	2.116188	-2.839344
Cl	-3.712905	0.0	0.0
