17

C	-0.514215	-0.051034	-1.442248
C	0.0	0.0	0.0
Br	0.280047	1.520876	-2.450814
H	1.090004	0.0	0.0
C	0.063032	-1.220984	-2.110591
N	0.402897	-2.191592	-2.679894
N	-1.929051	-0.129405	-1.554781
H	-2.2076	-0.215975	-2.524028
H	-2.335995	0.701428	-1.142473
C	-0.482488	-1.190986	0.819967
H	-0.151072	-2.113273	0.340583
H	-0.015494	-1.137843	1.804504
H	-1.570565	-1.204287	0.91075
N	-0.443219	1.236841	0.716411
O	0.168062	1.51355	1.740193
O	-1.420373	1.868501	0.297328
Cl	3.276257	0.0	0.0
