17

C	-0.545939	-0.01321	-1.446668
C	0.0	0.0	0.0
Br	0.032371	1.657968	-2.329129
H	1.09062	0.0	0.0
C	0.091485	-1.120287	-2.165068
N	0.50059	-2.064258	-2.732784
N	-1.973515	-0.139778	-1.631417
H	-2.4368	0.460345	-0.957337
H	-2.249173	-1.101423	-1.463465
C	-0.477982	-1.208044	0.79027
H	-0.03787	-1.16687	1.788761
H	-0.109014	-2.117101	0.310602
H	-1.564863	-1.242425	0.878398
N	-0.481446	1.233606	0.694029
O	-1.708412	1.367089	0.812228
O	0.343197	2.028037	1.122311
Cl	3.311992	0.0	0.0
