17
Coordinates from ORCA-job run
  C   0.86155628720337      0.21326595098549      0.06405603854246
  C   -0.65801870570520      0.34319142085835      0.22676212031951
  Cl  1.43484972186845      1.96948774798109     -0.44504889128361
  H   -0.84744025477610      1.05411256397841      1.03125386583376
  N   1.23584417824726     -0.74471084597201     -0.89262840824495
  H   2.23259327675944     -0.71954123265114     -1.06794083901000
  H   0.73425287656367     -0.60128977654155     -1.75982824245040
  N   1.41289061572867     -0.10253332950093      1.33531578082454
  H   2.33244746808080     -0.51480045783990      1.24666829765706
  H   1.46829430621966      0.71633920821439      1.92592970510343
  C   -1.32909161827804     -0.99391403584124      0.48845680464332
  H   -0.86723925147440     -1.45201284300912      1.36172824501182
  H   -2.39390764870812     -0.84213243658027      0.67920149396982
  H   -1.20582890667128     -1.65876322185305     -0.36508984105332
  N   -1.29701832130592      0.96604565443186     -0.97550009201194
  O   -2.01582136929327      1.94175488739934     -0.78944615695607
  O   -1.09836265445897      0.42450074594028     -2.06388988089541
