17
Coordinates from ORCA-job run
  C   0.85499452884618      0.04634765816031      0.17297010779679
  C   -0.66480509315802      0.10622378894106      0.39079428306035
  Cl  1.44338333372221     -0.89042353330691      1.77299251007763
  H   -0.85330863273888      0.50732334924865      1.38634063907825
  N   1.41704690244689      1.33055176898083      0.12993528030203
  H   2.42562335631655      1.30763184384540      0.20370322151663
  H   1.03459635739912      1.95115560884314      0.82976041549205
  N   1.21199539977869     -0.69677321479408     -0.96658671664210
  H   1.11092836984206     -1.69195863190497     -0.82893078571686
  H   2.14709233294300     -0.48326537441132     -1.28571644931512
  C   -1.38418071504062     -1.20309424039543      0.16133373046656
  H   -1.00308360976393     -1.96146401230096      0.84549766647127
  H   -1.25637400970521     -1.52612720290901     -0.87039901027717
  H   -2.45175391488964     -1.07642658018275      0.34917445359870
  N   -1.21147919262993      1.15984050024666     -0.53956985978825
  O   -1.31406620295486      2.29290743847748     -0.06815982777841
  O   -1.50660921041360      0.82955083346190     -1.68213965834235
