17
Coordinates from ORCA-job run
  C   0.85177978987336     -0.04751783467724      0.26732098629521
  C   -0.67013177319816      0.13320688915574      0.40576316387084
  Cl  1.37041333260109     -0.91206763613400      1.81451612743022
  H   -0.87403504518541      0.64942383264910      1.34482087467391
  N   1.45406252722108      1.23760055317769      0.15622815039446
  H   2.45960420742735      1.16361036522569      0.06442336653145
  H   1.23454134451773      1.83811924177835      0.94286824735912
  N   1.18411822249724     -0.94048320150917     -0.80131435019503
  H   0.94608771629550     -0.49366207789838     -1.68035932621772
  H   2.17091142645056     -1.16679678877830     -0.78447052690943
  C   -1.47652852139245     -1.14071802846281      0.27720230745319
  H   -1.18281152062456     -1.83898618008769      1.06017586836014
  H   -1.29616563215839     -1.60469381271745     -0.68953892986353
  H   -2.54006320774589     -0.91699062655507      0.38587849106243
  N   -1.10229191064408      1.10510635549760     -0.65620654169878
  O   -1.49996137049050      2.20546586803147     -0.28422717922488
  O   -1.02852958544448      0.72838308130446     -1.82408072932161
