17
Coordinates from ORCA-job run
  C   0.87166552618079      0.02784276807259      0.25778878239718
  C   -0.64893377117620      0.12226960348220      0.43696806452787
  Cl  1.42665613715971     -0.86031232351276      1.79979899407683
  H   -0.83465106774881      0.46908657672689      1.45247866199694
  N   1.46066726026244      1.33594222170288      0.35496514337697
  H   2.42469151769110      1.27438424520854      0.65470903435835
  H   1.40409654046663      1.77972572445241     -0.55421430492460
  N   1.23944315429656     -0.68401824657187     -0.90872480040510
  H   0.91157564342225     -1.64123211567058     -0.90507777028580
  H   2.24423141679513     -0.67704716150848     -1.03082229842797
  C   -1.41635102241190     -1.15408954180491      0.13818744858254
  H   -1.01535230672653     -1.97976666896616      0.72760081545401
  H   -1.35367907234382     -1.39729487459550     -0.92459769840090
  H   -2.46557607981133     -1.02058313551668      0.40154973556972
  N   -1.24647982584210      1.20913892986670     -0.42195696968310
  O   -0.66341995020603      1.57489728468798     -1.43867494339090
  O   -2.33858410000787      1.62305671394674     -0.04197789482204
