14

C	-0.019842	-0.001555	-0.004985
C	-0.438964	-0.248667	-1.458279
F	1.389609	0.035156	-0.010233
H	-1.535647	-0.232188	-1.437559
H	-0.375932	0.976979	0.319904
N	-0.467238	-0.998921	0.897459
H	-0.433725	-1.889714	0.41202
H	-1.449344	-0.795457	1.082814
N	0.029299	-1.569763	-1.872794
H	1.028819	-1.535782	-2.032339
H	-0.424825	-1.841398	-2.734816
C	0.047404	0.827441	-2.340454
N	0.474643	1.647685	-3.065531
Cl	-3.525467	0.057634	0.051371
