14

C	-0.025737	-0.009947	-0.006918
C	-0.449922	-0.20162	-1.466948
F	1.383661	0.015444	-0.014133
H	-1.546164	-0.179349	-1.441978
H	-0.374859	0.958731	0.352823
N	-0.48004	-1.035122	0.860567
H	-1.459073	-0.828267	1.057054
H	-0.455238	-1.908836	0.344725
N	0.01041	-1.509153	-1.931028
H	-0.441016	-1.74269	-2.805598
H	1.010893	-1.47567	-2.084823
C	0.040056	0.902581	-2.31195
N	0.464445	1.740319	-3.018436
Cl	-3.5153	0.136465	0.071306
