14

C	0.182085	0.101494	0.025335
C	-0.439089	0.077048	-1.374409
F	1.561202	-0.196947	-0.146714
H	-1.494253	0.355397	-1.274531
H	0.18997	1.122863	0.427172
N	-0.412238	-0.85721	0.868339
H	-1.324691	-1.175981	0.537324
H	-0.486184	-0.536585	1.821099
N	-0.394056	-1.221697	-2.025993
H	-1.234098	-1.720593	-1.742363
H	0.417947	-1.725029	-1.689698
C	0.233599	1.092769	-2.206917
N	0.767401	1.913565	-2.854423
Cl	-3.330857	-1.55678	-0.438257
