16
Coordinates from ORCA-job run
  C   -0.66145823582716      0.11767069495655     -0.13269756592017
  C   0.77690798508411     -0.31947248881946     -0.43536971640972
  H   -1.27149994613498     -0.29740536014696     -0.95770223004469
  H   1.07842203929856      0.13849462981211     -1.39048230372334
  C   -0.79860195241334      1.63111993356455     -0.14139837242309
  H   -0.48736380209366      2.05505909170955     -1.10029734945017
  H   -0.19461649409349      2.06370291174512      0.65877552435135
  H   -1.83962751296367      1.91888629266554      0.02798969354551
  N   -1.01561296909188     -0.40940660051991      1.17310013680023
  H   -1.99713493428545     -0.25096048304963      1.36471038021975
  H   -0.83674841742224     -1.40695141136548      1.18431383614271
  N   0.84012652503614     -1.78596302441641     -0.45456976873008
  H   1.80337989238618     -2.09933947704480     -0.43882676865920
  H   0.42341357228840     -2.11681884823924     -1.31780596882669
  C   1.69828990977500      0.18543638973212      0.59004202775418
  N   2.48112434045749      0.57594774941636      1.37221844537343
