16
Coordinates from ORCA-job run
  C   -0.59518616916316      0.13207075164031     -0.38013973261304
  C   0.78863780290644     -0.54831883563352     -0.42450400180972
  H   -0.85341693714246      0.40467611510974     -1.41440224500127
  H   0.69375503932936     -1.43216095074659     -1.07900694282959
  C   -0.58400229065794      1.38863485887873      0.47475625062565
  H   0.15674197685716      2.10193791741610      0.10945698697625
  H   -0.34361802761231      1.14141407383023      1.50843466074647
  H   -1.56412129304335      1.87315417026224      0.43968510329776
  N   -1.51977385180118     -0.85087153314044      0.19137665362462
  H   -2.34606072352909     -0.38512872892159      0.54586407751070
  H   -1.82214043261213     -1.50647642761594     -0.52012614192239
  N   1.20807160798723     -0.86933999621710      0.93227313263794
  H   0.44207394789069     -1.38619096677202      1.35174358249725
  H   2.03171788398338     -1.45799492933446      0.91751779436800
  C   1.76781132263958      0.34174759180349     -1.06201189119953
  N   2.53751014396778      1.05284688944083     -1.59091728690910
