16
Coordinates from ORCA-job run
  C   -0.53340593051705      0.24582588616722     -0.19796264190902
  C   0.77589825609322     -0.49969020346964      0.10440793161952
  H   -0.34246542413720      0.89059714690145     -1.07419115371372
  H   0.61846937024395     -1.05650082907138      1.03355304742934
  C   -0.92341060646778      1.11874382493550      0.98230036741874
  H   -1.79894304166245      1.72617821481524      0.73552045729970
  H   -1.17760626529883      0.48300768351888      1.83475626439390
  H   -0.10463896436327      1.78073175079339      1.25997942257944
  N   -1.57348167816164     -0.75099528940566     -0.43204957696160
  H   -1.45434230205845     -1.18839114501745     -1.33894208662057
  H   -2.48164715364293     -0.30245771068910     -0.42870978210114
  N   1.87488064846900      0.43889063688043      0.29853945065283
  H   2.12607342211313      0.85839530078027     -0.58983565323733
  H   2.69283242525184     -0.04948137800074      0.64304314214365
  C   1.03588314685458     -1.48346813680325     -0.96875536735103
  N   1.26490409728389     -2.21238575233516     -1.86165382164272
