15
Coordinates from ORCA-job run
  C   0.95773534050385     -0.20961269367896      0.00404616424925
  C   -0.49835072313907     -0.58097314473330     -0.37581010365586
  H   1.63004563678377     -0.77062316756468     -0.66370356365946
  H   -0.58057774350050     -1.67384998171086     -0.35076824015125
  C   1.22529426308829     -0.67226783629999      1.37112628336846
  N   1.43926287396260     -1.05481365914564      2.46002660529702
  N   1.13186139372761      1.23740202941472     -0.06284578682767
  H   1.12256211080393      1.52852786173059     -1.03459941206062
  H   2.02566048296484      1.50276633842561      0.33283233924192
  C   -0.71088211744875     -0.15081357425716     -1.76059203026596
  N   -0.84745097546238      0.22875477689065     -2.86367227261634
  C   -1.53447790066534      0.04261083819871      0.56122440895834
  H   -1.39394151535489     -0.33979847940629      1.57396139868172
  H   -1.42255034188977      1.12555589351505      0.57571897824790
  H   -2.54319078437420     -0.21186520137844      0.23205523119255
