15
Coordinates from ORCA-job run
  C   0.71514795871280      0.34986148725285      0.52196805130241
  C   -0.43263776784697      0.14200018513599     -0.50981284974788
  H   0.25262120986883      0.56209078066262      1.49316650176391
  H   0.02520934480460      0.02876382107913     -1.50051575178267
  C   1.49919630545423      1.53285316260125      0.13586767474275
  N   2.12792578013929      2.45986816048096     -0.21546874477092
  N   1.61944235037531     -0.77027297030819      0.70123995178854
  H   1.14411451196164     -1.55701320967177      1.12190959303534
  H   2.02980920694789     -1.05750988841924     -0.17915441010469
  C   -1.27977684190461      1.33587602127582     -0.53997110081092
  N   -1.97493337026431      2.28242564183167     -0.52224036766833
  C   -1.27178517877018     -1.09560974136808     -0.18462885474149
  H   -2.10053097357332     -1.19068754425450     -0.88742053595635
  H   -0.66523938677945     -1.99932127181177     -0.25655830645755
  H   -1.68756314912575     -1.02432463448674      0.82361914940784
