12
Coordinates from ORCA-job run
  C   -0.50074785856572      0.28861848006706     -0.19078888209988
  C   0.78253769247328      0.55571464833547     -0.54014370057754
  H   1.00796507801933      1.38829411886673     -1.20053511570536
  C   -1.52893408120928      1.14224941476358     -0.68312407585934
  N   -2.39799694887599      1.83542912320611     -1.07173724494154
  C   -0.86398903992889     -0.87708007601225      0.69488245065477
  H   -1.94501366205564     -0.99632307838070      0.76004995748751
  H   -0.48479307186873     -0.74017989061070      1.71398447561418
  H   -0.44602376162856     -1.80879599745014      0.30012207224481
  N   1.86254608753607     -0.21771449833647     -0.18140033022387
  H   1.75123268396436     -0.79913722034445      0.63407851992929
  H   2.76221688213978      0.22892497589575     -0.23538812652303
