12
Coordinates from ORCA-job run
  C   -0.37401368192421     -0.04040069052966      0.01369177427084
  C   0.97998304909675     -0.13513673181425     -0.02396032258284
  H   1.45311721813509     -1.04482684384216      0.33827071791525
  C   -0.96642500881053      1.16979783723871     -0.45398349025479
  N   -1.41154941629050      2.19062546292843     -0.83950424221810
  C   -1.26992755047590     -1.13953491160456      0.51804793261822
  H   -1.89695306922525     -0.79243089193707      1.34348641954012
  H   -0.67039791502372     -1.98028173996701      0.87411855729630
  H   -1.93248710779289     -1.50592320871719     -0.27089331433922
  N   1.84382518409119      0.78453000830513     -0.56734017201791
  H   1.46553667591647      1.70523011608779     -0.73720209098461
  H   2.77829162230348      0.78935159385183     -0.19473176924326
