12
Coordinates from ORCA-job run
  C   -0.49058516024940      0.28984034613311     -0.21321852097253
  C   0.80180771122340      0.69220592814056     -0.30108725834268
  H   1.04700679346859      1.64659327757924     -0.75830681613048
  C   -1.50629248545487      1.16100480611513     -0.70070807680117
  N   -2.36623336238440      1.86368511806317     -1.09241912230705
  C   -0.87684536244447     -1.04143046099464      0.38156712664907
  H   -0.32605300364508     -1.85556007366796     -0.10047774436303
  H   -1.94105950289393     -1.23454197549783      0.25035487727494
  H   -0.66430636041145     -1.07756355166616      1.45605364583313
  N   1.88138631016066     -0.07146755321058      0.07890671088619
  H   2.73719495327389      0.42897709256967      0.24918622704075
  H   1.70397946935706     -0.80174295356371      0.75014895123285
