12
Coordinates from ORCA-job run
  C   -0.48615602096044      0.29436682315300     -0.21753007784034
  C   0.81667460159765      0.64203528689260     -0.36573191052827
  H   1.08263486821233      1.55679213520747     -0.88776396740688
  C   -1.48411620698397      1.17263811933959     -0.72810269504725
  N   -2.32988029299377      1.88324869793061     -1.13611988175133
  C   -0.90194851934537     -0.98285118003237      0.46880485551784
  H   -0.39277111586938     -1.84522370425760      0.02674777990677
  H   -1.97563513819097     -1.14385918866986      0.37587329211953
  H   -0.66341113255843     -0.95922530959287      1.53822855813746
  N   1.87871709942708     -0.13607605516003      0.03270010583867
  H   2.75817335421200      0.33936772307888      0.14339516134041
  H   1.69671850345327     -0.81921334788941      0.75049877971339
