12
Coordinates from ORCA-job run
  C   -0.51654975833513      0.31037692615205     -0.06718749413237
  C   0.74652849662347      0.76606632173375     -0.25969829039280
  H   0.91182959053801      1.78104187276489     -0.60900036628417
  C   -1.60146280928997      1.17710680836460     -0.38485244053506
  N   -2.51724263489955      1.87178909384373     -0.64054810182455
  C   -0.80163356108007     -1.07567290008810      0.45441323588966
  H   -0.23474951497793     -1.26581713521414      1.37142142772560
  H   -0.53276007559530     -1.84571912050497     -0.27747778714218
  H   -1.85962493997360     -1.19565719582792      0.68540715520665
  N   1.88601394479947      0.05797357285982      0.05109136342568
  H   1.79315534713792     -0.94496247279856      0.08377404947112
  H   2.72749591505266      0.36347422871487     -0.40834275140757
