12
Coordinates from ORCA-job run
  C   -0.49199335703474      0.35788130630477      0.00996878381269
  C   0.79446724226442      0.73819618837073     -0.19203595923518
  H   1.03058729922872      1.77735333426989     -0.40292952046005
  C   -1.51455365630131      1.34338956651076     -0.09663738299148
  N   -2.37992160833931      2.13746628933532     -0.18282584089349
  C   -0.86449747681106     -1.06640353050517      0.33815299926633
  H   -0.28974146989771     -1.42999566830202      1.19613883040984
  H   -1.92234210107192     -1.14650605352923      0.58675088992281
  H   -0.67217332256593     -1.73632048079719     -0.50769717669252
  N   1.88071014114510     -0.09695562626301     -0.06696386672161
  H   2.72484211376304      0.20569591228424     -0.52251455538533
  H   1.70561619562070     -1.08480123767909     -0.16040720103202
