12
Coordinates from ORCA-job run
  C   -0.36615369696124     -0.08280269795480      0.01548557334380
  C   0.96167109546424      0.14122392461157      0.18861540884220
  H   1.47923491575037     -0.36839612919132      0.99806644528704
  C   -1.01674602445649      0.58961300524617     -1.06113326762299
  N   -1.51331246344598      1.15790146161074     -1.96615137578776
  C   -1.17708936535819     -0.99450257827695      0.89624564480146
  H   -0.53877044905066     -1.44768906065047      1.65789372732712
  H   -1.64074322022905     -1.79730784490068      0.31705406906678
  H   -1.97615522763147     -0.44821723142595      1.40466461106871
  N   1.73256668061269      1.03902981734726     -0.51012259777116
  H   2.71456644571333      0.82840430698952     -0.56520693728793
  H   1.33993130959244      1.38374302659492     -1.37441130126728
