12
Coordinates from ORCA-job run
  C   -0.46063921458300      0.38745209555463      0.08638149491542
  C   0.85676033375545      0.69109803994711     -0.02573309835622
  H   1.18262888614173      1.72711344431681     -0.00484623090660
  C   -1.39447050079669      1.45747500009663      0.19439631923889
  N   -2.18735794724186      2.32387074974940      0.28126072959497
  C   -0.95800783375564     -1.03641642730887      0.09663844612877
  H   -0.80953537457605     -1.52076578758515     -0.87528846920147
  H   -2.02232104234475     -1.07709623624627      0.32603366115732
  H   -0.42983962258321     -1.62585033256313      0.85300239542874
  N   1.86752181734704     -0.24082197001023     -0.08175290071426
  H   1.61234706245047     -1.16585293645314     -0.38905264802758
  H   2.74291343618650      0.07979436050220     -0.46003969925797
