12
Coordinates from ORCA-job run
  C   -0.49943176347127      0.34613567002413     -0.03894313185305
  C   0.74984253168375      0.65968107006668     -0.46443832057621
  H   0.95168579511201      1.63496502979718     -0.89809030971081
  C   -1.51982161433883      1.33372911517968     -0.14575013589955
  N   -2.38164952547907      2.13265375798161     -0.21981006079255
  C   -0.83302200778523     -1.00760985890151      0.53681021743383
  H   -0.52856517376922     -1.80607940273912     -0.14748871893267
  H   -1.90427827259140     -1.10575915411635      0.70941277083649
  H   -0.32735925785331     -1.17120735288953      1.49520884771902
  N   1.81057005425565     -0.21684197716577     -0.47234277192099
  H   2.72548699853960      0.19890250694484     -0.51688767150516
  H   1.75554223569732     -0.99756940418187      0.16231928520166
