12
Coordinates from ORCA-job run
  C   -0.35829119068693     -0.11181043814120      0.00558572297137
  C   0.94183693866682      0.21761165519346      0.21682097061543
  H   1.47367417328591     -0.24470381082840      1.04506492129857
  C   -1.02648574727656      0.50074789602085     -1.09583248246461
  N   -1.53811098166089      1.02149234479245     -2.02087643985622
  C   -1.12209258103927     -1.07897656538499      0.86917516219012
  H   -1.97255109686929     -0.59280626113857      1.35463043741577
  H   -1.50926905688853     -1.91502393043579      0.28089851655933
  H   -0.47229263627307     -1.48257134530198      1.64877013832317
  N   1.66046153810927      1.16850821508535     -0.46718289553843
  H   1.26586146525669      1.47998294672882     -1.34297193505560
  H   2.65725917537586      1.03554929340999     -0.49408211645890
