12
Coordinates from ORCA-job run
  C   -0.32561191166037     -0.24098102656784     -0.09152694027809
  C   0.95894706194299      0.12664132953492      0.15060436933350
  H   1.50402304371906     -0.38194537469607      0.94290352299052
  C   -1.00498556575478      0.49243499866491     -1.11438365638804
  N   -1.52732960036632      1.07521890681507     -1.99467417890601
  C   -1.16545786665944     -1.01590054121705      0.89022006759731
  H   -0.52429060681889     -1.59111842036273      1.56311510750464
  H   -1.77558127085657     -0.33468485007201      1.48888806381426
  H   -1.83506506576445     -1.71879771876813      0.38907094484055
  N   1.64669623384198      1.15242375207226     -0.46836524319072
  H   2.64254292677913      1.11372157284454     -0.31975628803020
  H   1.40811262159766      1.32198737175213     -1.43709576928773
