12
Coordinates from ORCA-job run
  C   -0.49009430032968      0.36011201690862      0.01003662628130
  C   0.77406359508147      0.70570669049488     -0.34003058651147
  H   1.00615451531210      1.73317915767769     -0.60541954256355
  C   -1.48410949249110      1.37913785600364      0.05241345791551
  N   -2.32455895956317      2.20264363588548      0.09919513207314
  C   -0.86728556509921     -1.05961523333162      0.35255324085981
  H   -1.94446970132171     -1.15671646222530      0.48442007477362
  H   -0.56383434264295     -1.74465832970708     -0.44564096964027
  H   -0.38963072627211     -1.38869443242592      1.28236277454483
  N   1.81446339002182     -0.18467404249717     -0.47449813727798
  H   1.73007106552713     -1.05681663738519      0.02312077650757
  H   2.73923052177741      0.20939578060198     -0.43751284696251
