12
Coordinates from ORCA-job run
  C   -0.48767707454756      0.31349682962461     -0.18270511355841
  C   0.80378561793965      0.52848028968987     -0.53719444234193
  H   1.05171720617522      1.30636200346481     -1.25377340889975
  C   -1.50050490187820      1.10333891893660     -0.79827155083891
  N   -2.35889398224645      1.73873831233682     -1.29433108060093
  C   -0.87710247654751     -0.73080646232017      0.83361011763128
  H   -0.68819077678823     -1.74403371186702      0.46139330677647
  H   -1.93692763985030     -0.66294229362513      1.07703811718877
  H   -0.31078128517372     -0.59869535783492      1.76101720283842
  N   1.88104419561773     -0.12493934293170      0.01708798875737
  H   2.72959780722674     -0.10821737783330     -0.52324063366219
  H   1.69493331007263     -1.02078180764047      0.43936949670979
