12
Coordinates from ORCA-job run
  C   -0.36213599112087     -0.09399335997777     -0.02338640042830
  C   0.97872158508437      0.02519752286409      0.15402824950743
  H   1.47800130186196     -0.64401989282472      0.85076281448819
  C   -0.99351871846496      0.80535611948752     -0.93314126643748
  N   -1.47776905836363      1.57291667719915     -1.68478354075574
  C   -1.20659167873655     -1.11983197618554      0.68312893606713
  H   -2.00058799083897     -0.64678666010587      1.26674264833768
  H   -0.58996526976630     -1.71211738881975      1.36261679405820
  H   -1.67944027630866     -1.80284087514769     -0.02761170236101
  N   1.81846402278532      0.86408635960764     -0.53829503043004
  H   1.37515518386476      1.61509187459545     -1.04769969761846
  H   2.66166689000354      1.13694159930749     -0.06236180442761
