12
Coordinates from ORCA-job run
  C   -0.49909266381467      0.29631415724303     -0.18244026265468
  C   0.78821544819296      0.58980116730171     -0.49356983373251
  H   1.01392148999118      1.41031176527865     -1.16869954471421
  C   -1.53428280362560      1.06428084415743     -0.78815235200562
  N   -2.40963765104670      1.68111955818294     -1.27799077916495
  C   -0.85957072129137     -0.81009437964377      0.77715104136781
  H   -1.92764305132156     -0.80831784086513      0.99260188287424
  H   -0.32602773621602     -0.68980025635311      1.72547542196959
  H   -0.60688634470306     -1.79478618674819      0.36783831644879
  N   1.88301732200543     -0.03345469548685      0.06005684866009
  H   1.73318343110073     -0.95313492622289      0.44345998997524
  H   2.74380328072869      0.04976079315619     -0.45373072902377
