12
Coordinates from ORCA-job run
  C   -0.50008999118982      0.34618250441219      0.00816964770653
  C   0.78383401937294      0.76482426994239     -0.11831037957403
  H   1.00344932562411      1.81903242852440     -0.26177613698743
  C   -1.54122144080270      1.31326021281468     -0.08690489525824
  N   -2.42183905108943      2.09104101816125     -0.16581808812225
  C   -0.85182850519199     -1.10152013979987      0.24399286552975
  H   -0.61034135537933     -1.72041783681444     -0.62754836915506
  H   -1.91650579914506     -1.21749789921908      0.44464178439983
  H   -0.30282301754945     -1.49833754905553      1.10403606041669
  N   1.88395171030621     -0.05221912252582      0.00753029814550
  H   2.73766373424930      0.29385318667560     -0.39646024891212
  H   1.73575037079522     -1.03620107311578     -0.15155253818918
