12
Coordinates from ORCA-job run
  C   -0.49942396446038      0.33979494619878     -0.07067114345481
  C   0.78991646453227      0.74134913697706     -0.19877646997096
  H   1.01972601103019      1.78134872508667     -0.41242666409893
  C   -1.52831757150487      1.31754008252701     -0.18750251680696
  N   -2.39841564035405      2.10620012764876     -0.27564597145888
  C   -0.86897601705504     -1.09882380851578      0.19164200635472
  H   -0.54322571588831     -1.42155530943220      1.18693776226774
  H   -0.40541440465347     -1.75965080212782     -0.54778848991879
  H   -1.94782470967136     -1.24120748152822      0.13688381984203
  N   1.87493304537487     -0.10382280582110     -0.16184280823544
  H   1.74497883307300     -0.98647245817166      0.30619350174259
  H   2.76304366957717      0.32629964715850      0.03299697373770
