12
Coordinates from ORCA-job run
  C   -0.48701983544128      0.35624613190652     -0.07861159689035
  C   0.81225109265997      0.68809383879142     -0.28387135170818
  H   1.07741541385960      1.69609940826945     -0.58984898633039
  C   -1.47933343169339      1.36380944337406     -0.24653221922125
  N   -2.32092416956476      2.17727797244718     -0.37514436272020
  C   -0.90531638181326     -1.03940233522665      0.31234649803236
  H   -1.99073966073727     -1.13428621487993      0.31616172619447
  H   -0.54738812195807     -1.29960992428596      1.31485113668116
  H   -0.50688352309292     -1.77628202511884     -0.39239827640634
  N   1.86112361043227     -0.19871295621906     -0.21388324061538
  H   1.71135262974406     -1.03696556099900      0.32444039666883
  H   2.77446237760506      0.20273222194083     -0.08750972368472
