12
Coordinates from ORCA-job run
  C   -0.36660330379330     -0.03138456040626      0.08056515628152
  C   0.97894661630311     -0.12074779255176     -0.07828362209582
  H   1.46335327431717     -1.08285610791547      0.07214440630633
  C   -0.97537933609847      1.24031976950754     -0.13588376967673
  N   -1.43775965831123      2.30617915981862     -0.33331675145617
  C   -1.23715713667675     -1.19608484218360      0.46740951856781
  H   -1.75074128751086     -1.01167532583707      1.41482830496327
  H   -2.00004522220193     -1.39104128184923     -0.29111399493893
  H   -0.63092226565044     -2.09760955454628      0.58109794506599
  N   1.83881024601564      0.92073788073377     -0.32924117671921
  H   1.41811964709844      1.77915766218262     -0.65440753615653
  H   2.69937842650863      0.68400499304710     -0.79279848014155
