12
Coordinates from ORCA-job run
  C   -0.36417437061082     -0.03116113949970      0.08320664641273
  C   0.97391261098645     -0.13830486470825     -0.12009140355151
  H   1.43025560342307     -1.12532159328840     -0.10493036642546
  C   -0.93793645348074      1.27439443156203      0.04770204590357
  N   -1.37389108125491      2.36812585230259      0.00062379613745
  C   -1.26271954673069     -1.20946052716349      0.34550458880968
  H   -2.06474260938831     -1.26852574761638     -0.39481295591878
  H   -1.72705063654077     -1.14331605901386      1.33309313421616
  H   -0.68916396986081     -2.13791193848224      0.30218194355543
  N   1.86156844815723      0.90203508055583     -0.25625599759979
  H   2.69629551123971      0.70412259066871     -0.78182114707661
  H   1.45864649406057      1.80632391468315     -0.45540028446285
