12
Coordinates from ORCA-job run
  C   -0.49424785922268      0.32665286644893     -0.12393243077963
  C   0.79254629734131      0.63605143541925     -0.42062889712359
  H   1.02057183077457      1.53554216088716     -0.98541975135562
  C   -1.52524186842910      1.17019494053182     -0.62817790338500
  N   -2.39867656240153      1.84426072806573     -1.03994690726430
  C   -0.86722788924492     -0.88700890785817      0.68987513782473
  H   -0.22386288322864     -0.97242758752462      1.57122408583710
  H   -1.89812276318103     -0.81895010349926      1.03727353563202
  H   -0.77449299304468     -1.81010248326478      0.10668503051138
  N   1.88775277654486     -0.07178502044630      0.02026681218550
  H   1.73550709648919     -1.03903870903785      0.25702119886036
  H   2.74349481760264      0.08561068027809     -0.48423991094294
