12
Coordinates from ORCA-job run
  C   -0.36949626732368     -0.06037957867457      0.02512392693935
  C   0.97625171566143      0.06051377560586      0.15888981022826
  H   1.48983088050951     -0.55772085070203      0.89176904136819
  C   -1.01385787685702      0.75643729840155     -0.95093418603775
  N   -1.50468297826512      1.44208202371939     -1.77417767954701
  C   -1.20711960229333     -1.00287447226935      0.84683171806111
  H   -0.57301028802417     -1.56875302416793      1.53284343432634
  H   -1.74468295355785     -1.71253280758666      0.21260037318388
  H   -1.94726297068795     -0.45996443518630      1.44027759871988
  N   1.77726502017523      0.97310026402646     -0.48467842843869
  H   2.74064429160811      0.70818310613419     -0.60261307532468
  H   1.37612102905481      1.42290870069940     -1.29493253347888
