14
Coordinates from ORCA-job run
  C   0.65069582843043     -0.33062002195594      0.26962509294509
  C   -0.77888226681308     -0.20841018474699     -0.28111888258053
  H   0.60417844582539     -0.25535142215754      1.36188227430184
  H   -0.73892718870604     -0.29292334068268     -1.37380037916231
  H   1.00061676264877     -1.34195703000939      0.03303648452686
  C   1.61039848125830      0.70980000195099     -0.29767893795984
  H   1.65448137861463      0.64836318466664     -1.38851592007971
  H   1.29968385285352      1.72142612983590     -0.02862453915508
  H   2.62127945306808      0.55618086876713      0.08544370672720
  C   -1.31264667008192      1.12909542646098      0.02165681967717
  N   -1.69762310942871      2.20255819812396      0.29874611052370
  N   -1.73243125532754     -1.20924181783400      0.19219494107195
  H   -1.41967316081944     -2.12802619635185     -0.09974042422309
  H   -1.76015055152238     -1.20089379606722      1.20589365338675
