14
Coordinates from ORCA-job run
  C   0.52600857660713      0.65555910262898     -0.27767386355834
  C   -0.63149382175828     -0.34597037743336     -0.34602472706154
  H   0.19140875842454      1.52778393544048      0.29618441643406
  H   -0.29062844483454     -1.23410494883693     -0.88980552491109
  H   0.73885200745275      1.01156799620460     -1.29029515065320
  C   1.77248896834798      0.04517690777241      0.35142557980287
  H   1.56284483745305     -0.31052903861944      1.35940233685322
  H   2.12761665990033     -0.80358039374346     -0.23934928384070
  H   2.57961954595798      0.77955053638019      0.39899239506102
  C   -1.75412617995119      0.23489019333290     -1.11525574290978
  N   -2.66680247973210      0.70763820423377     -1.68430831128728
  N   -1.01472585777997     -0.77444481491498      0.99546868388044
  H   -1.71783759082154     -1.50216437157695      0.94439803355723
  H   -1.42422497926614      0.00762706913179      1.49484115863311
