14
Coordinates from ORCA-job run
  C   0.50682224584847      0.53201872422834     -0.41377561778728
  C   -0.77604952676729     -0.31379257092996     -0.32519036297873
  H   0.29285256035892      1.52481314271595     -0.00182264589379
  H   -0.57723638982440     -1.29401099285842     -0.77542650187554
  H   0.75780375802443      0.67589945633640     -1.46993610215133
  C   1.67819321622968     -0.11002157284456      0.32048216647520
  H   2.58481362650247      0.48565672439152      0.19777182923853
  H   1.88400331960962     -1.11184853624302     -0.06740358003359
  H   1.48600693868645     -0.19163997448699      1.39230045689683
  C   -1.82825421783510      0.32278462661322     -1.13409320419147
  N   -2.63655286035647      0.87628026874851     -1.78021997806003
  N   -1.30279582406645     -0.56039984610740      1.01343211725341
  H   -0.66385567083394     -1.14891413529262      1.53208138523035
  H   -1.40575117557637      0.31517468572903      1.51380003787744
