14
Coordinates from ORCA-job run
  C   0.57267311122902      0.53886424319828     -0.45459073507271
  C   -0.74595404881036     -0.22280721293541     -0.28450548295704
  H   0.41079433313021      1.56373247847999     -0.11032331010088
  H   -0.62480039825737     -1.22779338526718     -0.72215880859427
  H   0.81130124137476      0.57922215108500     -1.52192078034389
  C   1.71735783827472     -0.10721598751753      0.31810531634298
  H   2.66261939550028      0.38923306441967      0.09012986406828
  H   1.82835181775732     -1.16399946695986      0.05685647552043
  H   1.56307996474361     -0.02811749314135      1.39586633378014
  C   -1.80319241611650      0.44522476397706     -1.05545251025265
  N   -2.64188712024438      0.97718991838230     -1.68070493033721
  N   -1.14062186963186     -0.24956485862922      1.12603598368514
  H   -2.08208988308071     -0.61366743061672      1.21562979612772
  H   -0.52663196586875     -0.88030078447504      1.62703278813397
