14
Coordinates from ORCA-job run
  C   0.62954286141576     -0.11447158861884      0.54561333385821
  C   -0.70681095398405     -0.29266748373814     -0.17924558655457
  H   0.95468327433845     -1.10684180513947      0.87987328657447
  H   -0.52828637987094     -0.87973332739360     -1.09514809083367
  H   0.44065361249093      0.48056179357676      1.44324187555011
  C   1.70405966436760      0.52350171754517     -0.32664735577923
  H   2.64724712599678      0.59878312996332      0.21820162853123
  H   1.41556421104421      1.53065936920640     -0.63540079693163
  H   1.88629863167879     -0.06850015765440     -1.22778408496950
  C   -1.21970441344531      1.01397678394508     -0.61622392684657
  N   -1.61790919481379      2.05752306092013     -0.97656943230654
  N   -1.68328548239221     -0.90097045451055      0.72458240632625
  H   -1.35030816690402     -1.81981779543518      0.99305736268837
  H   -2.57174478992220     -1.02200324266667      0.25244938069308
