14
Coordinates from ORCA-job run
  C   0.72685162864970     -0.46517927409296     -0.46942906165860
  C   -0.79677556078105     -0.36295670197756     -0.32209522679908
  H   0.97122388898822     -0.42408276580395     -1.53561661138803
  H   -1.25581610507783     -1.12155259349824     -0.97562552786901
  H   1.01992325800422     -1.46266777554185     -0.11953427025637
  C   1.48317012270234      0.61207369804316      0.29841788743349
  H   1.23739605441079      1.60625696480494     -0.08191227223034
  H   2.56087288176979      0.46894839255386      0.19247030472275
  H   1.22957569905104      0.58382819113259      1.35779515071776
  C   -1.26747642445441      0.94311705326540     -0.80688485665604
  N   -1.64295143885921      1.97932347568628     -1.21097393582484
  N   -1.17578173943790     -0.50509577874309      1.08466478615413
  H   -2.18026954764981     -0.42028604210585      1.18820723285308
  H   -0.91094271731587     -1.43172684372271      1.39951640080109
