11
Coordinates from ORCA-job run
  C   -1.09110506390669      0.02168164335064     -0.59557863956920
  C   0.14795655665906     -0.46421233860008      0.13938674273888
  Br  -1.41762950791704      1.89697291701743     -0.26602036218732
  H   0.32502779257097     -1.51113909114953     -0.13147254420702
  H   -1.96166188869185     -0.53615017634804     -0.25213892942368
  H   -0.95058883889734     -0.11395054904323     -1.66606594930410
  C   0.05204082316900     -0.33974464674921      1.58776216881072
  N   -0.07532807704270     -0.29227989737339      2.75385282847937
  N   1.36783735472130      0.27560546888553     -0.38585577703359
  O   1.53464105303385      0.17864598656898     -1.59550391139170
  O   2.06880979630144      0.88257068344090      0.41063437308764
