11
Coordinates from ORCA-job run
  C   -1.13097249188708      0.37448158128736     -0.27453700955831
  C   0.07609862334559     -0.46575272738477      0.10802053344422
  Br  -1.37822797434864      0.36446161607284     -2.19176532005129
  H   0.01696798807949     -1.47485537292906     -0.30237687498277
  H   -2.02827745038044     -0.04152857345655      0.18180777373846
  H   -0.98357201403158      1.40418619445402      0.04567914989534
  C   0.22600042777806     -0.50501718639910      1.56072653574039
  N   0.30430519325112     -0.53242430827626      2.73223909722753
  N   1.33289450420605      0.14544298350054     -0.48102056801221
  O   2.04724817344293     -0.60081992445662     -1.13801024845660
  O   1.51753502054450      1.33182571758761     -0.24176306898474
