11
Coordinates from ORCA-job run
  C   -1.01021445979147      0.26994668681721     -0.63742396475636
  C   0.11187037782551     -0.37365632756361      0.16418720961161
  Br  -2.71278131103690     -0.41271802761131     -0.02285754928494
  H   0.08608518358388     -1.46169631886133      0.04577708277911
  H   -1.00981253878399      1.35097521309105     -0.50478066657458
  H   -0.90791134613647      0.01898875775740     -1.68895779624582
  C   0.06781378387032     -0.03096506729092      1.58082671419128
  N   -0.00583043277625      0.25788118383338      2.71646467150875
  N   1.46787691961775      0.04498161859860     -0.40763514596085
  O   1.49716559702992      0.26684161436350     -1.61254508633778
  O   2.41473822659769      0.06842066686604      0.36494453106956
