11
Coordinates from ORCA-job run
  C   -1.15394738750180      0.26221368462209     -0.30763008527055
  C   0.11932967831813     -0.45718294130012      0.10547334773286
  Br  -1.33752222311103      0.25510001402515     -2.23205603484574
  H   0.17584936646689     -1.46112820492592     -0.31772509610772
  H   -1.12214681642237      1.29677282964130      0.02905521167384
  H   -2.01854514283161     -0.24899326459255      0.11397903245228
  C   0.22618597926434     -0.50163442118656      1.56182898923070
  N   0.27046225649332     -0.53792629115130      2.73483160827090
  N   1.32583358374473      0.28608586207141     -0.43470016149690
  O   1.38154111362092      1.48147769387978     -0.17646764638500
  O   2.13295959195848     -0.37478496108327     -1.07558916525468
