11
Coordinates from ORCA-job run
  C   -1.03171308941398      0.20125670286099     -0.63073033243347
  C   0.12723050333013     -0.35622568550689      0.18354614318051
  Br  -2.69789494430648     -0.50296685027998      0.05500501507791
  H   0.13814691804594     -1.44926253689585      0.12393930808555
  H   -0.93880540501518     -0.10679630848684     -1.66795065179074
  H   -1.06721002258395      1.28765275407240     -0.55976453028998
  C   0.09572791405594      0.05873986922211      1.58080858029389
  N   0.05587168540013      0.37689020198542      2.71019037177899
  N   1.45366267164494      0.07865693316179     -0.44185680964017
  O   2.40218782876636      0.24459211304243      0.31094195976626
  O   1.46179594007615      0.16746280682441     -1.66412905402875
