17

C	0.0	0.0	0.0
C	-0.415517	0.191293	-1.452639
Cl	1.783696	0.0	0.0
H	0.063981	-0.631542	-1.996036
H	0.051768	1.112214	-1.80764
N	-0.356911	1.234468	0.837578
O	-0.317346	1.09956	2.055464
O	-0.600679	2.277762	0.242499
C	-0.587152	-1.216757	0.668745
H	-1.672019	-1.083415	0.744779
H	-0.379801	-2.093992	0.052913
H	-0.169279	-1.355489	1.664151
C	-1.911175	0.200274	-1.724862
H	-2.072244	0.432761	-2.781874
H	-2.456498	0.931664	-1.133026
H	-2.390853	-0.754768	-1.518827
Cl	-4.785437	0.0	0.0
