17

C	0.0	0.0	0.0
C	-0.58497	-0.20881	-1.381083
Cl	1.771479	0.0	0.0
H	-0.509975	-1.281991	-1.581411
H	-1.654793	0.004641	-1.266823
N	-0.375234	1.401897	0.533641
O	-0.935117	2.180405	-0.22913
O	-0.076155	1.638245	1.699804
C	-0.535966	-1.002033	0.996394
H	-0.242114	-2.006424	0.6853
H	-0.142902	-0.800625	1.992145
H	-1.62899	-0.919754	0.990123
C	0.037912	0.567948	-2.535291
H	-0.598695	0.463489	-3.417264
H	1.029297	0.186766	-2.787813
H	0.118341	1.6294	-2.309993
Cl	-3.884691	0.0	0.0
