17

C	0.0	0.0	0.0
C	-0.42423	-0.903912	-1.150492
Cl	1.784145	0.0	0.0
H	0.048143	-1.87195	-0.948388
H	0.037177	-0.515436	-2.06034
N	-0.362157	1.459353	-0.303593
O	-0.418159	2.226905	0.650619
O	-0.507804	1.772398	-1.479628
C	-0.565992	-0.384858	1.342701
H	-0.163536	0.249288	2.129852
H	-1.655522	-0.280456	1.316791
H	-0.309235	-1.427304	1.54243
C	-1.924468	-1.07613	-1.332806
H	-2.099066	-1.668477	-2.235262
H	-2.460579	-0.135596	-1.438935
H	-2.403114	-1.5886	-0.500528
Cl	-4.8359	0.0	0.0
