17

C	0.0	0.0	0.0
C	-0.445136	0.199484	-1.440154
Cl	1.784463	0.0	0.0
H	-0.029032	-0.646967	-1.997198
H	0.045198	1.099003	-1.816444
N	-0.360663	1.236086	0.834377
O	-0.389249	2.315485	0.254403
O	-0.53591	1.066952	2.036103
C	-0.560552	-1.228905	0.667251
H	-1.644327	-1.123306	0.763406
H	-0.33872	-2.098027	0.04498
H	-0.129303	-1.368432	1.655952
C	-1.951352	0.281835	-1.634736
H	-2.481543	-0.619486	-1.337502
H	-2.160521	0.458662	-2.693011
H	-2.409374	1.089619	-1.068737
Cl	-4.892506	0.0	0.0
