18

C	0.0	0.0	0.0
C	-0.360549	0.008017	-1.546221
Cl	1.808451	0.0	0.0
H	0.508154	0.460368	-2.028958
N	-0.246436	1.452932	0.578679
O	-0.592963	1.525652	1.753108
O	-0.031667	2.416299	-0.150758
N	-0.639417	-0.959569	0.75147
H	-1.67179	-0.7491	0.55157
H	-0.457916	-0.800591	1.736102
N	-1.522191	0.73689	-2.000102
H	-1.346927	1.724743	-1.867023
H	-2.301056	0.479916	-1.364929
C	-0.486508	-1.445916	-1.989245
H	0.3484	-2.062709	-1.64887
H	-0.546896	-1.464136	-3.080063
H	-1.412787	-1.849722	-1.579182
F	-2.947787	0.0	0.0
