18

C	0.0	0.0	0.0
C	-0.219183	-0.005349	-1.560206
Cl	1.822303	0.0	0.0
H	0.38715	-0.874562	-1.830822
N	-0.339947	1.387922	0.628529
O	-0.887108	2.241831	-0.055157
O	-0.084056	1.50095	1.827064
N	-0.67397	-1.01637	0.644181
H	-1.733906	-0.713661	0.427204
H	-0.50265	-0.941969	1.642054
N	0.427413	1.172139	-2.151551
H	0.933587	0.89756	-2.984324
H	-0.291477	1.834584	-2.415475
C	-1.594662	-0.250878	-2.15992
H	-2.055152	-1.162896	-1.792693
H	-1.436735	-0.324814	-3.246186
H	-2.28626	0.548167	-1.915056
F	-2.899383	0.0	0.0
