15

C	-0.377231	-0.017898	-1.497276
C	0.0	0.0	0.0
Br	-2.348275	-0.087635	-1.695354
H	1.099388	0.0	0.0
C	0.054871	1.228579	-2.12381
N	0.394808	2.235339	-2.627146
C	0.255633	-1.223051	-2.185545
H	0.040518	-1.203442	-3.255407
H	1.338633	-1.178756	-2.014727
H	-0.145322	-2.143142	-1.756795
C	-0.461282	-1.21391	0.668896
N	-0.810681	-2.204422	1.195484
C	-0.489126	1.18954	0.692554
N	-0.867477	2.151516	1.252096
Br	3.310915	0.0	0.0
