15

C	-0.365736	-0.032607	-1.501988
C	0.0	0.0	0.0
Br	-2.324526	-0.209857	-1.728491
H	1.099407	0.0	0.0
C	-0.000277	1.23811	-2.121639
N	0.283306	2.264578	-2.619771
C	0.337532	-1.199194	-2.183925
H	1.412755	-1.094093	-2.002667
H	0.130319	-1.191465	-3.254915
H	-0.012061	-2.140909	-1.757078
C	-0.448378	-1.217198	0.672124
N	-0.792135	-2.204531	1.208023
C	-0.510688	1.184571	0.680976
N	-0.924897	2.13704	1.22992
Br	3.309269	0.0	0.0
