15

C	-0.437227	0.012613	-1.486695
C	0.0	0.0	0.0
Br	0.212413	-1.644665	-2.308797
H	1.097332	0.0	0.0
C	-1.895107	0.006272	-1.606236
N	-3.067354	0.037405	-1.698041
C	0.185727	1.209919	-2.199461
H	-0.04777	1.17478	-3.264431
H	-0.216228	2.134759	-1.776241
H	1.26785	1.177991	-2.047259
C	-0.49588	-1.170426	0.721386
N	-0.886184	-2.109977	1.309231
C	-0.467223	1.223359	0.65472
N	-0.832543	2.221218	1.156725
Br	3.314385	0.0	0.0
