15

C	-0.410393	-0.016403	-1.498586
C	0.0	0.0	0.0
Br	0.18397	-1.717544	-2.270372
H	1.09182	0.0	0.0
C	-1.863303	0.03424	-1.646021
N	-3.03388	0.091138	-1.75232
C	0.284197	1.127108	-2.23146
H	0.06646	1.074998	-3.298848
H	-0.073076	2.082979	-1.838617
H	1.359865	1.042087	-2.058101
C	-0.518725	-1.142655	0.7453
N	-0.944686	-2.051083	1.356525
C	-0.467007	1.246491	0.607261
N	-0.857242	2.260235	1.054165
Br	3.333804	0.0	0.0
