15

C	-0.40088	0.239673	-1.481137
C	0.0	0.0	0.0
Br	0.167908	-1.321176	-2.522999
H	1.108033	0.0	0.0
C	-1.850609	0.349216	-1.630215
N	-3.013	0.481884	-1.750739
C	0.319207	1.476238	-2.011247
H	-0.026662	2.360259	-1.468499
H	0.11063	1.60522	-3.074068
H	1.391973	1.345308	-1.847279
C	-0.522409	-1.250563	0.540934
N	-0.951174	-2.248705	0.988416
C	-0.45914	1.128122	0.811316
N	-0.833275	2.050625	1.436006
Br	3.331733	0.0	0.0
