12
Coordinates from ORCA-job run
  C   0.32488486872179     -0.08616980448235     -0.15000440719411
  C   -0.59367415506555      0.84420842959710      0.19749833883380
  H   -0.44663949590780      1.88001255925459     -0.08404003359229
  N   0.17003719993531     -1.44075531890351      0.20183192881573
  H   0.30091164577944     -2.03218600737964     -0.61037268978339
  H   0.86608973249006     -1.72051977962819      0.88413438713963
  N   1.49385775453576      0.32904028922780     -0.91514840210463
  O   2.27842466663356     -0.56812469167578     -1.23944849795744
  O   1.63229019613471      1.51730723250027     -1.20449768399893
  N   -1.67742794824602      0.54975436710671      0.96652548593296
  H   -2.47112487428554      1.16298151477882      0.90337575516633
  H   -1.87662959072571     -0.43654879039582      1.05114581874236
