12
Coordinates from ORCA-job run
  C   0.36663280630499     -0.10252655568564     -0.25676545347683
  C   -0.40452531784749      0.82218222622586      0.35275965855354
  H   -0.02122114445373      1.82636500916081      0.47897690598962
  N   -0.03172337726516     -1.34534343329995     -0.73080855773710
  H   -1.03012485980460     -1.47229278265697     -0.76047487288982
  H   0.47706462702551     -2.14088562701772     -0.37875896779605
  N   1.75883269317875      0.22970745548605     -0.54135950317917
  O   2.13816288474394      1.39135064185191     -0.40278737113098
  O   2.48125993926468     -0.71636001761027     -0.86104707696770
  N   -1.72724824277305      0.58925251131997      0.71301107657761
  H   -1.91026457602255     -0.35232169714759      1.03141436373034
  H   -2.09684543235129      1.27087226937352      1.35583979832655
