12
Coordinates from ORCA-job run
  C   0.40942633376696     -0.14259490594141     -0.15127689612389
  C   -0.33518026792954      0.44143164184871      0.81095726697949
  H   0.16108954504380      0.99606063141970      1.59669155384209
  N   -0.01153299371394     -1.08539213310038     -1.07940252191560
  H   0.14240507675745     -0.85758997118346     -2.04891420497349
  H   -0.91745156825144     -1.47878078674025     -0.88376009257879
  N   1.83570073730047      0.16117233203198     -0.20913633700888
  O   2.35672947343059      0.77161810806628      0.72273151248492
  O   2.41602811314683     -0.18568424711561     -1.23977866944777
  N   -1.70958966948148      0.26047555106120      0.92116835791434
  H   -2.15746973981143      0.92810954344744      1.52790910079100
  H   -2.19015504025826      0.19017423620580      0.03481093003659
