12
Coordinates from ORCA-job run
  C   0.32496951392653     -0.11784007201741     -0.12641376603737
  C   -0.41747369242133      0.42303119996907      0.86691800377091
  H   0.06080289821590      0.75308456275739      1.78125217484063
  N   -0.26335509553899     -0.56309585435429     -1.32582553867418
  H   -0.21234851175767     -1.57300956601603     -1.40114953415320
  H   0.23268671943343     -0.18293362767317     -2.12324647087405
  N   1.76598663293537     -0.23630076159410      0.05486565320366
  O   2.39842719023002     -0.69936829282012     -0.89975615384397
  O   2.27153709525364      0.13455865252013      1.11409782149525
  N   -1.77418834435524      0.50566475402126      0.80204873891664
  H   -2.22667696577158      1.19401213224867      1.37749340362939
  H   -2.16136744015007      0.36219687295860     -0.11928433227372
