12
Coordinates from ORCA-job run
  C   0.33321893743334     -0.09447228044751     -0.12473614483197
  C   -0.48585623516587      0.81282136851594      0.45532561277994
  H   -0.12110747601926      1.81040235012922      0.66868488619117
  N   -0.10274519925488     -1.40182632850302     -0.41392613018633
  H   0.37445743306126     -2.08014739091465      0.16946233587487
  H   0.11053471100373     -1.63916646955947     -1.37555004727408
  N   1.69253501487846      0.30270721808038     -0.46920281784075
  O   2.38043063190560     -0.54996452449371     -1.03971755660248
  O   2.07517023492777      1.43985011347284     -0.19434204253838
  N   -1.74623105262295      0.50342489086537      0.86401810736508
  H   -2.10961284103186     -0.36226366655682      0.49279629046301
  H   -2.40079415911534      1.25863471941144      0.96818750659993
