12
Coordinates from ORCA-job run
  C   0.18371314225013     -0.37914123580372     -0.24572206433614
  C   -0.89736856940283      0.03649885418392      0.46974746492284
  H   -1.72125560782859     -0.67000706034101      0.53725046152532
  N   0.32472200963442     -1.66969322686605     -0.79257140676899
  H   -0.56304951391610     -2.03411401540770     -1.10718789629416
  H   0.98861684081171     -1.65241659031670     -1.55491268381389
  N   1.34662008047684      0.44752433185743     -0.39218044250626
  O   1.37253264110745      1.55109228533321      0.17538070088228
  O   2.26806729912384      0.01377243643090     -1.09412633605422
  N   -1.13942269900976      1.25599978431134      1.04281177389092
  H   -0.32843988443788      1.83511595683167      1.19240654076372
  H   -1.83473573880921      1.26436847978670      1.76910388778860
