12
Coordinates from ORCA-job run
  C   0.15175388113394     -0.41758628761785     -0.17535364594463
  C   -1.03291941780509      0.17463502987924      0.14703233142144
  H   -1.90841658171283     -0.42457007262124     -0.08183040230453
  N   0.17180673450359     -1.70197790624186     -0.75258841949260
  H   0.68224327155148     -2.35009686645902     -0.16425114236362
  H   0.64760278659041     -1.68231782107461     -1.64682392121475
  N   1.41062039771214      0.26047300594872      0.04700046380937
  O   1.39829087227372      1.39212107684612      0.55743749206775
  O   2.44084123607607     -0.32790250554985     -0.29144202928254
  N   -1.26700535452318      1.35815660562223      0.75267888582183
  H   -0.49281945154326      1.99227316261625      0.86445007484777
  H   -2.20099837425700      1.72479257865186      0.74169031263451
