12
Coordinates from ORCA-job run
  C   0.32477090042367     -0.11920751458657     -0.12565246960196
  C   -0.38978860916063      0.61988354534888      0.75390392022694
  H   0.12175970006902      1.26068352760027      1.46202989228553
  N   -0.30430468931389     -0.96664496924424     -1.05758161855847
  H   -0.12221770149880     -1.94081837746559     -0.84316512518516
  H   0.05832440092806     -0.79723915748835     -1.98830148392256
  N   1.77885325618389     -0.01888807985532     -0.11247850893782
  O   2.32440666811951      0.70505836831895      0.72002270873499
  O   2.37704897197337     -0.67593600944408     -0.97044656514234
  N   -1.74515531918417      0.53551339530406      0.84775331706537
  H   -2.23155362534023      1.31921048316354      1.24673103910639
  H   -2.19214395319980      0.07838478834845      0.06618489392912
