12
Coordinates from ORCA-job run
  C   0.15538161343843     -0.38929415955626     -0.23880115023058
  C   -0.74884859685891     -0.02525780234249      0.71135571268637
  H   -1.38099586465532     -0.82427816209986      1.09017383506130
  N   0.29613706040708     -1.71684856772730     -0.69542666541805
  H   1.00429504595673     -1.75133096872261     -1.41645637415865
  H   -0.57530677657745     -2.07100914414039     -1.06426767861934
  N   1.11048528520022      0.54719089632914     -0.76287404977319
  O   1.92619034083508      0.12759951105972     -1.59308162143118
  O   1.10105895859099      1.71294604991759     -0.33817108304432
  N   -1.04063982561700      1.22004967356841      1.19237215971367
  H   -1.50786608489477      1.24602914908518      2.08197763732764
  H   -0.33889115582508      1.92520352462888      1.03319927788633
