12
Coordinates from ORCA-job run
  C   0.32450332338591     -0.06726034245679     -0.16045090890489
  C   -0.51793253694062      0.79055594694032      0.45958964223195
  H   -0.18559143213945      1.79161181672795      0.70679242176955
  N   -0.07550604063934     -1.37410162770352     -0.50063440901383
  H   -0.14314521637555     -1.48138692667277     -1.50674911346712
  H   0.61151805539551     -2.04570011817352     -0.17892184941085
  N   1.67900252184216      0.37292598496342     -0.46746638917626
  O   2.01389007006017      1.52491389403461     -0.19250000918677
  O   2.42043263678024     -0.46888429860549     -0.98451841571972
  N   -1.81500851471925      0.47606795054375      0.72399317720847
  H   -2.03446600000264     -0.50635911527402      0.64652987109437
  H   -2.27869686664713      0.98561683567609      1.45533598257511
