12
Coordinates from ORCA-job run
  C   0.31429768107832     -0.09211179972275     -0.16785062817726
  C   -0.35730383768598      0.68098436917375      0.71614986293677
  H   0.14947158041444      1.50066316645179      1.21118066146617
  N   -0.30946174032577     -1.16864291062012     -0.82725935485311
  H   -0.14282281685633     -1.11359717927275     -1.82512663024902
  H   0.07053471423828     -2.05499135668938     -0.51386423098062
  N   1.71184266119825      0.21077054494598     -0.44926050385293
  O   2.25772378537907      1.13935888741819      0.14622590818462
  O   2.26164027949705     -0.49765404654337     -1.29863689832551
  N   -1.64340979301202      0.42562382115341      1.08043898602717
  H   -2.18161515437170      1.18851655676512      1.45204696435329
  H   -2.13189735955360     -0.21892005305987      0.47595586347043
