12
Coordinates from ORCA-job run
  C   0.42684247507712     -0.08355756069439     -0.14637001442708
  C   -0.43978590826470      0.70546497498310      0.52274385164738
  H   -0.14270555336959      1.71408641316290      0.77890965574235
  N   0.33433950261255     -1.45559349699098     -0.33894325394212
  H   0.36430049467297     -1.77344207603481     -1.29489148426944
  H   -0.37172491379589     -1.90143670553956      0.22371624989787
  N   1.65099830568551      0.51401985404569     -0.67001588227571
  O   1.95440612699913      1.65577172984249     -0.32833761325742
  O   2.28078894529806     -0.17367247245089     -1.47607143794780
  N   -1.65570201856314      0.24685462606273      1.01816285823139
  H   -2.11427046997316     -0.43205231042944      0.42631592349219
  H   -2.28748698637885      0.98455702404314      1.28478114710838
