12
Coordinates from ORCA-job run
  C   0.34243912319619     -0.10430541695265     -0.08488220346254
  C   -0.51434091654826      0.54137912489352      0.73927320743862
  H   -0.13112898043554      1.10871650471864      1.57893564312715
  N   -0.11708577893354     -0.85693831708325     -1.18265360070103
  H   0.38345376901985     -0.59463730620807     -2.02356963084689
  H   0.04920412126867     -1.84663978382972     -1.03759873420560
  N   1.77402335790903     -0.00625040300568      0.17025410383960
  O   2.16897949557364      0.63275861387411      1.14526085016728
  O   2.51125684923099     -0.57592003819278     -0.64071920884463
  N   -1.86559441252248      0.44780998419601      0.60770953456476
  H   -2.42335885042384      1.18367107530495      1.00410081897249
  H   -2.17784777733470      0.07035596228491     -0.27511078004920
