12
Coordinates from ORCA-job run
  C   0.37898873322250     -0.11252715199435     -0.08917670375977
  C   -0.45584428897964      0.54492030507609      0.74301260771970
  H   -0.09691312815966      1.08824531938273      1.60577521732733
  N   -0.05837980716488     -0.90043613104622     -1.13692927937567
  H   0.66360309259551     -1.20183042109578     -1.76736956296188
  H   -0.70888392766813     -1.62157862529435     -0.86781733086368
  N   1.81880560083674      0.05682946625761      0.05265188711183
  O   2.24227877348886      0.77269481255192      0.95771970208945
  O   2.52498980655996     -0.53703670439010     -0.76748406283518
  N   -1.83391355991159      0.41744930508020      0.57572000482203
  H   -2.10675853163603      0.39594865598970     -0.40060138938663
  H   -2.36697276318362      1.09732116948255      1.09549891011248
