12
Coordinates from ORCA-job run
  C   0.15800054302121     -0.40774005328886     -0.19124439867596
  C   -1.03288794484223      0.14164123880387      0.18048211552602
  H   -1.88524817260264     -0.51973195324201      0.06222397393272
  N   0.21108393211337     -1.72676663923063     -0.68150021980130
  H   0.58149166517225     -1.74296740823317     -1.62450634983240
  H   0.83168654397534     -2.29207993188912     -0.11430340407786
  N   1.39307648340046      0.33732648326419     -0.07480322960470
  O   1.35105289091899      1.50130107127143      0.35479746326619
  O   2.43473073812131     -0.23367859452846     -0.40793538348762
  N   -1.30668015119803      1.39030153611709      0.61440921172379
  H   -2.20455642214614      1.56730283098760      1.02609048226128
  H   -0.53175010593391      1.98609141996807      0.85628973876987
