12
Coordinates from ORCA-job run
  C   0.32057542742385     -0.10473677796499     -0.14742266629521
  C   -0.36678674380038      0.52408520498324      0.83352412669170
  H   0.16729613667248      1.06923335033508      1.60248654095210
  N   -0.33696424058730     -0.82583834067628     -1.16220053018321
  H   -0.15688632766285     -1.81995234624822     -1.07589556421079
  H   0.00412516628106     -0.54274492491603     -2.07321884525330
  N   1.77566111939828     -0.01659285202584     -0.15547653042827
  O   2.34622444207657      0.59777430501407      0.74556451860943
  O   2.34865098597422     -0.56962300272677     -1.09965644007233
  N   -1.72020006576348      0.43802274082107      0.94815959265763
  H   -2.19071239554944      1.16736927814462      1.45462228632873
  H   -2.18998350446301      0.08400336526005      0.12751351120353
