12
Coordinates from ORCA-job run
  C   0.31947209944413     -0.13322986060272     -0.12448875435649
  C   -0.38591434891701      0.86503847978167      0.45519801526095
  H   0.12779094436976      1.74359008413850      0.82666274370616
  N   -0.31188633997002     -1.28896361215273     -0.62227046922639
  H   0.14734607434839     -2.12062852742027     -0.27030376256727
  H   -0.25475479005569     -1.32646962055023     -1.63393604468344
  N   1.76883427708304     -0.00856291253985     -0.21891084913553
  O   2.31337806470437      1.01296762623694      0.19918186267429
  O   2.36607761489051     -0.96953812862326     -0.71434002650971
  N   -1.74504960825199      0.85424202311455      0.52537165518912
  H   -2.16846787989491     -0.04355508792308      0.34053791510396
  H   -2.17782610775060      1.41610953654048      1.23729771454434
