12
Coordinates from ORCA-job run
  C   0.15150981167936     -0.30603393851484     -0.36204859929556
  C   -0.88945517531399      0.05131581682021      0.43840774178224
  H   -1.72256192424796     -0.64683986496701      0.47961666515836
  N   0.15877735741906     -1.39414650101714     -1.24874077074242
  H   -0.67636679001456     -1.95436432814039     -1.15832650520996
  H   0.99202744204853     -1.95847454685347     -1.15054746168536
  N   1.36162743941030      0.47027941356589     -0.41170332289754
  O   1.38553902178989      1.57891744978094      0.14459976119285
  O   2.33309392953809     -0.04359804367810     -0.97327653315587
  N   -1.09939207252316      1.22672905050381      1.11242272090432
  H   -1.70779229682022      1.16426837933064      1.91117920062203
  H   -0.28600674296534      1.81294711316948      1.21941710332691
