12
Coordinates from ORCA-job run
  C   0.21621408481282     -0.37505897292446     -0.24639426044087
  C   -0.85625908826586      0.00034549490701      0.50298568386431
  H   -1.70712643307427     -0.67714152925932      0.49262267712001
  N   0.37207408360897     -1.61950496863081     -0.87675622529489
  H   -0.45867892051376     -2.18718225132289     -0.79270146997259
  H   0.65502057550710     -1.52330582302948     -1.84270263339268
  N   1.35405902508300      0.48893693487173     -0.41400943830369
  O   2.16887058421246      0.17763030970549     -1.28725643733401
  O   1.43666184173754      1.51323493938738      0.28127341180146
  N   -0.98050106243976      1.05617203997084      1.36778936995246
  H   -0.27969476460178      1.77517316385472      1.27657311045412
  H   -1.92063992606644      1.37070066246979      1.53757621154637
