12
Coordinates from ORCA-job run
  C   0.37677750363824     -0.07975157429833     -0.19452151226605
  C   -0.40351330640416      0.50398943047985      0.73848612663711
  H   0.05180318994094      1.23095048696366      1.39790383106779
  N   0.04250291918992     -1.07809960146415     -1.11620891983281
  H   0.47470629777756     -0.91285757406050     -2.01498930654766
  H   -0.95644383511925     -1.18081400400704     -1.21833113004421
  N   1.77301266766162      0.32295282513260     -0.26081066278678
  O   2.25780953315116      0.97844880067965      0.65996467861432
  O   2.38384213217606     -0.01925967193325     -1.27795124177807
  N   -1.76823400066882      0.29587264953109      0.88646358407071
  H   -2.11056280238432     -0.60943831257477      0.60475815462312
  H   -2.12070029895894      0.54800654555120      1.79523639824253
