12
Coordinates from ORCA-job run
  C   0.08967368579735     -0.34923065848458     -0.31361082824117
  C   -0.99524992238132      0.22732849029008      0.27755353450396
  H   -1.94318523068586     -0.23217562866506      0.01655090123422
  N   -0.07215755377302     -1.44534897747853     -1.18263798163529
  H   0.45328792650240     -2.24486879640949     -0.84926373283575
  H   0.28410709610749     -1.22554687749482     -2.10537518073004
  N   1.42758112939091      0.13586226774208     -0.05329279451253
  O   1.57496506085870      1.10451486209273      0.70933564839643
  O   2.36221729085666     -0.44986515466122     -0.60609203530120
  N   -1.06182878275967      1.30327229058494      1.08869270539480
  H   -1.91964844719265      1.48946685822218      1.57442833380192
  H   -0.20076225272101      1.68559132426170      1.44371142992465
