12
Coordinates from ORCA-job run
  C   0.37732708235949     -0.12568054735539     -0.16604467682792
  C   -0.40569956118206      0.76318545359793      0.47882609062553
  H   -0.02329564199841      1.74153475647925      0.74102561149204
  N   0.00356343817818     -1.41111998871807     -0.52699521911111
  H   -0.99061562031228     -1.43474123152518     -0.72588175869809
  H   0.56049043344411     -1.75693385479924     -1.29707264013962
  N   1.75037722134200      0.24253903429783     -0.48718712783245
  O   2.21477111937734      1.27522444740805     -0.01083780781001
  O   2.32665938858743     -0.47517587176776     -1.31232443389579
  N   -1.73002815480377      0.38933101425813      0.77534275902091
  H   -1.80023781680212     -0.37900974954956      1.43104621491613
  H   -2.28131188818990      1.16984653767401      1.09910298826039
