12
Coordinates from ORCA-job run
  C   0.15371541879194     -0.41692332790717     -0.17375303853965
  C   -0.96654225621981      0.08076013459296      0.42220892608397
  H   -1.78281763398349     -0.63027578231935      0.50041771202002
  N   0.18652172660421     -1.75004760622274     -0.62610881163021
  H   0.39644126180433     -1.78438338501494     -1.61665046287139
  H   0.91707226248012     -2.27019218680537     -0.15442027886330
  N   1.32184945231930      0.41214045707156     -0.37831479958738
  O   1.29907987542119      1.58656950554459      0.02339245350565
  O   2.28760978622680     -0.09753971394608     -0.95227449604853
  N   -1.18282521965644      1.29419842939932      0.97461711875288
  H   -2.12877170897109      1.55886048666799      1.18092036854098
  H   -0.50233296481706      2.01583298893923      0.79996530863696
