12
Coordinates from ORCA-job run
  C   0.39080531489298     -0.07830379457994     -0.16023838146896
  C   -0.57445292502207      0.74423682738653      0.29898448385911
  H   -0.41473298936180      1.81007745492863      0.19472707106480
  N   0.34744412977581     -1.46923467968437     -0.20149926153910
  H   -0.26870388312182     -1.84222709669920      0.50848632524485
  H   1.26375212653758     -1.88838071295386     -0.13227649228964
  N   1.56118241678173      0.49919346913631     -0.80415601856511
  O   1.58503967182958      1.70569519631674     -1.04294019838187
  O   2.45269610515831     -0.29363918532163     -1.12371210633779
  N   -1.74170928757857      0.27864767014118      0.88771391538632
  H   -2.21967548553545     -0.46990606366860      0.40919656137814
  H   -2.38064519435628      1.00384091499820      1.16571410164925
