12
Coordinates from ORCA-job run
  C   0.41028642038839     -0.13995952316618     -0.15267316478469
  C   -0.33664573863067      0.42653166369820      0.81845186686548
  H   0.15796205018896      0.96516631930517      1.61628841473118
  N   -0.00913747915547     -1.06421000930982     -1.09976061908085
  H   0.14380118330759     -0.81750894114508     -2.06471986804946
  H   -0.91293813994029     -1.46548425682230     -0.91072498049629
  N   1.83631936917080      0.16626860670529     -0.20266149858012
  O   2.35629202447914      0.75731828864307      0.74220389180376
  O   2.41777370351625     -0.15736842296650     -1.24026771169748
  N   -1.71107121327622      0.24305650387810      0.92199449125972
  H   -2.18932214538120      0.18706550475697      0.03340020121112
  H   -2.16132003466727      0.89912426642308      1.53946897681764
