12
Coordinates from ORCA-job run
  C   0.10086842942195     -0.37841016618561     -0.27258482223658
  C   -0.92384262093402      0.05902099785682      0.51270204451629
  H   -1.79354348705347     -0.59019075802922      0.51504006131910
  N   -0.01924268412635     -1.58172211431886     -0.99415825754294
  H   0.10704383823992     -1.41653854549213     -1.98572123588642
  H   0.69869274202121     -2.23947523004424     -0.71378723292575
  N   1.32433861361646      0.38398440510040     -0.39761725144214
  O   2.19971358173956     -0.06423074869662     -1.14254720166909
  O   1.43586748929009      1.44461197246260      0.23789495803103
  N   -0.98822013490548      1.13888842435108      1.32069323196737
  H   -1.88511525535175      1.41830165797555      1.67365280011638
  H   -0.25656051195813      1.82676010502023      1.24543290575275
