12
Coordinates from ORCA-job run
  C   0.31540385148941     -0.09290644837927     -0.16546988208388
  C   -0.41577886636974      0.79695614325908      0.54441209743448
  H   -0.00811530437286      1.77578657325106      0.76673807282624
  N   -0.17837038999372     -1.37609498741808     -0.46897679584245
  H   0.33974685286194     -2.09117111511506      0.02936587968443
  H   -0.07132379881568     -1.56969916557816     -1.45763940822565
  N   1.64069407006797      0.29616259685661     -0.63093840778899
  O   2.07748496524401      1.40956703277740     -0.34043657607433
  O   2.24343211911199     -0.53745013832774     -1.31456880133644
  N   -1.63338830566647      0.48929061947930      1.06818714270642
  H   -2.05366717740442     -0.34934952783699      0.69493786650807
  H   -2.25611801615243      1.24990841703184      1.27638881219210
