12
Coordinates from ORCA-job run
  C   0.06509427880714     -0.39257164437517     -0.26436818689264
  C   -0.76513605564389      0.03321598972886      0.72943717496173
  H   -1.46815681276288     -0.71755716263954      1.07594164047951
  N   -0.03169630253609     -1.70781294228706     -0.75812274047437
  H   -0.25116609024610     -1.70281779105876     -1.74737556331739
  H   0.85310760914002     -2.19110893984395     -0.65798704192169
  N   1.07498260534732      0.48240856381434     -0.81923956825742
  O   1.80667633463244      0.02041676350246     -1.69868816471069
  O   1.16178238498272      1.64393729881523     -0.38949417775381
  N   -0.87615595569263      1.25402195108111      1.29518015280511
  H   -1.40595404210987      1.34126958513599      2.14293147381654
  H   -0.16237795391818      1.93459832812650      1.09178500126514
