17

C	0.0	0.0	0.0
C	-0.480399	-0.085039	-1.436612
F	1.427692	0.0	0.0
H	-0.086788	-1.019739	-1.857311
H	-1.571105	-0.167827	-1.386231
C	-0.466991	1.241839	0.722846
H	-1.559447	1.26169	0.691005
H	-0.050351	2.139199	0.262695
H	-0.134787	1.208856	1.765079
N	-0.436032	-1.156569	0.705711
H	-0.119748	-1.997044	0.239685
H	-0.08826	-1.144906	1.655736
C	-0.048853	1.089109	-2.307681
H	-0.567458	2.004856	-2.018981
H	-0.293158	0.895869	-3.355561
H	1.028382	1.257824	-2.233071
Cl	-4.124601	0.0	0.0
