17

C	0.0	0.0	0.0
C	-0.306089	-0.418335	-1.4449
F	1.399626	0.0	0.0
H	0.000409	-1.46801	-1.514187
H	0.402267	0.152469	-2.055511
C	-0.445757	1.411685	0.328829
H	-0.07509	2.12222	-0.414943
H	-0.043797	1.69794	1.30591
H	-1.536747	1.45363	0.364395
N	-0.473165	-0.99407	0.922925
H	-0.494348	-0.608056	1.861568
H	-1.438196	-1.209212	0.684708
C	-1.71512	-0.222088	-1.978823
H	-2.481458	-0.746797	-1.411593
H	-2.010541	0.827643	-1.954963
H	-1.764369	-0.559426	-3.019183
Cl	-4.463892	0.0	0.0
