17

C	0.0	0.0	0.0
C	-0.26151	0.247901	-1.497204
F	1.405193	0.0	0.0
H	0.211483	1.205971	-1.745248
H	0.32984	-0.520293	-2.014467
C	-0.508697	1.099754	0.899809
H	-0.097765	2.061385	0.585326
H	-1.600724	1.136025	0.852596
H	-0.198883	0.894025	1.92661
N	-0.452745	-1.27022	0.494878
H	-0.350761	-1.973537	-0.22916
H	-1.446089	-1.1979	0.70376
C	-1.696654	0.217733	-1.989759
H	-1.713486	0.367815	-3.074541
H	-2.187433	-0.728849	-1.770172
H	-2.324269	0.974834	-1.525614
Cl	-4.352575	0.0	0.0
