11
Coordinates from ORCA-job run
  C   1.17454506939527      0.05374194312173      0.37213764889355
  C   -0.16891399040195      0.20555379771243     -0.32959353692113
  Cl  1.99528653343259      1.62641702978963      0.39413882125887
  H   -0.01577442649811      0.57180312510562     -1.34977931584316
  H   1.79413836735837     -0.65327622119261     -0.17162527057654
  H   1.03278985583998     -0.28119268638949      1.39902739706886
  C   -1.07743260225383      1.09738553852367      0.38064244262253
  N   -1.77275607495479      1.83323406055508      0.97478308670113
  N   -0.83284578511325     -1.15850349289894     -0.49744488577533
  O   -0.07468002050615     -2.11171422755995     -0.63373614088098
  O   -2.05435692629813     -1.18244886676717     -0.53855024654782
