11
Coordinates from ORCA-job run
  C   1.20803057337122      0.21644686708717      0.20667404285218
  C   -0.17822543219631      0.20027708957627     -0.41708472783235
  Cl  1.12133190378116     -0.10672768950049      1.94536609038719
  H   -0.07751182531841      0.34326369005307     -1.49822295283464
  H   1.65871820636286      1.19734835858325      0.05659080461865
  H   1.81520066838579     -0.55556866411062     -0.26239999136593
  C   -1.07155093064053      1.20952058319907      0.13530557931335
  N   -1.74930750981130      2.07263918990494      0.55171445313892
  N   -0.77601525289630     -1.18909308473235     -0.26615731736289
  O   -0.09171963735917     -2.08732724412900     -0.74063864930733
  O   -1.85895076367901     -1.29977909593132      0.28985266839285
