11
Coordinates from ORCA-job run
  C   1.12436006939021      0.10103916003942      0.44086897148494
  C   -0.18608510845872      0.27156180128675     -0.32100793391937
  Cl  1.82573954720853      1.69237899340519      0.77514802749095
  H   -0.02786069057463      0.82749418111129     -1.24587970656702
  H   1.82551525635402     -0.46442280518536     -0.17364289060759
  H   0.94464359033683     -0.41270358569551      1.38348538536888
  C   -1.22394806545333      0.90275960180123      0.48556605977510
  N   -2.05224638368232      1.42305224315889      1.13458183317343
  N   -0.64789319253703     -1.11016996787235     -0.73079085523347
  O   -0.61099555891070     -1.36647340308891     -1.92877948444543
  O   -0.97122946367285     -1.86451621896065      0.17945059347958
