11
Coordinates from ORCA-job run
  C   1.18747245165135      0.09472754608691      0.32394853628857
  C   -0.19174706839279      0.20346735421714     -0.31442308243617
  Cl  1.94615631705250      1.69825841211789      0.33915284216009
  H   -0.09753610352211      0.58934681925280     -1.33446877797099
  H   1.10536121310418     -0.26327521262247      1.34975211758651
  H   1.80892462501907     -0.57729491250207     -0.26070772807295
  C   -1.10195575379297      1.05056758027111      0.44612149070584
  N   -1.82287746433394      1.75525922160964      1.04749736134369
  N   -0.80246798520425     -1.18570097857103     -0.47407506525284
  O   -0.01303329952592     -2.08645822477660     -0.73414789649923
  O   -2.01829693205511     -1.27889760508332     -0.38864979785253
