11
Coordinates from ORCA-job run
  C   1.16755530539596      0.24459004370461      0.29644122100499
  C   -0.22638408164733      0.28967328807555     -0.30659725688627
  Cl  2.26043914997474     -0.63986781606802     -0.78267875422920
  H   -0.20897526711405      0.67656646918777     -1.32648681347459
  H   1.13430796710050     -0.26384922193505      1.25838732193373
  H   1.54336366597685      1.26032060022245      0.41597437642561
  C   -1.12630794464040      1.07256885601770      0.53454666912731
  N   -1.81787244781745      1.72443538521718      1.22429595206384
  N   -0.77712234284152     -1.11916168505928     -0.41372278638085
  O   -1.19506181829068     -1.46005465893793     -1.51273707223342
  O   -0.75294218609662     -1.78622126042499      0.61257714264885
