11
Coordinates from ORCA-job run
  C   1.15720471426917      0.23175888758665      0.34261180990546
  C   -0.19994785130406      0.27253841545994     -0.33931895020902
  Cl  2.27584161073606     -0.76522398638654     -0.60438717601735
  H   -0.11486950794994      0.58160933946447     -1.38206991744980
  H   1.05520972072893     -0.20064277807623      1.33639668250860
  H   1.56105905532431      1.24169609155728      0.40688943993520
  C   -1.11700593595773      1.14251419466703      0.39041286455930
  N   -1.82271383412181      1.86487352391711      0.98965010493738
  N   -0.79110122570892     -1.12353032821808     -0.37326830618310
  O   -0.84411013384403     -1.71187808040720      0.69902058972285
  O   -1.16056661217198     -1.53371527956441     -1.46593714170954
