11
Coordinates from ORCA-job run
  C   1.11801744861256      0.06456859429923      0.46339493510775
  C   -0.14756109122827      0.22510630345899     -0.37266920611880
  Cl  1.98054429678963      1.60962423765211      0.53406037554891
  H   0.09198573160038      0.58010094935489     -1.37566460371692
  H   0.86130391160691     -0.24504907087177      1.47480725395181
  H   1.76770357424398     -0.67360345651232     -0.00777507713798
  C   -1.12887998710438      1.09870389168806      0.25969124845559
  N   -1.91054138582666      1.81278125743829      0.76667494322188
  N   -0.74807841938392     -1.15357285492143     -0.54380269269077
  O   -0.70856426537717     -1.63134225876203     -1.67191758328327
  O   -1.17592981393305     -1.68731759282402      0.47320040666180
