11
Coordinates from ORCA-job run
  C   1.10200994799926      0.03068738781225      0.49293841698850
  C   -0.13099578157930      0.21632788996030     -0.38644330503773
  Cl  2.04061265182029      1.53155412199349      0.52612758486943
  H   0.15800537861051      0.50904285123364     -1.39656337129246
  H   0.80205096356071     -0.22150162542101      1.50892237108930
  H   1.72497807022746     -0.75823739341237      0.07086430867869
  C   -1.08210539532553      1.16871902065825      0.17289370875338
  N   -1.83452349060191      1.95279828094606      0.61673323383654
  N   -0.78789183520990     -1.14154786033939     -0.51118911119729
  O   -1.40879409335290     -1.54255587204586      0.46592769812383
  O   -0.58334641614869     -1.74428680138537     -1.55921153481219
