11
Coordinates from ORCA-job run
  C   1.21407487743485      0.22520477699894      0.15537921349958
  C   -0.19603199836034      0.19517696164869     -0.41175755520183
  Cl  1.19917952359290     -0.08370353195245      1.89897703433809
  H   -0.14003465910950      0.32841485351169     -1.49736239858681
  H   1.65222052475884      1.20741831039703     -0.02056311820971
  H   1.80687500579646     -0.54738366017641     -0.33062377222907
  C   -1.07233226958973      1.20461965684075      0.16712700403185
  N   -1.73846890649018      2.06779199466625      0.60178322304371
  N   -0.77864646590017     -1.19601813406403     -0.22347262045291
  O   -1.83646528352986     -1.30783130508153      0.37861378364608
  O   -0.10937034860324     -2.09468992278893     -0.71810079387897
