11
Coordinates from ORCA-job run
  C   1.21030998908439      0.17731397002635      0.23194210209231
  C   -0.16565880096141      0.21784071119705     -0.41301800257524
  Cl  1.08704117871876     -0.19849064352641      1.95795955324955
  H   -0.04408892437298      0.39208636666083     -1.48741477508990
  H   1.80483358601573     -0.59541115987951     -0.25190557355449
  H   1.68853678903638      1.15028253124972      0.12044922656005
  C   -1.04092240662320      1.23298512992453      0.15742637379752
  N   -1.70485871872042      2.10028815195078      0.58730654546107
  N   -0.80230129156547     -1.15895567105704     -0.31542388511660
  O   -0.13412186763729     -2.06014952920148     -0.80707507797292
  O   -1.89676953297447     -1.25778985734483      0.21975351314865
