11
Coordinates from ORCA-job run
  C   1.20298747382145      0.18649585863966      0.34862909054563
  C   -0.11837761562411      0.19068019904115     -0.41379194167483
  Cl  1.03152768172005      0.26973322963007      2.10534123184574
  H   0.08267134377972      0.39079133334491     -1.46909512079225
  H   1.75946311691903     -0.71578181236345      0.09287614463440
  H   1.77101614734127      1.06081074568570      0.03030673885427
  C   -1.08068196341502      1.16535198723819      0.08708580365732
  N   -1.85112779446559      1.96436471149279      0.46927991361253
  N   -0.77316504923009     -1.17777411798340     -0.41200413427194
  O   -0.87079509239317     -1.74831238125302      0.66559098915280
  O   -1.15351824845353     -1.58735975347260     -1.50421871556365
