11
Coordinates from ORCA-job run
  C   1.21146100502819      0.20821501928190      0.19513999082416
  C   -0.18433257218342      0.21529831670244     -0.40710487181076
  Cl  1.15136945842800     -0.18009776234162      1.92174802832514
  H   -0.10090918145369      0.39655457459547     -1.48394126349998
  H   1.65994488080947      1.19425482709495      0.07565749027742
  H   1.81142151499454     -0.54544982858074     -0.31143641231172
  C   -1.06745357734152      1.20480376748270      0.19525282923979
  N   -1.73765650458458      2.05310412447175      0.65246474970597
  N   -0.78127491840610     -1.17825072139537     -0.29635047468415
  O   -1.85438502597370     -1.30832738412127      0.27420144633040
  O   -0.10618507931720     -2.05910493319021     -0.81463151239628
