18

C	0.0	0.0	0.0
C	-0.25371	-0.468175	-1.474759
F	1.383988	0.0	0.0
H	0.337342	-1.38572	-1.587034
N	-0.47657	1.302527	0.335978
H	-0.286956	1.960301	-0.412533
H	-1.482646	1.260072	0.483664
C	-0.517093	-1.007982	0.999262
H	-1.610294	-1.009976	0.996263
H	-0.160994	-0.722059	1.990902
H	-0.146695	-2.007082	0.75849
C	0.351258	0.525144	-2.36948
N	0.802085	1.340699	-3.084696
C	-1.693527	-0.733212	-1.896559
H	-2.155221	-1.497095	-1.274044
H	-1.710785	-1.066945	-2.937807
H	-2.320869	0.148958	-1.79502
Br	-4.402621	0.0	0.0
