18

C	0.0	0.0	0.0
C	-0.237543	0.261387	-1.527161
F	1.399027	0.0	0.0
H	0.373305	-0.490885	-2.04102
N	-0.470251	1.004309	0.894892
H	-1.475221	0.895572	1.01363
H	-0.285671	1.931205	0.526832
C	-0.516172	-1.353006	0.422592
H	-1.609411	-1.352933	0.406929
H	-0.17027	-1.551938	1.438717
H	-0.138202	-2.129667	-0.245714
C	0.353881	1.564045	-1.853939
N	0.790696	2.620516	-2.123468
C	-1.668582	0.196984	-2.043456
H	-2.321988	0.898343	-1.531324
H	-2.101861	-0.787658	-1.876355
H	-1.680657	0.411965	-3.115351
Br	-4.370998	0.0	0.0
