18

C	0.0	0.0	0.0
C	-0.457758	-0.142505	-1.461993
F	1.417425	0.0	0.0
H	-1.554135	-0.231876	-1.398345
N	-0.448337	1.267242	0.497126
H	0.319438	1.919957	0.525389
H	-0.897554	1.18418	1.397886
C	-0.477821	-1.150505	0.853035
H	-1.57094	-1.12477	0.884744
H	-0.062143	-1.03951	1.858223
H	-0.142231	-2.102259	0.44033
C	0.090832	-1.357291	-2.06484
N	0.543038	-2.309328	-2.584113
C	-0.107119	1.080215	-2.309244
H	0.969471	1.258273	-2.315022
H	-0.441969	0.935872	-3.337044
H	-0.622078	1.942887	-1.889584
Br	-3.914745	0.0	0.0
