18

C	0.0	0.0	0.0
C	-0.443989	-0.078542	-1.482312
F	1.394599	0.0	0.0
H	-1.532537	-0.229895	-1.451848
N	-0.454342	1.171463	0.686904
H	-0.239477	2.001964	0.148622
H	-1.47	1.099658	0.768984
C	-0.436993	-1.231931	0.765275
H	-0.003596	-2.125639	0.311753
H	-0.074807	-1.136877	1.790302
H	-1.525696	-1.29988	0.762573
C	0.175735	-1.23017	-2.138874
N	0.68727	-2.131922	-2.691626
C	-0.128938	1.193902	-2.274472
H	-0.775401	2.007641	-1.942354
H	-0.317875	1.038959	-3.338545
H	0.918274	1.478353	-2.145108
Br	-3.815635	0.0	0.0
