18

C	0.0	0.0	0.0
C	-0.282214	-0.327467	-1.490482
F	1.396975	0.0	0.0
H	0.392885	-1.168266	-1.692737
N	-0.480935	1.305243	0.334471
H	-0.436279	1.432632	1.339987
H	-1.466927	1.357769	0.082133
C	-0.465619	-1.106289	0.925175
H	-0.076359	-0.910185	1.929328
H	-1.557652	-1.112131	0.961623
H	-0.097803	-2.082758	0.598547
C	0.209189	0.776997	-2.324997
N	0.611964	1.5999	-3.058907
C	-1.693297	-0.747537	-1.891702
H	-2.461494	-0.020684	-1.633848
H	-1.719984	-0.93085	-2.969335
H	-1.968815	-1.66955	-1.377167
Br	-4.459987	0.0	0.0
