18

C	0.0	0.0	0.0
C	-0.23973	0.291834	-1.521494
F	1.397128	0.0	0.0
H	0.365639	-0.453096	-2.051879
N	-0.472096	0.985881	0.914484
H	-0.285635	1.920055	0.566577
H	-1.477387	0.876965	1.029619
C	-0.517168	-1.361073	0.39621
H	-1.610173	-1.360926	0.382119
H	-0.170118	-1.57878	1.408166
H	-0.140092	-2.124963	-0.287145
C	0.35634	1.598261	-1.822889
N	0.793095	2.663457	-2.056148
C	-1.673224	0.245893	-2.034713
H	-1.683729	0.472762	-3.104336
H	-2.318478	0.948279	-1.513275
H	-2.115998	-0.735927	-1.87668
Br	-4.373359	0.0	0.0
