15

C	-0.508945	0.003247	-1.441751
C	0.0	0.0	0.0
F	0.261741	0.876151	-2.175501
H	1.091318	0.0	0.0
C	-0.32097	-1.347144	-2.007204
N	-0.140501	-2.418367	-2.45597
C	-1.919785	0.400548	-1.57858
N	-3.040938	0.720647	-1.725951
N	-0.488855	-1.196428	0.739442
O	0.34337	-1.846091	1.360771
O	-1.695194	-1.434472	0.6508
N	-0.48426	1.191799	0.749471
O	-0.546944	1.079673	1.972402
O	-0.59569	2.230735	0.099269
Br	2.740678	0.0	0.0
