15

C	-0.516691	0.002633	-1.432553
C	0.0	0.0	0.0
F	-0.1507	-1.219143	-1.972483
H	1.090565	0.0	0.0
C	-1.987577	0.109376	-1.552905
N	-3.148287	0.183818	-1.71803
C	0.105684	1.07696	-2.225136
N	0.615579	1.924456	-2.859687
N	-0.509894	-1.21823	0.704017
O	-1.750105	-1.333165	0.748834
O	0.27978	-2.147951	0.892312
N	-0.464529	1.163271	0.761113
O	-0.912095	2.126159	0.1157
O	-0.257217	1.141815	1.970063
Br	3.153182	0.0	0.0
