15

C	-0.501818	0.034314	-1.451998
C	0.0	0.0	0.0
F	0.250958	0.938262	-2.15563
H	1.091322	0.0	0.0
C	-0.311427	-1.293492	-2.068147
N	-0.187104	-2.34983	-2.566256
C	-1.922091	0.416552	-1.584204
N	-3.042923	0.720894	-1.761873
N	-0.525607	-1.199187	0.708345
O	-1.652119	-1.576052	0.371807
O	0.175116	-1.692107	1.57901
N	-0.468976	1.197719	0.766819
O	-0.622729	1.063098	1.974335
O	-0.605457	2.230701	0.11979
Br	3.253352	0.0	0.0
