15

C	-0.544748	-0.002808	-1.41579
C	0.0	0.0	0.0
F	-1.893441	0.340876	-1.417394
H	1.090122	0.0	0.0
C	0.154388	0.977891	-2.267274
N	0.713726	1.708711	-2.996852
C	-0.399221	-1.33251	-2.034284
N	-0.249841	-2.38085	-2.5415
N	-0.521868	-1.107455	0.838876
O	-1.434861	-1.831542	0.338856
O	0.197875	-1.458141	1.766286
N	-0.436945	1.239369	0.695462
O	-1.277834	1.153096	1.582993
O	-0.072615	2.291022	0.153523
Br	3.15365	0.0	0.0
