16

C	0.0	0.0	0.0
C	-0.397409	0.202596	-1.465299
Cl	1.866421	0.0	0.0
H	0.028804	1.154944	-1.803532
H	-1.487268	0.294063	-1.398789
N	-0.450279	1.064419	0.863271
H	-1.477572	0.948619	0.764649
H	-0.191025	1.955759	0.448694
N	-0.499015	-1.262034	0.45152
H	-0.329276	-1.294763	1.453454
H	-1.523543	-1.101433	0.32615
C	-0.004183	-0.926523	-2.407635
H	1.080779	-1.026317	-2.489573
H	-0.402629	-1.871048	-2.03656
H	-0.409944	-0.746582	-3.40898
F	-2.843625	0.0	0.0
