16

C	0.0	0.0	0.0
C	-0.407747	-0.003423	-1.476667
Cl	1.866431	0.0	0.0
H	-1.497557	-0.105187	-1.383561
H	0.026998	-0.885594	-1.959729
N	-0.392918	1.247909	0.608467
H	-0.646679	1.056289	1.572161
H	0.36745	1.912178	0.587682
N	-0.599568	-1.046325	0.748911
H	-1.636032	-0.761935	0.59495
H	-0.464118	-1.913722	0.239952
C	-0.075324	1.268052	-2.244221
H	-0.616467	2.101093	-1.792185
H	-0.397838	1.181286	-3.287099
H	0.99661	1.49351	-2.240213
F	-2.876992	0.0	0.0
