16

C	0.0	0.0	0.0
C	-0.359768	0.179287	-1.47149
Cl	1.958392	0.0	0.0
H	0.081077	1.120412	-1.818709
H	-1.45029	0.282721	-1.423933
N	-0.420919	1.079533	0.843143
H	-0.159851	1.961708	0.411573
H	-1.450925	0.965297	0.762112
N	-0.480614	-1.248247	0.477997
H	-0.32962	-1.244716	1.483133
H	-1.506789	-1.104317	0.330795
C	0.03612	-0.970726	-2.38615
H	-0.33301	-0.792164	-3.402447
H	-0.394977	-1.902742	-2.01907
H	1.121221	-1.093097	-2.428901
F	-2.812558	0.0	0.0
