16

C	-0.511944	-0.046944	-1.437087
C	0.0	0.0	0.0
F	-0.133217	1.113982	-2.066488
H	1.098263	0.0	0.0
N	0.174619	-1.151611	-2.246083
O	0.626203	-2.110211	-1.630709
O	0.126606	-1.026352	-3.464334
N	-1.888466	-0.303268	-1.540324
H	-2.392892	-0.0109	-0.716082
H	-2.271289	0.08188	-2.393177
N	-0.57978	-1.084406	0.80787
H	-0.16627	-1.940288	0.451788
H	-0.211677	-0.968452	1.74662
C	-0.461008	1.275949	0.563434
N	-0.847625	2.267033	1.06027
Br	3.453583	0.0	0.0
