16

C	-0.533454	-0.071613	-1.427939
C	0.0	0.0	0.0
F	-0.149858	1.025586	-2.132807
H	1.091747	0.0	0.0
N	0.131214	-1.246895	-2.186445
O	-0.111903	-1.290368	-3.391773
O	0.761325	-2.082688	-1.548168
N	-1.930532	-0.210284	-1.454864
H	-2.261267	-0.480659	-2.372635
H	-2.199063	-0.872427	-0.733395
N	-0.543412	-1.136245	0.770256
H	0.138593	-1.884695	0.671631
H	-0.558525	-0.87841	1.74884
C	-0.476062	1.255143	0.58323
N	-0.882217	2.227899	1.100422
Br	3.454101	0.0	0.0
