16

C	-0.427298	-0.115842	-1.468369
C	0.0	0.0	0.0
F	-1.756213	-0.427929	-1.516417
H	1.094585	0.0	0.0
N	-0.280181	1.239465	-2.151445
O	0.832527	1.510586	-2.587468
O	-1.271857	1.959728	-2.178085
N	0.31172	-1.065958	-2.212311
H	1.277626	-0.743798	-2.24876
H	0.307299	-1.914626	-1.652501
N	-0.366888	-1.265759	0.633579
H	-1.301889	-1.226825	1.017334
H	0.295713	-1.453268	1.375318
C	-0.542564	1.178404	0.679493
N	-0.999796	2.081507	1.277259
Br	3.404457	0.0	0.0
