16

C	-0.42938	-0.062948	-1.469934
C	0.0	0.0	0.0
F	-1.744016	-0.416665	-1.536251
H	1.094963	0.0	0.0
N	-0.312866	1.318648	-2.097001
O	-1.34613	1.905959	-2.395506
O	0.834614	1.728914	-2.239224
N	0.343774	-0.956048	-2.255767
H	0.304874	-1.847982	-1.768986
H	1.313731	-0.644114	-2.199569
N	-0.366657	-1.282878	0.592243
H	-1.308121	-1.26235	0.960587
H	0.290313	-1.498496	1.333856
C	-0.541024	1.160965	0.713705
N	-0.999222	2.052762	1.328344
Br	3.411616	0.0	0.0
