16

C	-0.498939	-0.028437	-1.446082
C	0.0	0.0	0.0
F	0.098064	0.993513	-2.155522
H	1.091964	0.0	0.0
N	-0.044215	-1.290673	-2.176409
O	-0.56116	-1.465172	-3.280729
O	0.803995	-2.003119	-1.656573
N	-1.906076	-0.011302	-1.535418
H	-2.260167	0.846733	-1.12908
H	-2.18927	-0.084486	-2.505038
N	-0.472222	-1.102816	0.816397
H	0.180687	-1.867585	0.709538
H	-1.394042	-1.393372	0.513588
C	-0.47791	1.274344	0.559584
N	-0.932166	2.281468	0.958587
Br	3.467485	0.0	0.0
