13

C	0.0	0.0	0.0
C	-0.32511	-0.12733	-1.520079
Br	1.937593	0.0	0.0
H	-1.384302	0.029031	-1.725825
H	0.24892	0.648433	-2.035164
N	-0.398683	1.377368	0.527568
O	-0.473442	2.269112	-0.310396
O	-0.464957	1.492992	1.747623
C	-0.407456	-1.089099	0.872192
N	-0.666971	-1.933722	1.641499
C	0.065752	-1.436354	-2.054942
N	0.24746	-2.49388	-2.533615
Br	-3.103009	0.0	0.0
