17

C	-0.448725	0.04188	-1.45937
C	0.0	0.0	0.0
Cl	-0.101296	-1.551929	-2.228204
H	1.091395	0.0	0.0
H	-1.533316	0.167355	-1.541362
C	0.335445	1.126936	-2.181515
H	1.386214	1.003564	-1.896878
H	0.202181	1.069637	-3.264691
H	-0.010069	2.110703	-1.845909
C	-0.573537	-1.128059	0.8321
H	-1.66176	-1.206217	0.748775
H	-0.305695	-0.972137	1.881077
H	-0.11168	-2.06198	0.512808
N	-0.501025	1.291028	0.573151
O	-1.729355	1.447	0.63903
O	0.309335	2.138947	0.939689
F	2.62933	0.0	0.0
