17

C	-0.249098	-0.09389	-1.485101
C	0.0	0.0	0.0
Cl	-2.002801	-0.390872	-1.898356
H	1.095327	0.0	0.0
H	-0.02838	0.879422	-1.917529
C	0.641138	-1.152127	-2.106477
H	0.638879	-1.073851	-3.19634
H	0.314512	-2.15853	-1.833654
H	1.642062	-0.967664	-1.696075
C	-0.502089	-1.148398	0.841589
H	-0.108354	-1.059941	1.853454
H	-1.593154	-1.192311	0.888204
H	-0.123498	-2.080122	0.416646
N	-0.466154	1.301386	0.528748
O	-0.899258	1.342378	1.683957
O	-0.352407	2.300942	-0.184574
F	2.597193	0.0	0.0
