17

C	-0.485584	-0.004952	-1.442213
C	0.0	0.0	0.0
Cl	0.257562	1.363362	-2.350383
H	1.09067	0.0	0.0
H	-0.044601	-0.901853	-1.885543
C	-1.984318	0.03382	-1.694264
H	-2.184317	-0.050583	-2.765224
H	-2.483117	-0.790457	-1.178317
H	-2.410063	0.968986	-1.332133
C	-0.522766	-1.187305	0.787378
H	-0.047086	-1.187966	1.771145
H	-1.607268	-1.174975	0.91848
H	-0.223219	-2.110066	0.28281
N	-0.475333	1.252128	0.672162
O	-1.679167	1.334544	0.971621
O	0.340021	2.142686	0.900603
F	2.595831	0.0	0.0
