17

C	-0.350773	0.076638	-1.492313
C	0.0	0.0	0.0
Cl	-0.183529	-1.563029	-2.2324
H	1.091398	0.0	0.0
H	-1.399299	0.346543	-1.647749
C	0.63172	1.023137	-2.164227
H	1.628436	0.770201	-1.7827
H	0.579498	0.956834	-3.25286
H	0.404073	2.051569	-1.865198
C	-0.631702	-1.131772	0.779507
H	-0.482085	-0.965289	1.849598
H	-0.127285	-2.060606	0.514866
H	-1.703314	-1.228223	0.584181
N	-0.500918	1.293569	0.564558
O	-1.728573	1.437674	0.651492
O	0.310708	2.150318	0.909081
F	2.653529	0.0	0.0
