17

C	-0.243959	-0.06007	-1.487033
C	0.0	0.0	0.0
Cl	-2.003975	-0.303633	-1.91214
H	1.095331	0.0	0.0
H	0.003239	0.915298	-1.899672
C	0.62086	-1.131271	-2.121175
H	1.621382	-0.978717	-1.69843
H	0.631227	-1.028844	-3.207882
H	0.265041	-2.133255	-1.87277
C	-0.507874	-1.165828	0.812678
H	-0.138122	-1.086446	1.834338
H	-1.599193	-1.22377	0.833962
H	-0.106846	-2.086228	0.382812
N	-0.468917	1.289558	0.55319
O	-0.35617	2.304902	-0.138969
O	-0.905811	1.306945	1.706443
F	2.593251	0.0	0.0
