17

C	-0.486601	0.02591	-1.445975
C	0.0	0.0	0.0
Cl	-0.06591	-1.539101	-2.237191
H	1.091408	0.0	0.0
H	-1.578827	0.086221	-1.497022
C	0.200809	1.158862	-2.189528
H	0.022039	1.091878	-3.266608
H	-0.187431	2.117269	-1.827626
H	1.270243	1.094283	-1.954358
C	-0.551784	-1.127843	0.849523
H	-0.118962	-2.066991	0.503696
H	-0.234247	-0.981631	1.886001
H	-1.644206	-1.188372	0.814342
N	-0.49908	1.287989	0.581618
O	-1.727367	1.437049	0.659113
O	0.312377	2.141708	0.931081
F	2.623535	0.0	0.0
