13
Coordinates from ORCA-job run
  C   0.39143398713292      0.21617536689885     -0.16235283463153
  C   -0.81110990140417     -0.63681783660420     -0.56292069179255
  Cl  1.30981820597450      0.44816937747275     -1.85364902374637
  H   -1.39528124438265     -0.11249674161440     -1.32283748499056
  H   -0.46461753145467     -1.56808750190350     -1.01714778447458
  N   1.21657923721649     -0.46471491743791      0.74966232567954
  H   1.99338889995272      0.10207702581406      1.06508529291707
  H   1.57514718543862     -1.32408645259248      0.35642642781037
  N   -0.01559776323723      1.46246225497317      0.34493453632901
  H   -0.54249738252721      1.98796256038084     -0.33913468239777
  H   0.76463020895991      2.02391635231759      0.66146501998429
  C   -1.65781549308058     -0.93587195735056      0.59086247507610
  N   -2.36407840858865     -1.19868753035421      1.48960642423699
