13
Coordinates from ORCA-job run
  C   0.32785588763165      0.19894763205198     -0.17116085225491
  C   -1.13316738717332     -0.22119129058439      0.01550192561419
  Cl  0.80975473487434     -0.26778836247020     -1.87462891544402
  H   -1.42975760282225      0.06951911133449      1.02793529780580
  H   -1.77224224879884      0.31665477463895     -0.69036660485111
  N   1.17264681226982     -0.56330811944435      0.70808431523198
  H   2.12792694220161     -0.58614186590410      0.37683872348244
  H   1.14447650707460     -0.14344179041981      1.63046350402316
  N   0.41873962949561      1.60768765816283      0.05440194439712
  H   1.37584952985485      1.92004886958647     -0.06101508609164
  H   -0.16687986538291      2.12923338474017     -0.58794149832553
  C   -1.33311420458864     -1.65609789040021     -0.15211833044587
  N   -1.54208873463653     -2.80312211129182     -0.27699442314161
