13
Coordinates from ORCA-job run
  C   0.41528720070228      0.15920711497341     -0.30548533348350
  C   -0.87639673641307     -0.61208610348292     -0.59492253376774
  Cl  1.25790289460408      0.32165006306380     -1.93364874622210
  H   -1.52762184848908     -0.03324508536469     -1.25556951647809
  H   -0.61292550025671     -1.54195045654117     -1.10015010901601
  N   1.28561424079300     -0.64598707557399      0.50895376546370
  H   0.95828528250299     -0.60301541328612      1.46874413177041
  H   2.23740681904512     -0.30378173318211      0.46723575526456
  N   0.10631417217477      1.42073929091009      0.27413798192270
  H   -0.49117429457211      1.98284723122625     -0.31996036876788
  H   0.94866723018285      1.94220911532588      0.48373187127653
  C   -1.57809343366478     -0.91602898355871      0.64992390054098
  N   -2.12326602660933     -1.17055796450971      1.65700920149643
