13
Coordinates from ORCA-job run
  C   0.37456106723173      0.19717532726753     -0.33496775946245
  C   -0.59607951588606     -0.84720655392136      0.24284949988239
  Cl  0.40424176744806     -0.04222212470087     -2.12298884299980
  H   -0.25775921210481     -1.84366387980708     -0.04975808338221
  H   -0.54855041560598     -0.79162124006920      1.33716888577968
  N   1.74393891968009      0.02306833905211      0.10296306005602
  H   1.79109181788292      0.09266430424932      1.11371969553345
  H   2.12435014551374     -0.86863264830899     -0.19169538249953
  N   -0.12356558796912      1.50434736269868     -0.05565900597631
  H   0.58523409843125      2.19336493853058     -0.27505573612296
  H   -0.41144799643500      1.59691460267330      0.91050472924474
  C   -1.98187499371464     -0.66502162703834     -0.17957116761901
  N   -3.10514009447218     -0.54916680062569     -0.49750989243400
