13

C	-0.449163	0.040881	-1.441268
C	0.0	0.0	0.0
Br	0.457212	-1.368413	-2.437834
H	1.091164	0.0	0.0
H	-0.30303	-0.969788	0.408192
C	-1.88486	-0.120193	-1.649846
N	-3.046321	-0.279685	-1.748227
N	-0.053788	1.371579	-2.11695
O	-0.558498	1.580611	-3.21603
O	0.728553	2.089533	-1.51642
C	-0.609871	1.062658	0.772486
N	-1.10511	1.91437	1.414687
F	2.493666	0.0	0.0
