13

C	-0.393251	-0.026049	-1.451893
C	0.0	0.0	0.0
Br	0.281884	1.530427	-2.384677
H	1.093055	0.0	0.0
H	-0.323096	-0.934016	0.466555
C	0.114511	-1.226394	-2.111198
N	0.453164	-2.215802	-2.648916
N	-1.944637	-0.107765	-1.64207
O	-2.499789	-0.870265	-0.858881
O	-2.481321	0.523239	-2.540153
C	-0.574433	1.130177	0.695424
N	-1.02685	2.046358	1.277858
F	2.486512	0.0	0.0
