13

C	-0.227444	-0.004621	-1.480758
C	0.0	0.0	0.0
Br	-2.11503	-0.220695	-2.069374
H	1.093689	0.0	0.0
H	-0.319475	0.96557	0.400347
C	0.258801	1.236031	-2.072104
N	0.540309	2.285962	-2.519133
N	0.512528	-1.17933	-2.139291
O	0.447181	-2.247556	-1.555429
O	1.064224	-0.955436	-3.208938
C	-0.620961	-1.070658	0.740639
N	-1.124003	-1.891651	1.41571
F	2.464418	0.0	0.0
