13

C	-0.208299	-0.02694	-1.480715
C	0.0	0.0	0.0
Br	-2.089103	-0.310135	-2.07436
H	1.095238	0.0	0.0
H	-0.352389	-0.932232	0.44185
C	0.263169	1.181384	-2.140494
N	0.623233	2.165389	-2.672802
N	0.554901	-1.236546	-2.050824
O	1.152236	-1.07415	-3.1057
O	0.448368	-2.275773	-1.420352
C	-0.595785	1.153705	0.623175
N	-1.068071	2.088831	1.158258
F	2.462069	0.0	0.0
