13

C	-0.220533	0.027949	-1.47924
C	0.0	0.0	0.0
Br	-2.105728	-0.247095	-2.064499
H	1.095311	0.0	0.0
H	-0.348569	-0.949851	0.406418
C	0.235043	1.263997	-2.097249
N	0.569496	2.283418	-2.576641
N	0.546879	-1.153253	-2.097783
O	0.427325	-2.223126	-1.522717
O	1.169373	-0.937611	-3.127117
C	-0.595651	1.12623	0.671221
N	-1.066678	2.041769	1.240008
F	2.462062	0.0	0.0
