16

C	0.0	0.0	0.0
C	-0.224154	-0.066265	-1.528707
F	1.341091	0.0	0.0
H	0.344322	0.793726	-1.892043
H	0.332912	-0.960484	-1.817873
N	-0.447302	1.284627	0.609355
O	-0.413713	1.416079	1.839545
O	-0.536462	2.240333	-0.185716
N	-0.439206	-1.22834	0.726546
O	-0.427536	-1.243358	1.961393
O	-0.524298	-2.25099	0.022926
C	-1.578903	-0.084229	-2.206832
H	-1.409393	-0.114024	-3.29666
H	-2.153107	-0.959594	-1.912342
H	-2.15356	0.807336	-1.959445
H	-2.03493	0.0	0.0
