15
Coordinates from ORCA-job run
  C   -0.18884375178451      0.23907547112127     -0.76209733836270
  C   0.99208667013490      0.13549087714062      0.23526164647908
  Br  0.60037779440264     -0.04513458489970     -2.53791967752556
  H   1.76628642547121      0.85534005665257     -0.03645906444921
  C   -0.72339562277450      1.59691378433775     -0.72943275795273
  N   -1.18888376546018      2.67610903592743     -0.68618689443268
  C   -1.28732926992729     -0.79130351596725     -0.52940688065890
  H   -0.87258329566524     -1.79899361225758     -0.57890627558295
  H   -1.74232919578708     -0.63813174994905      0.45045772364448
  H   -2.05191970059930     -0.68276659741649     -1.29901024913586
  C   1.53212285072169     -1.21537303283757      0.29940834665388
  N   1.97548602043346     -2.30205894454246      0.34692050541087
  N   0.51678511688242      0.55036080128695      1.61769946700110
  O   -0.09689586237925     -0.28606673933812      2.27073861751029
  O   0.76803558633102      1.70653875074163      1.93793283140090
