15
Coordinates from ORCA-job run
  C   -0.48970964811918      0.40484397265217     -0.34319120615636
  C   0.42371449880134     -0.09736381544484      0.80422055220677
  Br  0.33275443259449      1.93626556954142     -1.23917054205379
  H   -0.09204847570667     -0.92448183381172      1.30154901800938
  C   -1.72375731359046      0.86735408888081      0.28775438370625
  N   -2.73254395028297      1.19058597926116      0.79868166108212
  C   -0.79403210227554     -0.68194050236909     -1.37171084098811
  H   -1.20593059480207     -1.56243696542563     -0.87226964901976
  H   0.10901685157434     -0.96821736288390     -1.90917662947135
  H   -1.52318907479550     -0.30135976871950     -2.08711811880153
  C   0.75100140521887      0.94511578277871      1.76561846180526
  N   0.98377477010863      1.76810927130810      2.57074744412549
  N   1.69062890805427     -0.70566482508645      0.24143248711322
  O   2.66907417063141      0.02014001978318      0.12519415235454
  O   1.60124612258903     -1.88894961046443     -0.07356117391214
