15
Coordinates from ORCA-job run
  C   -0.29759004303771      0.17367014880948     -0.62555715216663
  C   0.74908856650890     -0.34196444273097      0.38224403414699
  Br  0.60007949512394      0.38583891119296     -2.35398268532344
  H   1.13212960078364     -1.30339194285424      0.03323476112759
  C   -0.85282482059056      1.46501649781489     -0.23331042509799
  N   -1.39241100936998      2.46722861648262      0.06202434445156
  C   -1.41896499806567     -0.85553666953289     -0.76896859665073
  H   -1.94190203919597     -0.96915781355475      0.18408209118496
  H   -1.00680997296640     -1.81751176903793     -1.08034524564980
  H   -2.13133560733653     -0.51696683440837     -1.52144931733852
  C   0.16583705863555     -0.46425342231387      1.71338879048238
  N   -0.32933343962651     -0.58758379307750      2.77192196573335
  N   1.95462423182024      0.57139652644985      0.46207341794620
  O   3.02211052479082      0.08309711218825      0.11239259047439
  O   1.74730245252625      1.70911887457247      0.86325142667969
