14

C	0.0	0.0	0.0
C	-0.480552	0.07925	-1.44855
Br	1.953385	0.0	0.0
H	0.008194	0.923561	-1.943902
H	-1.560687	0.267084	-1.332283
C	-0.310905	1.284909	0.671037
N	-0.495887	2.313247	1.211531
N	-0.615433	-1.132102	0.611634
H	-1.655199	-0.898273	0.484974
H	-0.421672	-1.127784	1.607943
N	-0.177727	-1.171975	-2.154036
H	-0.892905	-1.28496	-2.866991
H	-0.343014	-1.912882	-1.479459
H	-3.005067	0.0	0.0
