14

C	0.0	0.0	0.0
C	-0.272982	0.016419	-1.552537
Br	1.958908	0.0	0.0
H	0.500669	-0.622726	-1.989782
H	-0.063056	1.042736	-1.891734
C	-0.374855	1.288297	0.594617
N	-0.498327	2.413172	0.928463
N	-0.550916	-1.097933	0.724141
H	-0.417263	-1.941458	0.170626
H	-1.569771	-0.903544	0.726979
N	-1.575259	-0.501111	-1.93246
H	-2.28041	-0.286367	-1.183134
H	-1.883554	-0.017297	-2.767657
H	-3.13417	0.0	0.0
