14

C	0.0	0.0	0.0
C	-0.300366	-0.014496	-1.529168
Br	1.96527	0.0	0.0
H	0.364392	-0.791481	-1.92433
H	0.078062	0.946583	-1.907944
C	-0.355058	1.286334	0.627883
N	-0.577998	2.307419	1.165934
N	-0.553492	-1.149022	0.643057
H	-1.572623	-1.093647	0.471751
H	-0.419494	-1.066592	1.648293
N	-1.671485	-0.305877	-1.886542
H	-1.937326	0.264094	-2.682332
H	-2.373102	-0.109282	-1.11992
H	-3.370579	0.0	0.0
