14

C	0.0	0.0	0.0
C	-0.428513	0.043768	-1.455333
Br	2.04321	0.0	0.0
H	-0.190689	-0.941208	-1.877535
H	-1.525087	0.133023	-1.369543
C	-0.236781	1.31034	0.649112
N	-0.421199	2.310493	1.240816
N	-0.648042	-1.078192	0.622663
H	-0.522688	-1.013061	1.630395
H	-1.709219	-0.804616	0.430885
N	0.111949	1.18476	-2.17564
H	-0.494411	1.404758	-2.955005
H	1.031938	0.969583	-2.536389
H	-2.919874	0.0	0.0
