15
Coordinates from ORCA-job run
  C   0.73667485572824      0.06129271760189      0.90820288638624
  C   -0.25765574189106     -0.61472986387895     -0.03920588389014
  Br  -0.00647369980126      0.14398262894798      2.72909932986334
  H   -0.53029427830025     -1.57966381085415      0.41085141796470
  H   1.60378466202835     -0.59927798716040      1.04185397071272
  N   1.04516201111271      1.38213292353990      0.44706697745186
  H   1.85037014017552      1.75836749168702      0.93049807041108
  H   1.24966364656762      1.30531693610009     -0.54473490669795
  N   0.45323148940654     -0.76367192036412     -1.31704386902091
  H   -0.20946243329697     -0.95865133365330     -2.05790837722939
  H   1.09514799148104     -1.54712705464357     -1.27199746277627
  C   -1.51855002628046      0.20294885656354     -0.26489637697030
  H   -2.20391596694165     -0.34645985614860     -0.91720267231798
  H   -2.03095652588913      0.39880740917589      0.67637246132762
  H   -1.27572612409925      1.15773286308677     -0.73095556521462
