15
Coordinates from ORCA-job run
  C   0.52520559567506      0.49658769351025      0.84890603734535
  C   -0.19726307540543     -0.49416538795656     -0.05699956588323
  Br  0.15157656024212      2.39660803895319      0.13576220595657
  H   0.02392000426015     -1.46565539954667      0.40303898700419
  H   0.06791793879076      0.55612240512717      1.83599807001318
  N   1.88671387193523      0.19221930487561      0.92346350758686
  H   2.26432640826118      0.06155684960177     -0.00737058988621
  H   2.42453996067111      0.85963595454010      1.45705731043334
  N   0.46748656159825     -0.48924733548116     -1.35871927426246
  H   0.15503609950154      0.31551354227802     -1.89128290831010
  H   0.21920785221760     -1.32205775871400     -1.87789948428141
  C   -1.70904343890096     -0.30730591533335     -0.09432877404796
  H   -1.97642616392489      0.61953600435293     -0.60409775718547
  H   -2.17030862657227     -1.14156671067323     -0.62955897847021
  H   -2.13288954834944     -0.27678128553405      0.91403121398756
