15
Coordinates from ORCA-job run
  C   0.51819319040460      0.45881081475806      0.87421232376380
  C   -0.19862160812549     -0.49055942511094     -0.07923762415094
  Br  0.16134065725684      2.38822028559156      0.23545685047392
  H   0.01244658773217     -1.48125812580341      0.34282658448180
  H   0.04972947681965      0.47981259020113      1.85761008570686
  N   1.87755435637162      0.14514816161893      0.95082775653696
  H   2.26418417738841      0.05131921583088      0.01923700284811
  H   2.41256430068489      0.78756181996347      1.51692541501851
  N   0.47998094091988     -0.43531465531804     -1.37249753516859
  H   0.17493499293613      0.39055604088464     -1.87608534564903
  H   0.23686204889281     -1.24637438803226     -1.92721287844809
  C   -1.70926625961061     -0.29472092438882     -0.12483745728853
  H   -1.96669721418522      0.65466436707662     -0.59675088178962
  H   -2.14401361493352     -0.30612608804337      0.87924555938668
  H   -2.16819203255216     -1.10273968922846     -0.70071985572184
