15
Coordinates from ORCA-job run
  C   0.74226747157885      0.09467146804023      0.90671645271394
  C   -0.23643530374808     -0.65696247768301      0.00386902309397
  Br  -0.04626806590410      0.48169619788305      2.65341042132327
  H   -0.42395186527082     -1.62796932161546      0.47457700433418
  H   1.57775018376442     -0.57616168093305      1.13447988562362
  N   1.13721866293695      1.34144078822101      0.28055837606891
  H   1.73316662491712      1.09068297643238     -0.50268579694238
  H   1.69178161255444      1.89143361820117      0.92555816735220
  N   0.51238906869365     -0.88941211120190     -1.24284585835141
  H   0.26871318554949     -1.78956012115474     -1.63492496500803
  H   0.24873535077652     -0.18641944939528     -1.92426454612380
  C   -1.55588790693772      0.07068597981212     -0.22058049664754
  H   -2.14607211311763      0.14077374446435      0.69349359066608
  H   -2.14510293618935     -0.46608170384570     -0.96864107722435
  H   -1.35930396960374      1.08318209277481     -0.57872018087865
