15
Coordinates from ORCA-job run
  C   0.99984264226734      0.21318895368094      0.58301925039860
  C   -0.21574806753125     -0.54773549785524      0.03389865600713
  Br  1.98532250004652     -0.96235813054130      1.80550651830713
  H   -0.76921286533602     -0.94378535219715      0.89344387750956
  H   1.69383589250133      0.41240859761344     -0.23975619142691
  N   0.74592959079061      1.45157338984294      1.26977594012076
  H   0.45272919773623      2.16813700943362      0.61816635519138
  H   0.03809467062380      1.33363127357388      1.98448194238986
  N   0.24739303135774     -1.68494896221516     -0.75230170575543
  H   0.51645244248215     -1.37526346702695     -1.67990413800688
  H   -0.49590910367950     -2.36276445515721     -0.86279480657931
  C   -1.12488083054323      0.40075227196371     -0.75373415197780
  H   -1.94478026920131     -0.16588716435383     -1.20142823298457
  H   -1.56138338688003      1.18400643582964     -0.13087347856692
  H   -0.56668544463438      0.87804509740867     -1.56749983462662
