15
Coordinates from ORCA-job run
  C   0.53758096190033      0.48448061943152      0.70013285027047
  C   -0.28455917595065     -0.47748116836738     -0.16640749366249
  Br  0.34858640402131      2.33474758808199      0.08445612735568
  H   -0.07170422352536     -1.46857864620895      0.26637292020949
  H   0.13812718494886      0.50728499453720      1.72215669331713
  N   1.94105693162597      0.13437772023459      0.60554011032701
  H   2.07048437403309     -0.79031404530080      1.00503122737901
  H   2.50886507484230      0.78641856916337      1.13313417812396
  N   0.11803316426796     -0.52673464143583     -1.56041176373080
  H   -0.18300920267608      0.32730479561750     -2.01748866143774
  H   1.13179345044218     -0.54017534519470     -1.60252689625993
  C   -1.78016582191467     -0.23714201125637     -0.05767733308181
  H   -2.05018430123237      0.72464171629136     -0.50001551528776
  H   -2.31199313072019     -1.02333924913440     -0.59530941489411
  H   -2.11091169006271     -0.23649089645910      0.98401297137189
