15
Coordinates from ORCA-job run
  C   0.82735891522233     -0.03874148425172      0.70270531949516
  C   -0.33871932925822     -0.68714671275098     -0.05426827747045
  Br  0.34697710605920      0.07713118771120      2.67357505408705
  H   -0.63522842841357     -1.57744480289207      0.50736496992018
  H   1.67961476837362     -0.71912717249676      0.71879456903743
  N   1.21750927030043      1.19699177969817      0.13852120563463
  H   2.08497738861599      1.53762673769605      0.53061712065951
  H   0.50608034965947      1.90670806924462      0.25522071829600
  N   0.08155784332847     -1.12083009993596     -1.38355792714196
  H   0.76832821295992     -1.86312041145452     -1.31023223780552
  H   0.52847766988741     -0.33973657798050     -1.85188793907947
  C   -1.53816652209294      0.23821334427261     -0.19297732798899
  H   -1.30346236073011      1.07691871642303     -0.85480771129037
  H   -2.35886098306706     -0.31346957546139     -0.65187334118161
  H   -1.86644390084495      0.62602700217823      0.77280580482841
