15
Coordinates from ORCA-job run
  C   0.71361289905220      0.02176179163896      0.84553123904052
  C   -0.34283324975552     -0.67842680745129     -0.01979649506067
  Br  0.05179827808760      0.29431168677736      2.66957755868776
  H   -0.60922617847493     -1.60548922306325      0.49984908391413
  H   1.55689338996280     -0.66804022237156      0.99087695682364
  N   1.08336399125493      1.31039563529561      0.30062617924558
  H   1.52344866901905      1.16161449719280     -0.60096628166047
  H   1.76148964830254      1.76170512927303      0.90247810750651
  N   0.19519204775525     -1.05514520665139     -1.32639777100956
  H   0.29925891742555     -0.24525636538185     -1.92521788169847
  H   1.08739567045152     -1.52891535111670     -1.24788376153212
  C   -1.59649975125808      0.15429511184791     -0.22970789012976
  H   -2.09876633290436      0.35900516149737      0.71517670094001
  H   -1.34646476319662      1.11134719906989     -0.69123119967939
  H   -2.27866323572193     -0.39216303655690     -0.88291454538768
