15
Coordinates from ORCA-job run
  C   0.54999850249947      0.36581892040335      0.89817070778375
  C   -0.23362348598076     -0.46953214121838     -0.10818892311010
  Br  0.33181593451020      2.35132908349132      0.38078872896842
  H   -0.09291383255600     -1.49664712332900      0.25166044744632
  H   0.08548568001330      0.35960072109663      1.88366792546912
  N   1.88322275054460     -0.04874857064095      0.94907856374561
  H   2.26205100378350     -0.11484112943029      0.01197475699587
  H   2.46337878115550      0.51805740124727      1.55032252975159
  N   0.44688159619614     -0.38380923154389     -1.39877527783820
  H   0.14136125319544     -1.13621671927513     -2.00315762187802
  H   0.20619929355663      0.49382954700777     -1.84673495441156
  C   -1.72610838065321     -0.16368939702415     -0.13462206942915
  H   -2.15980751632732     -0.20208717776641      0.86928112384631
  H   -2.24282718639277     -0.90162576001575     -0.75404838146820
  H   -1.91511439354474      0.82756157699762     -0.54941755587178
