15
Coordinates from ORCA-job run
  C   0.83563114257304     -0.02517420359283      0.90368491270151
  C   -0.23171391006352     -0.62355159098230     -0.02767767101636
  Br  0.16343917972480      0.01704119018826      2.73827489287516
  H   -0.56985758664546     -1.57119878524829      0.41632018606979
  H   1.68465532634816     -0.71402610551294      0.94051524908292
  N   1.33243646748416      1.28198288725177      0.55250610402260
  H   0.60003574727731      1.97383628659957      0.66065689271215
  H   1.58920515157289      1.24058206313373     -0.42982960759206
  N   0.44814044454181     -0.80723894782188     -1.31572443415216
  H   1.02976173694319     -1.63719007630173     -1.28861686958880
  H   -0.23352971583784     -0.94199503869181     -2.05310670217871
  C   -1.43219146726502      0.28393351566849     -0.22913208617953
  H   -2.18880431176665     -0.22264899400596     -0.83446137289178
  H   -1.89104789526469      0.55451730611957      0.72231538621260
  H   -1.13616030962218      1.19313049319636     -0.75672488007734
