15
Coordinates from ORCA-job run
  C   0.94955789094080      0.20519579401085      0.47416425133365
  C   -0.32112061388351     -0.52696452851555      0.00563437822834
  Br  2.09082312316266     -1.09095184721782      1.45518661826695
  H   -0.84200965588797     -0.87416091636716      0.90743745084250
  H   1.54987955924864      0.48512053685306     -0.39663691071058
  N   0.76623948786601      1.35748254507717      1.30127278878854
  H   0.56636465391624      2.17921023425399      0.74801380660868
  H   0.03594547379458      1.21360969817742      1.98711588136336
  N   -0.09964298098678     -1.68849244946595     -0.84089846509473
  H   0.49100644918589     -2.35813627800137     -0.36314332543826
  H   0.38129819094825     -1.40794812560722     -1.68931520678973
  C   -1.22093666270022      0.44971408462070     -0.74647621437336
  H   -2.09698096534737     -0.08748631442755     -1.11110818895195
  H   -0.69600552230926      0.86752380839625     -1.61327969310110
  H   -1.55341842794794      1.27628375821317     -0.11796717097232
