15
Coordinates from ORCA-job run
  C   0.83386088698040      0.01688103196845      0.93444272575746
  C   -0.20730968592450     -0.64929117814745      0.02276775864110
  Br  0.09208331709368      0.22983840168520      2.74495913945989
  H   -0.46334385999784     -1.61018286697888      0.48143109953133
  H   1.66098367865553     -0.68404036452442      1.04891159621267
  N   1.37703634463575      1.27036842954699      0.49602749391928
  H   0.65356695346974      1.94662203771862      0.28942423072256
  H   1.95438394415683      1.11456071734779     -0.32105600393489
  N   0.50868687128973     -0.92467607963333     -1.23141267041103
  H   0.33928717596379     -0.17656877144828     -1.89383853774002
  H   0.16134065411177     -1.77713154313488     -1.65167428188412
  C   -1.48418340831139      0.15812547592787     -0.17999740401713
  H   -2.00951667974662      0.34198507115209      0.75773075714899
  H   -2.15517130512055     -0.38177372766846     -0.85240948209788
  H   -1.26370488725631      1.12428336618873     -0.64530642130820
