15
Coordinates from ORCA-job run
  C   -0.55052651244820      0.53570396344524      0.09434253134053
  C   0.76474532602482      0.06113549762523     -0.49904331164907
  H   -0.54856381569810      1.60616975264484      0.28635359167945
  H   0.99261510568773      0.70570579951786     -1.35533004420148
  N   -0.88858709621924     -0.14833762146973      1.38049728853501
  O   -0.21417184857298     -1.12236338941786      1.69735511458328
  O   -1.82470432636435      0.34876147187966      1.99319095301438
  N   -1.63839918788053      0.25513686898350     -0.91358104333104
  O   -1.56735676573833      0.95486077407272     -1.91693857754660
  O   -2.44013797000602     -0.63307282361441     -0.66778261706471
  C   0.74877749191851     -1.33013972413738     -0.92506153968109
  N   0.70203595966220     -2.42713384535858     -1.34193443313561
  N   1.88530935883201      0.31822348109675      0.50029982570711
  O   2.85221537163397     -0.42246315500493      0.45172867428958
  O   1.72774890916851      1.29881294973709      1.21690358746025
