15
Coordinates from ORCA-job run
  C   -0.77600244850168     -0.15118545663149     -0.19024770087722
  C   0.66670343107465     -0.11541976219808     -0.67132823813861
  H   -1.37383937987897     -0.80505903641437     -0.82697486958316
  H   0.70244842802132      0.43978231940261     -1.61239565356981
  N   -1.39643688440992      1.20829229487308     -0.25322884408212
  O   -2.61794649225018      1.22311851125301     -0.34305232706294
  O   -0.63816463130472      2.17220804841780     -0.19748925976220
  N   -0.94156819861985     -0.69101737433159      1.21942705349332
  O   -0.55345926177731     -1.84175186719987      1.34825474185791
  O   -1.45821662418658      0.03429773416933      2.05102803913479
  C   1.22669256984925     -1.44677922127015     -0.87276103543922
  N   1.70241355671200     -2.49935645663115     -1.08624563996993
  N   1.59226784402439      0.65448111161378      0.26253684265995
  O   2.49149905134538      1.26836638359007     -0.28878420470292
  O   1.37360903990222      0.55102277135701      1.46026109604214
