15
Coordinates from ORCA-job run
  C   -0.57552589268874      0.48293471815210      0.18651295764155
  C   0.75257441081342      0.18218143479805     -0.48631068223776
  H   -0.62287536634417      1.50475414988763      0.55586102524092
  H   0.93499912403209      0.97050463251385     -1.22513386944380
  N   -0.86017648724355     -0.42308772363888      1.34193977135447
  O   -1.81025402982906     -0.08367408048899      2.03544035965606
  O   -0.13345711526601     -1.40009892048117      1.48732509448044
  N   -1.66304216105910      0.31962903057637     -0.84733304598463
  O   -1.64034317262336      1.17934364276060     -1.72009301924590
  O   -2.41684015385686     -0.63638886472727     -0.74856466115149
  C   0.79947008057232     -1.11792201882595     -1.13832539909454
  N   0.80327333151589     -2.12993046723254     -1.73430935183818
  N   1.87479272905859      0.32732433763066      0.53387830297556
  O   2.87814182345201     -0.34047865225857      0.35186932335423
  O   1.67826287946654      1.16190878133412      1.40824319429308
