15
Coordinates from ORCA-job run
  C   -0.55006816718106      0.49812606110382      0.21943573126769
  C   0.73259666427082      0.16480464484004     -0.52267601554224
  H   -0.54815124989516      1.51686538194774      0.60010469306480
  H   0.90121628619568      0.95502679407990     -1.26277362023662
  N   -0.80301878429752     -0.41161738335230      1.37958438420623
  O   -0.09780824203688     -1.40977709727548      1.48012576499775
  O   -1.70734673353126     -0.05267529597354      2.12255258547145
  N   -1.69299114206418      0.37891772767447     -0.75912733164013
  O   -1.68939743867383      1.24851750609883     -1.62239594234786
  O   -2.46862148154590     -0.55618643338503     -0.63257818480928
  C   0.70649767018321     -1.12941509845955     -1.18741265805778
  N   0.64896843968633     -2.13603656310240     -1.78969861994862
  N   1.90825437231360      0.26611432303040      0.44053383284957
  O   1.78350467628557      1.10218295998499      1.32672033189774
  O   2.87836513029057     -0.43384752721190      0.20660504882729
