15
Coordinates from ORCA-job run
  C   -0.68363028125260      0.08222788134601     -0.28490330392258
  C   0.77276486327643     -0.35755698738710     -0.30039542126383
  H   -0.93304979904618      0.64854989905268     -1.18160926697164
  H   0.87185464382919     -1.20980376601222     -0.97948454727591
  N   -0.92605484330579      0.98660237476188      0.90011326936461
  O   -0.15748075947994      1.93928242566739      0.93774701189168
  O   -1.82015855301201      0.70388608053567      1.68095951312961
  N   -1.61610744798755     -1.08209677725019     -0.20103239940790
  O   -1.16781704100695     -2.12782911267962      0.26056142703334
  O   -2.75641474462992     -0.86622332512153     -0.59400993152680
  C   1.28494456537741     -0.70283126266925      1.01585722977313
  N   1.67749262555910     -0.98629629327131      2.08606761041809
  N   1.61736044181699      0.74557010975676     -0.94442174702262
  O   1.17307446094682      1.17562563101180     -1.99986376970887
  O   2.66222186891500      1.05089312225902     -0.39558567451030
