13
Coordinates from ORCA-job run
  C   0.14736963471421     -0.14466347473976      0.44428992235685
  C   -0.53758179890323     -0.57597543082971     -0.83689510735281
  H   -0.30302755359490     -0.56044423376356      1.34610044696816
  H   -0.45346331513440     -1.65883137595713     -0.93991483972054
  H   -0.03688917062390     -0.10800217123178     -1.68729959609012
  N   0.12357001502680      1.34684687208011      0.58344546492283
  O   0.49089433824477      1.98053746545587     -0.40005932056962
  O   -0.25175257340017      1.79245484612306      1.66192517523001
  N   1.60132380704563     -0.56506839003482      0.44717573208829
  O   1.85331943940345     -1.62665348415194     -0.10961261326074
  O   2.38046718719768      0.15737646813752      1.05275322300452
  C   -1.94325304176876     -0.17998216368997     -0.80570768188027
  N   -3.07097696820718      0.14040507260211     -0.75720080569656
