13
Coordinates from ORCA-job run
  C   0.46389959534244      0.06675457162687     -0.14294740069545
  C   -0.79287888770736     -0.75399989960933     -0.35151474713370
  H   0.99643338268597      0.29902427749711     -1.06568333246999
  H   -1.27140700267936     -0.93043863509312      0.61428717174123
  H   -0.52212780409995     -1.71835196307740     -0.78393621341877
  N   1.44098945180244     -0.66057914989192      0.75535294521850
  O   1.46078811987285     -1.88071938435352      0.64886335590343
  O   2.16091919887857      0.03363338178316      1.45926025409051
  N   0.14331388679850      1.36926545347527      0.52431083061034
  O   0.61620530521483      2.37895863104174      0.01495799654166
  O   -0.56042301266259      1.29680212844570      1.52593538757361
  C   -1.70860430397743     -0.04224773271714     -1.23954187806863
  N   -2.42610792946890      0.54289832087258     -1.96034436989273
