13
Coordinates from ORCA-job run
  C   0.59224323751649      0.16850511483865     -0.25615553540862
  C   -0.63243416232961     -0.36283838059847     -0.97650643258199
  H   1.45916619590970      0.24350060537086     -0.91163252097403
  H   -0.96219084885133      0.37436319883684     -1.71202664591241
  H   -0.33628923617168     -1.27077509436447     -1.50916096359184
  N   0.97461669465048     -0.78145639294870      0.85064729581687
  O   1.48644557068859     -1.82210407652665      0.45534409204648
  O   0.70278700284217     -0.46822663826771      2.00058103774180
  N   0.39036007930746      1.52692043595135      0.34544739245867
  O   -0.74552452508798      1.98880279925296      0.35533156846646
  O   1.41191886662416      2.05417631084004      0.77095048475311
  C   -1.73218224739737     -0.67728272557964     -0.06668863949140
  N   -2.60891662770108     -0.97458515680506      0.65386886667690
