13
Coordinates from ORCA-job run
  C   0.43836502772782      0.06889179268679     -0.19356260739560
  C   -0.84831783076086     -0.73041384258306     -0.19424482221071
  H   0.87807457641375      0.21857909860315     -1.17763424733005
  H   -0.61976952363905     -1.75713029080460     -0.49734253531256
  H   -1.26346558247373     -0.74513729364320      0.81493362869110
  N   1.45557749487247     -0.64617802209144      0.64852919504675
  O   1.23841889856752     -0.65910900356185      1.85539257656518
  O   2.37890333811272     -1.18471205776883      0.04888738006995
  N   0.26520989706213      1.43157869531650      0.42426481685079
  O   1.23481031836709      2.17204155278733      0.30079618373454
  O   -0.78794152012412      1.67400875455482      1.00102647148518
  C   -1.80919217377542     -0.15235825288305     -1.12893363253452
  N   -2.56067292035035      0.30993886938744     -1.90211240766004
