14
Coordinates from ORCA-job run
  C   -0.53152334080726      0.20800460270508      0.07229721381190
  C   0.98887852277850      0.24446945273994      0.04080262491437
  F   -0.86319962461255     -0.46916952641887      1.28456677791239
  H   1.36324479720361      0.88227984886337      0.83790430998448
  H   1.32428151944675      0.62191397392521     -0.92544354837034
  N   -1.08974191551868     -0.43997652976829     -1.05160820457033
  H   -0.68236642309406     -1.36143425471884     -1.14652497152502
  H   -2.09059373898051     -0.53791630525744     -0.92653055288173
  N   -0.98149771771898      1.55986340117915      0.14450096057525
  H   -1.90856886919171      1.65998766781939     -0.24581454043090
  H   -0.98055912495415      1.87548808532901      1.10550633975739
  N   1.63693456079447     -1.08566414595373      0.23923679354413
  O   1.13891717389471     -2.06192939364869     -0.31850965275454
  O   2.67579418075986     -1.09691687679529      0.89161645003295
