14
Coordinates from ORCA-job run
  C   -0.44269895676485      0.34466886902666     -0.11440272210381
  C   0.73011258730931     -0.19116037872046      0.69361196054408
  F   0.14788896897476      1.06483750209857     -1.19410428449069
  H   1.26069122524263      0.62633894553055      1.17503722454340
  H   0.36350133223999     -0.89573846116075      1.44026904814527
  N   -1.16038220818930      1.24645196606338      0.72500283157955
  H   -0.74726278359978      2.16866013153889      0.68563122547742
  H   -2.13637496867315      1.29371528974791      0.46751611867212
  N   -1.29525357723068     -0.68060400283022     -0.58312603245022
  H   -0.74724218177358     -1.38338131189959     -1.06346082703338
  H   -1.96718127280210     -0.29052926305164     -1.23390553651824
  N   1.74111711447811     -0.90888716471725     -0.13519782074852
  O   1.33167119733295     -1.73924142171322     -0.94518657972853
  O   2.92141352345566     -0.65513069991284      0.08331539411155
