14
Coordinates from ORCA-job run
  C   -0.49505416120338      0.19386200009067      0.17516560022257
  C   1.01253044580156      0.29366783839344     -0.04743410997195
  F   -0.71863122017919      0.03518448530606      1.54425022555075
  H   1.43728653750126      1.04130053492849      0.62246686078295
  H   1.22157411978930      0.52578969940927     -1.08878528324873
  N   -1.01885539765512     -0.98915269523750     -0.43178932148166
  H   -1.04031979627771     -0.89668023474649     -1.43848746237012
  H   -1.94828336437412     -1.17911434723557     -0.07968461902147
  N   -1.08546767103209      1.40750435814639     -0.29819808062402
  H   -2.09284072589999      1.35495974414246     -0.20119065000332
  H   -0.75530895448334      2.20116405303815      0.24000370248822
  N   1.66942441644574     -1.00278930903142      0.25884335579520
  O   1.86725855204355     -1.26221466035310      1.44190094811144
  O   1.94668721952353     -1.72148146685086     -0.69806116622988
