14
Coordinates from ORCA-job run
  C   -0.40741304947889      0.34501116483347     -0.16796981821078
  C   0.84516574937630     -0.00652866660239      0.63189495175112
  F   -0.03307578463732      1.21465456163641     -1.19419666973094
  H   0.57726545930329     -0.59653441621703      1.50488646699767
  H   1.37413536822533      0.90461938954630      0.91143138164851
  N   -1.32867986997040      0.97890368728209      0.72368321108196
  H   -2.18876664735517      1.18815135767739      0.23028894663406
  H   -0.94538406599798      1.84876610315375      1.07721708025635
  N   -0.92888327112431     -0.81163085487169     -0.82564461867884
  H   -1.36758363171631     -1.43501509036969     -0.16127449760992
  H   -1.59378633445400     -0.53754704337083     -1.53746051332442
  N   1.77284979876552     -0.82543242306848     -0.18963959347262
  O   1.75640701800928     -2.03871082127450      0.00206449325191
  O   2.46874926105465     -0.22970694835480     -1.00628082059408
