14
Coordinates from ORCA-job run
  C   -0.51312880111921      0.23172420535955      0.06621417817903
  C   1.01091996422336      0.23546666176590      0.02695318313371
  F   -0.84699295107600     -0.49897072311033      1.24850917757432
  H   1.34756813514973      0.58131150137515     -0.94933804698246
  H   1.40101138595021      0.86424535622953      0.82296608049262
  N   -1.08464380590178     -0.36256523892551     -1.08075549963828
  H   -2.06742545945575     -0.54572728388648     -0.91651333953975
  H   -0.61662517365196     -1.23463743442578     -1.29210666142276
  N   -0.95050203799025      1.57992111266025      0.20317557079689
  H   -1.86740717186498      1.71046918714496     -0.20102615323853
  H   -0.95816576720539      1.85101988150300      1.17753050909267
  N   1.57369617737603     -1.12572022345048      0.24764684151569
  O   1.26833886425500     -1.99357637670806     -0.57145879910998
  O   2.30435664131101     -1.29196062553171      1.21820295914683
