15

C	-0.509346	-0.021626	-1.449899
C	0.0	0.0	0.0
F	0.259106	-0.898518	-2.17165
H	1.091317	0.0	0.0
C	-1.921357	-0.432527	-1.586374
N	-3.034424	-0.760712	-1.768195
C	-0.35226	1.3204	-2.044265
N	-0.247395	2.388549	-2.521103
N	-0.453074	-1.214811	0.747753
O	-0.588892	-1.10464	1.959866
O	-0.591552	-2.236816	0.083692
N	-0.540978	1.180351	0.727898
O	-1.698791	1.502883	0.441652
O	0.176889	1.712942	1.562177
Cl	3.090805	0.0	0.0
