15

C	-0.505735	0.016735	-1.450447
C	0.0	0.0	0.0
F	0.256435	0.899232	-2.170972
H	1.091317	0.0	0.0
C	-0.33197	-1.328449	-2.034242
N	-0.209876	-2.399761	-2.501127
C	-1.921328	0.411983	-1.593718
N	-3.038047	0.726982	-1.776289
N	-0.535642	-1.191937	0.718587
O	-1.724608	-1.452402	0.503977
O	0.221079	-1.800078	1.462995
N	-0.459746	1.204818	0.752497
O	-0.631771	2.226034	0.09425
O	-0.563354	1.089272	1.96778
Cl	3.102189	0.0	0.0
