15

C	-0.502392	0.030004	-1.452736
C	0.0	0.0	0.0
F	0.243417	0.938224	-2.159291
H	1.091318	0.0	0.0
C	-0.30239	-1.295778	-2.070128
N	-0.145276	-2.346863	-2.570455
C	-1.92458	0.407093	-1.578108
N	-3.047568	0.71594	-1.729994
N	-0.52325	-1.19659	0.714354
O	0.155354	-1.650088	1.623974
O	-1.623611	-1.615824	0.342957
N	-0.469955	1.205422	0.754221
O	-0.656676	1.081063	1.957773
O	-0.577974	2.236691	0.099072
Cl	3.086402	0.0	0.0
