15

C	-0.510136	-0.005153	-1.433268
C	0.0	0.0	0.0
F	0.243271	-0.878063	-2.18452
H	1.091315	0.0	0.0
C	-1.925538	-0.400988	-1.582082
N	-3.046132	-0.717428	-1.735666
C	-0.327264	1.345829	-2.00525
N	-0.157	2.415966	-2.458977
N	-0.353901	-1.209181	0.762091
O	-0.712693	-2.197745	0.087552
O	-0.65601	-1.051958	1.959218
N	-0.504355	1.21086	0.705425
O	-1.723712	1.412995	0.659877
O	0.295151	1.84316	1.389074
Cl	2.863657	0.0	0.0
