11
Coordinates from ORCA-job run
  C   0.93385154404675     -0.33475500210993      0.09955600914005
  C   -0.37707876539385     -0.09758865305213     -0.15815407194812
  H   1.54564920362510     -0.85992349024461     -0.62805357957191
  N   1.52676032451881     -0.02244864500255      1.29404555491103
  H   0.98034308258646      0.63285686940751      1.83670544796088
  H   2.51314065521105      0.17743562531077      1.26016383276871
  C   -0.96704750824903     -0.53394550664954     -1.38342176247587
  N   -1.49571645966108     -0.86058698857790     -2.38415090714005
  N   -1.15743752678515      0.59257642539363      0.82787206116517
  H   -1.68543424724721      1.34432997312971      0.40159355863556
  H   -1.81703030265185     -0.03695060760498      1.27084385655457
