11
Coordinates from ORCA-job run
  C   0.55891127081742      0.16714659443877      0.85341065237675
  C   -0.51872680954602      0.13807946690017      0.02932409979716
  H   0.46801289319190      0.65544420771366      1.82191875269146
  N   1.84379489871750     -0.23944237551038      0.52423882816878
  H   1.90343524296195     -0.81250206610297     -0.30656866849760
  H   2.36423345053744     -0.63002322783972      1.29410915785710
  C   -0.40162247674951     -0.54698624614829     -1.22093979585661
  N   -0.26305603967184     -1.15954375387401     -2.21717550333710
  N   -1.73914209598414      0.82779100882375      0.25217797737034
  H   -1.68983739422181      1.40410533781157      1.08144766239885
  H   -2.52600294005292      0.19493105378747      0.32405683703088
