11
Coordinates from ORCA-job run
  C   0.86223416659666     -0.50041727460164      0.15310509730578
  C   -0.39423517761299     -0.08304393527586     -0.14153303590909
  H   1.36152251059388     -1.21894515540943     -0.49002232722402
  N   1.52665748692543     -0.12919193127465      1.29509021831698
  H   1.10070170150802      0.68175242929460      1.72378663186428
  H   2.52993466558159     -0.07387577460555      1.21066608274183
  C   -1.07136259395091     -0.58883753614856     -1.29414501346612
  N   -1.66483272298723     -0.96228596673989     -2.24065371100917
  N   -1.03236636486898      0.85691423375113      0.73209461301655
  H   -1.75716351371187      0.41331743407817      1.28610827431336
  H   -1.46209015807361      1.60461347693167      0.20150317004964
