11
Coordinates from ORCA-job run
  C   0.48556457553515     -0.18491816530843      0.89866240288010
  C   -0.52884240093532      0.15262569317845      0.06228592254179
  H   0.30280889375719     -0.19429495532068      1.97079950329518
  N   1.74978014734610     -0.60775371802592      0.51988635517930
  H   2.48774593292290     -0.33264602514544      1.14827674955344
  H   1.98461220142456     -0.42813297118705     -0.44655007882722
  C   -0.27254178440907      0.15027056069923     -1.34418341208633
  N   -0.00085816789606      0.10673495285953     -2.48919132913237
  N   -1.81077920162712      0.61477650424871      0.46565360366480
  H   -2.54624919712230     -0.02113829335668      0.18253379279362
  H   -1.85124099899604      0.74447641735828      1.46782649013769
