11
Coordinates from ORCA-job run
  C   0.90535922330544     -0.41876336812013      0.21042615490716
  C   -0.30316096072903      0.01121168585054     -0.23307693535649
  H   1.57701564961656     -0.94683468358470     -0.46012991508640
  N   1.37678078614310     -0.14769742350127      1.46429707086961
  H   0.65815710576874      0.16663506305089      2.10149108331785
  H   2.04698599372720     -0.79303504847093      1.84615035096709
  C   -0.70317289675375     -0.21495322886635     -1.58498060859706
  N   -1.08227879576778     -0.38832002542865     -2.68676487998338
  N   -1.15857673144118      0.71147378452842      0.68179646522030
  H   -2.09523430416246      0.32704898579385      0.65948079791824
  H   -1.22287506970684      1.69323425874831      0.43731041582308
