11
Coordinates from ORCA-job run
  C   0.84315696789192     -0.52872124737435      0.14853659846652
  C   -0.36554348226479     -0.00874791849659     -0.18439578441120
  H   1.37078149467346     -1.17409086714219     -0.54774928609446
  N   1.41762668233638     -0.34856973006707      1.37523727348825
  H   2.42068391736986     -0.40619824799380      1.41965047200490
  H   0.99622356099427      0.40025290235573      1.90711210427574
  C   -0.96387078814863     -0.30932054675551     -1.44545718811827
  N   -1.49140784259331     -0.51787153553873     -2.47787624431020
  N   -1.03287725935999      0.83450085948935      0.76607006700673
  H   -1.84689493749465      0.36971261480355      1.15225862839366
  H   -1.34887831340453      1.68905371671961      0.32361335929832
