11
Coordinates from ORCA-job run
  C   0.59739804233680      0.00627033945633      0.94602490879504
  C   -0.49190561018479      0.14824125984029      0.14981835736107
  H   0.48131026274688      0.26991273331661      1.99314727750043
  N   1.85667680024577     -0.35234606438150      0.54428063297266
  H   1.93946172220117     -0.77029643372558     -0.37062317812564
  H   2.44893225571152     -0.76639657691359      1.24332134408816
  C   -0.39119085882091     -0.20201639223453     -1.23476490917916
  N   -0.28756317647742     -0.50752730608168     -2.36855406685759
  N   -1.71266142757482      0.64608321184954      0.70625474644606
  H   -2.47265208729736     -0.00329006932311      0.54470288125761
  H   -1.96780592288684      1.53036529819722      0.28339200574135
