11
Coordinates from ORCA-job run
  C   0.45825633568186     -0.21722574079436      0.92232018742451
  C   -0.52956608442960      0.09399654495586      0.04584992038838
  H   0.23447010479296     -0.22746939340202      1.98711273010806
  N   1.72786666820888     -0.66788791717498      0.58955850327954
  H   1.97973737559778     -0.53347636194181     -0.38044408404747
  H   2.45376034333405     -0.35789307798521      1.21659601774307
  C   -0.21118808711789      0.15961793192756     -1.34721127010051
  N   0.09381575149280      0.25882852732427     -2.48029154822032
  N   -1.89987640706284      0.25105660692183      0.37967227039894
  H   -2.06317350789832      0.06652563474509      1.36011665849971
  H   -2.24510249259968      1.17292724542377      0.14372061452607
