11
Coordinates from ORCA-job run
  C   0.56496371360235     -0.14724475528191      0.95718006484067
  C   -0.50313636002573      0.11197929499367      0.16184016610816
  H   0.38045201337995     -0.22103422043297      2.02474585061236
  N   1.87214879406978     -0.23885496043964      0.55789045233514
  H   2.48205068315244     -0.78003509702905      1.14607210090025
  H   2.03755815890853     -0.35720757805065     -0.43074986533789
  C   -0.30936975708366      0.20256879581111     -1.25382791726547
  N   -0.12780741299318      0.26181206358057     -2.41700350258264
  N   -1.79459020720406      0.29361795119215      0.75052099550458
  H   -2.13900171109872      1.23124738336978      0.58281730043449
  H   -2.46426791470771     -0.35584887771306      0.35651435445035
