11
Coordinates from ORCA-job run
  C   0.46958823337213     -0.07696456206779      0.93721123148037
  C   -0.52712564099783      0.12222880927847      0.03800518334232
  H   0.32207506356809      0.24478570481868      1.96613962132157
  N   1.63444045595574     -0.79606956830846      0.71312430174469
  H   1.84091617677630     -0.96899901274165     -0.26155071890776
  H   2.43696079929651     -0.45131760721863      1.21612417207181
  C   -0.30066100996481     -0.25884907853048     -1.32207674656182
  N   -0.04036751069262     -0.55059813170278     -2.43287239915974
  N   -1.83203744637787      0.58404381250589      0.35159996229584
  H   -1.95179211574687      0.69822144292852      1.34883751989145
  H   -2.05199700518877      1.45251819103823     -0.11954212751873
