11
Coordinates from ORCA-job run
  C   0.93734888376087     -0.32754701382444      0.12599218023777
  C   -0.37574884858280     -0.12851649241762     -0.15403027756417
  H   1.54709523111682     -0.94818225471880     -0.52414946948232
  N   1.57853600881965      0.29109398649332      1.16214035970402
  H   0.94581777388947      0.69446289794134      1.83911581087693
  H   2.38598758977616     -0.17463699350787      1.53976406625509
  C   -0.97159735886465     -0.72632267507265     -1.30547908801186
  N   -1.50956431285862     -1.20833566566136     -2.23610624150830
  N   -1.14437462706267      0.70411608879804      0.72686694359616
  H   -2.00946527556341      0.24515853111975      0.98521033149365
  H   -1.38403506443081      1.58070959085028      0.27767538440302
