11
Coordinates from ORCA-job run
  C   0.81463361105248     -0.56505359067784      0.33134538322597
  C   -0.36504176133427     -0.11683816005718     -0.16836207791805
  H   1.31056420166553     -1.41921171359268     -0.12047584482164
  N   1.39300001475567     -0.04248483290155      1.45375378731163
  H   1.00884250482506      0.85340578061045      1.72047039312568
  H   2.39135002748549     -0.13304181909216      1.53464453834226
  C   -0.97131662486578     -0.76186933913443     -1.28846105496527
  N   -1.50281443517651     -1.25347662708885     -2.21778612736092
  N   -0.99083936368303      1.01041870056935      0.46226473519611
  H   -1.82915771159229      0.72795830734886      0.95730409606598
  H   -1.26022046313237      1.70019329401603     -0.22869782820177
