11
Coordinates from ORCA-job run
  C   0.91111641706477     -0.40094528259171      0.14502599338681
  C   -0.39637825522848     -0.15314928850323     -0.12209245582347
  H   1.45579554827562     -1.14216274271694     -0.43256815533743
  N   1.62704566287522      0.30500566361081      1.07061412231063
  H   2.41593647133361     -0.16047068493146      1.48578898187508
  H   1.04548730413178      0.83541848908446      1.70446939990634
  C   -1.07039134893118     -0.85345448553282     -1.16795717961634
  N   -1.67310716423109     -1.41330601057263     -2.01116641429662
  N   -1.07807411670530      0.83887118476817      0.65946369459673
  H   -1.96150532780933      0.47899019868801      0.99989041847964
  H   -1.27592519077562      1.66320295869734      0.10353159451863
