11
Coordinates from ORCA-job run
  C   0.84962793969126     -0.27596202540720      0.04817011492340
  C   -0.46389367120239     -0.09001116624419     -0.23410701465566
  H   1.47254414464309     -0.83588889619040     -0.64177337473594
  N   1.49917660516093      0.32507287644940      1.11966371986731
  H   0.92822926391571      0.41357947351508      1.94854961913300
  H   2.39691968830729     -0.07853519868069      1.33255354225574
  C   -1.03188828094990     -0.75588799766597     -1.36507347263616
  N   -1.51411264446125     -1.33270290689640     -2.27030172042149
  N   -1.31393871018555      0.79405965754334      0.47076281586454
  H   -2.01921384498911      0.34381287096129      1.03688705285766
  H   -0.80445048993007      1.49246331261574      0.99166871754760
