11
Coordinates from ORCA-job run
  C   0.81228243013245     -0.57971634239431      0.24545317438911
  C   -0.41228560076244     -0.11953465480780     -0.11624466812985
  H   1.23143395310146     -1.45690702536939     -0.23883792673661
  N   1.53665095866886     -0.03837580479883      1.27033301119714
  H   1.20510824721082      0.87341049311369      1.55346681283960
  H   2.53565449644212     -0.14548281476237      1.22521348146874
  C   -1.16836158014465     -0.78341690091085     -1.12929897111049
  N   -1.82398959010145     -1.28872612944937     -1.96746607685281
  N   -0.93321472073827      1.03815321564132      0.55301730265395
  H   -1.27793177991844      1.71300003923404     -0.11898337057381
  H   -1.70534681389045      0.78759592450387      1.16034723085504
