11
Coordinates from ORCA-job run
  C   0.52068264171285     -0.32244093712362      0.81769582267393
  C   -0.53549816803709      0.17700696073895      0.12644644720836
  H   0.38960663667989     -0.57995834956686      1.86621911342849
  N   1.76989268081229     -0.62071314711548      0.29718787114205
  H   1.95834921539421     -0.22431802960976     -0.61306297425585
  H   2.53410476111794     -0.48340353259464      0.93921897267752
  C   -0.34982125320889      0.49665569671688     -1.25445138596318
  N   -0.14004837985563      0.71646913964476     -2.39234972169164
  N   -1.80200224489846      0.50487039868398      0.68035512001561
  H   -1.80055457951932      0.39319879787542      1.68536217545266
  H   -2.54471131019779     -0.05736699764961      0.28337855931204
