11
Coordinates from ORCA-job run
  C   0.68854350731999     -0.59317199670076      0.26694967970643
  C   -0.47188256569295     -0.09267094724933     -0.22611654340133
  H   1.15503905159329     -1.44386195762550     -0.21915734307485
  N   1.26809862618967     -0.16607950030213      1.45473018556450
  H   2.22449265743056     -0.45751445318972      1.57405452105721
  H   1.15393956597630      0.82066492118307      1.63811968666480
  C   -0.98392883194451     -0.61023224714199     -1.45698226915036
  N   -1.39126989645359     -1.00486092113122     -2.48809629029856
  N   -1.27472244277731      0.86329013542808      0.43977025068594
  H   -1.27681497702185      1.78227521924991      0.02030236967286
  H   -1.09149469461960      0.90316174747958      1.43142575257335
