11
Coordinates from ORCA-job run
  C   0.88231438135187     -0.46598603293039      0.19809962902216
  C   -0.39402631755717     -0.14168855362042     -0.12942845493833
  H   1.41278300508723     -1.23083656563570     -0.36162172751024
  N   1.53213195894455      0.06958581202908      1.27486774740572
  H   1.08233920248430      0.89879998545030      1.63738058676493
  H   2.53624693782681      0.10351379003025      1.22651511093943
  C   -1.05953685627639     -0.80419924602911     -1.20485260528325
  N   -1.64612640812140     -1.31287953582283     -2.09071724282818
  N   -1.06163552523034      0.86936904032779      0.63963117577663
  H   -1.79094450989045      0.46315020199691      1.21473717406415
  H   -1.49554586861902      1.55217110420413      0.03038860658698
