11
Coordinates from ORCA-job run
  C   0.79449824354218     -0.59242623190260      0.33649522446797
  C   -0.40270855414314     -0.14334350635305     -0.11869294360224
  H   1.20684440611396     -1.52454115190528     -0.03873390852459
  N   1.49497685422323      0.03397713537078      1.32877260435279
  H   2.49145359782340     -0.10187258147646      1.33588901478458
  H   1.17899739642699      0.97744326702389      1.50554508748859
  C   -1.13822672617534     -0.89008283468319     -1.08820035979136
  N   -1.77575001442465     -1.46347993079366     -1.89595891791263
  N   -0.91665040897781      1.08878201596220      0.40794676533999
  H   -1.21651935898282      1.69932673178211     -0.34239223683130
  H   -1.71791543542599      0.91921708697527      1.00532967022820
