11
Coordinates from ORCA-job run
  C   0.48526368444173     -0.13492514243700      0.91052358853063
  C   -0.52124573195532      0.16338626868796      0.05007167544060
  H   0.31724578429840     -0.01441705917685      1.97833513960430
  N   1.71941401123670     -0.66616649692818      0.57112608993130
  H   1.95166476941972     -0.60428159843806     -0.41050087238866
  H   2.47938737523614     -0.36812963668923      1.16167487588415
  C   -0.28930368191476     -0.01345014829369     -1.34944533064129
  N   -0.04032229489572     -0.20091885598818     -2.48508606062369
  N   -1.77019144359879      0.73840832475969      0.41018307754620
  H   -2.54292523938855      0.11553266867475      0.20875848932471
  H   -1.78798723287956      0.98296167582879      1.39135932739176
