11
Coordinates from ORCA-job run
  C   0.88797941364831     -0.45057206598878      0.15139984361416
  C   -0.38768282061281     -0.09982963293080     -0.15170748198606
  H   1.43757335860833     -1.13217598696564     -0.49119480623182
  N   1.51528138647798     -0.04982320918166      1.29783954554218
  H   1.05196830273273      0.72276422037800      1.75606724140039
  H   2.51962479937492     -0.00340379548788      1.27165525233125
  C   -1.02951812641325     -0.62331892991436     -1.31438292627593
  N   -1.59641646862763     -1.01574344100718     -2.26959906605402
  N   -1.07764707911487      0.79581123956735      0.73178664630287
  H   -1.51531269452357      1.54607977914949      0.21100865969295
  H   -1.80585007155014      0.31021182238146      1.24312709166401
