11
Coordinates from ORCA-job run
  C   0.56323692160913     -0.14261902485459      0.95907481566770
  C   -0.50119411932744      0.12006905640603      0.15980249931753
  H   0.37969425298293     -0.18827880329329      2.02831069720085
  N   1.86734053112304     -0.26961783766130      0.56008678563594
  H   2.02921320652070     -0.41285525067858     -0.42575141199262
  H   2.46852618370801     -0.80717135369305      1.16044710359513
  C   -0.30811334441777      0.17698744931676     -1.25782134544706
  N   -0.12648244428602      0.20803159726722     -2.42211194112762
  N   -1.78750969765786      0.33987841546513      0.74675012814958
  H   -2.11406930280367      1.28021370584970      0.55987369983109
  H   -2.47064218745103     -0.30463795412403      0.36833896916946
