11
Coordinates from ORCA-job run
  C   0.56916323059683     -0.12158810312218      0.95829080625765
  C   -0.50456389425384      0.10519853642870      0.16077975752162
  H   0.38870282898610     -0.17355882203126      2.02788544966625
  N   1.87665508802698     -0.20517544709362      0.55714520017057
  H   2.03931940701540     -0.34573088431983     -0.42908692621304
  H   2.49369162452385     -0.72721645930715      1.15531502006724
  C   -0.31531623538633      0.16632525504627     -1.25706159539400
  N   -0.13620263392756      0.20045114665579     -2.42166683912010
  N   -1.79671640507366      0.28081767079188      0.74927727912439
  H   -2.15609763077377      1.20897243428873      0.56238482663328
  H   -2.45763537973401     -0.38749532733733      0.37273702128614
