11
Coordinates from ORCA-job run
  C   0.60042253201274     -0.04665160642064      0.94209020445486
  C   -0.45967215983157      0.22795648664007      0.14106769030457
  H   0.62318523395067      0.43514040127388      1.91504955972614
  N   1.60479354450031     -0.94132622764808      0.68270080692389
  H   1.70067948174373     -1.25090332269039     -0.27311623147584
  H   2.47819676521960     -0.78155133735722      1.15438950680162
  C   -0.52334971051321     -0.37560720324706     -1.15590579852142
  N   -0.54757508565621     -0.87622797182205     -2.22280503194994
  N   -1.48901738273411      1.10571110003692      0.60719269549706
  H   -1.61277259538443      1.88388616217975     -0.02861591674513
  H   -2.37489062330752      0.61957351905481      0.67495251498420
