11
Coordinates from ORCA-job run
  C   0.48802933876449     -0.30686867840567      0.85739673607512
  C   -0.54405720815404      0.09317487828757      0.07236115500863
  H   0.29719004957157     -0.52975942424789      1.90517947950340
  N   1.76936101691533     -0.61219114464202      0.42211940034582
  H   2.49367028889808     -0.39725500097781      1.08926251244667
  H   1.99100450510823     -0.27248679369898     -0.50408279409426
  C   -0.26981904854963      0.42970645567215     -1.29068535763339
  N   0.02145983362452      0.73341804688369     -2.39058244214099
  N   -1.90950707298533      0.10840546129952      0.45985124941188
  H   -2.30340220347957      1.04042151161858      0.43268335292600
  H   -2.03492949971365     -0.28756531178915      1.38149670815112
