11
Coordinates from ORCA-job run
  C   0.80811568950856     -0.58474768560069      0.25595283810470
  C   -0.36706811444426     -0.06270484373208     -0.17845353468941
  H   1.29136234975615     -1.38165034881359     -0.30156065944381
  N   1.39686552677336     -0.21239080244488      1.43158324602437
  H   1.02518937190966      0.64863793192748      1.80839305233868
  H   2.39421828310715     -0.32427915439526      1.49589228089040
  C   -0.98697782087122     -0.55604363967954     -1.36609061923332
  N   -1.53021410662908     -0.92044131031015     -2.34585227886719
  N   -0.97580326707104      0.98504975574058      0.59061619124296
  H   -1.81430826923914      0.65282886114038      1.05355207708776
  H   -1.24137964280013      1.75774123616776     -0.00803259345514
