11
Coordinates from ORCA-job run
  C   0.68335599570790     -0.57291819769415      0.39790333038907
  C   -0.44011063153479     -0.15862534228075     -0.23912332687021
  H   1.18728337161357     -1.47356615126637      0.06278653292042
  N   1.17229911085035      0.01445629579530      1.55845124617456
  H   1.04884723212331      1.01652718988288      1.59550796042307
  H   2.11790426643785     -0.24877965579653      1.78399347686735
  C   -0.85237880912790     -0.83871525904030     -1.42788125273652
  N   -1.17277896567757     -1.36861628706565     -2.42860395225294
  N   -1.29548975491631      0.86472022392484      0.23236020952226
  H   -1.17188048032451      1.05156610838831      1.21633924093747
  H   -1.27905133515192      1.71395107515241     -0.31473346537454
