11
Coordinates from ORCA-job run
  C   0.76513058796254     -0.49347617156773      0.21496303233015
  C   -0.39136505241866     -0.01178105925776     -0.30457091238217
  H   1.32119192180568     -1.25134267047931     -0.32713537832814
  N   1.36842185155576      0.01909851586499      1.35673322742355
  H   0.71623048081559      0.32321157051586      2.06578289641773
  H   2.08580716962538     -0.57257768146192      1.74321299035737
  C   -0.92521941633630     -0.61398248054658     -1.48668567956064
  N   -1.39005081799010     -1.13097455116795     -2.43610211549629
  N   -1.08341685873496      1.11480543751991      0.19728469285485
  H   -1.96439346138796      0.90722070635420      0.64575716267361
  H   -0.50133640489697      1.70979838422630      0.76776008370998
