16

C	-0.24737	0.045564	-1.522863
C	0.0	0.0	0.0
Cl	-0.051571	-1.620954	-2.205699
H	1.088989	0.0	0.0
H	-0.390379	0.936624	0.404865
C	-1.624795	0.523147	-1.934253
H	-2.394048	-0.126524	-1.521251
H	-1.787764	1.535377	-1.552619
H	-1.70538	0.534922	-3.023064
N	0.803649	0.860594	-2.095079
H	0.591057	1.830834	-1.880591
H	1.67174	0.6246	-1.576904
N	-0.695863	-1.066726	0.732386
O	-0.160257	-2.16724	0.84274
O	-1.812264	-0.790992	1.201247
F	2.640137	0.0	0.0
