16

C	-0.377377	-0.248251	-1.473461
C	0.0	0.0	0.0
Cl	-0.375773	1.420995	-2.204387
H	1.087773	0.0	0.0
H	-0.427295	0.912959	0.407653
C	0.714176	-1.047193	-2.161688
H	0.665712	-2.07777	-1.804255
H	0.577896	-1.023613	-3.244288
H	1.677043	-0.638682	-1.841742
N	-1.687956	-0.803791	-1.75358
H	-2.386786	-0.290867	-1.224418
H	-1.676409	-1.757689	-1.408497
N	-0.439777	-1.085553	0.882202
O	-0.429953	-2.247855	0.456307
O	-0.759922	-0.793153	2.0371
F	2.594434	0.0	0.0
