16

C	-0.21305	-0.10226	-1.526785
C	0.0	0.0	0.0
Cl	-0.178655	-1.906146	-1.835721
H	1.090239	0.0	0.0
H	-0.474989	-0.778745	0.587756
C	-1.545295	0.397804	-2.052722
H	-2.37299	-0.092392	-1.535626
H	-1.616148	1.476271	-1.900493
H	-1.612334	0.184653	-3.120497
N	0.892175	0.469545	-2.256803
H	1.734371	0.26471	-1.69141
H	0.771265	1.475807	-2.187165
N	-0.452948	1.285431	0.537842
O	-0.230628	2.312761	-0.113092
O	-1.002851	1.290743	1.644128
F	2.605801	0.0	0.0
