16

C	-0.227135	0.059969	-1.518503
C	0.0	0.0	0.0
Cl	-0.124931	-1.692936	-2.209813
H	1.088871	0.0	0.0
H	-0.410457	0.915365	0.4284
C	-1.585865	0.542567	-1.97224
H	-1.724807	1.557449	-1.602454
H	-2.37027	-0.094478	-1.57276
H	-1.656787	0.545854	-3.061803
N	0.836093	0.861185	-1.973807
H	1.715029	0.603346	-1.486122
H	0.930605	0.841972	-2.978339
N	-0.685035	-1.11219	0.67157
O	-1.877722	-0.939287	0.961204
O	-0.063796	-2.144391	0.911188
F	2.662482	0.0	0.0
