16

C	-0.357074	-0.075725	-1.483502
C	0.0	0.0	0.0
Cl	-0.127219	1.703283	-2.054316
H	1.0886	0.0	0.0
H	-0.452545	0.855579	0.49442
C	0.668665	-0.879099	-2.25768
H	1.65435	-0.589039	-1.879422
H	0.57704	-0.703237	-3.333773
H	0.507777	-1.934647	-2.03584
N	-1.691563	-0.499923	-1.717585
H	-1.89533	-0.512607	-2.70907
H	-2.351956	0.109499	-1.251354
N	-0.48086	-1.192623	0.719062
O	-0.140866	-2.303482	0.314642
O	-1.179666	-1.013861	1.724262
F	2.609901	0.0	0.0
