16

C	-0.616875	-0.014423	-1.389185
C	0.0	0.0	0.0
Cl	0.371724	-0.986526	-2.544649
H	1.086932	0.0	0.0
H	-0.339192	0.89474	0.526909
C	-2.031987	-0.585904	-1.440957
H	-2.048961	-1.641652	-1.177084
H	-2.664168	-0.029676	-0.738605
H	-2.436018	-0.468346	-2.449969
N	-0.555366	1.359092	-1.873226
H	-0.959931	1.398256	-2.803297
H	-1.112195	1.93978	-1.25627
N	-0.432237	-1.120384	0.837331
O	-0.38004	-2.262044	0.368161
O	-0.765347	-0.87644	2.004935
F	2.52887	0.0	0.0
