17

C	-0.437776	0.043271	-1.450239
C	0.0	0.0	0.0
Br	0.100312	1.708771	-2.30943
H	1.095228	0.0	0.0
N	0.065375	-1.027687	-2.201545
H	-0.308599	-1.037582	-3.140026
H	-0.106968	-1.909399	-1.743009
N	-2.02456	0.0564	-1.480979
O	-2.628535	1.078284	-1.188753
O	-2.549201	-1.035043	-1.715442
C	-0.371559	-1.311327	0.702185
H	-1.442889	-1.534481	0.703957
H	0.182462	-2.138483	0.254811
H	-0.02573	-1.239313	1.734231
C	-0.488147	1.130332	0.764289
N	-0.847813	2.011985	1.455565
F	2.500638	0.0	0.0
