17

C	-0.566218	-0.037962	-1.421083
C	0.0	0.0	0.0
Br	0.161158	-1.568569	-2.381218
H	1.093806	0.0	0.0
N	-1.996095	-0.065169	-1.595479
H	-2.385463	0.737397	-1.111602
H	-2.34689	-0.913736	-1.168232
N	-0.078889	1.235549	-2.131214
O	1.036908	1.253078	-2.623233
O	-0.864285	2.183517	-2.078736
C	-0.345612	-1.247853	0.818059
H	0.046082	-1.098512	1.826291
H	0.172866	-2.1074	0.394709
H	-1.419436	-1.457163	0.889941
C	-0.526608	1.172874	0.673772
N	-0.967799	2.116763	1.222916
F	2.512656	0.0	0.0
