17

C	-0.548762	-0.016539	-1.407295
C	0.0	0.0	0.0
Br	0.542283	-1.332808	-2.501233
H	1.091814	0.0	0.0
N	-1.930544	-0.250331	-1.506172
H	-2.23376	-0.257283	-2.471664
H	-2.173887	-1.116567	-1.046437
N	-0.281279	1.298568	-2.144817
O	-0.962682	1.499014	-3.149489
O	0.586554	2.035418	-1.704906
C	-0.335025	-1.286245	0.764141
H	-1.400108	-1.410395	0.994075
H	0.031221	-2.146391	0.200865
H	0.220359	-1.256954	1.70297
C	-0.534835	1.145033	0.715264
N	-0.969564	2.038941	1.344813
F	2.518148	0.0	0.0
