17

C	-0.542172	-0.014912	-1.40929
C	0.0	0.0	0.0
Br	0.530935	-1.358242	-2.48742
H	1.091803	0.0	0.0
N	-1.927942	-0.221405	-1.516538
H	-2.223569	-0.240038	-2.483852
H	-2.195377	-1.073669	-1.043823
N	-0.247238	1.291618	-2.154835
O	-0.896951	1.480133	-3.181147
O	0.604872	2.034539	-1.696395
C	-0.341345	-1.283318	0.766479
H	0.035229	-2.145299	0.213062
H	-1.409617	-1.409372	0.98337
H	0.19971	-1.247406	1.713882
C	-0.535601	1.147428	0.71178
N	-0.979873	2.037643	1.340115
F	2.518102	0.0	0.0
