17

C	-0.080712	-0.028341	-1.528512
C	0.0	0.0	0.0
Br	-0.172387	1.907902	-2.276459
H	1.098114	0.0	0.0
N	0.990577	-0.749684	-1.992487
H	1.103039	-0.750942	-2.993263
H	1.846208	-0.518731	-1.42479
N	-1.397414	-0.5643	-2.091518
O	-1.348853	-1.170401	-3.15739
O	-2.41245	-0.348604	-1.438513
C	-0.436505	-1.32821	0.625343
H	-1.522374	-1.44249	0.650327
H	0.01132	-2.14809	0.060638
H	-0.04691	-1.373138	1.644704
C	-0.601139	1.130519	0.668808
N	-1.051685	2.012697	1.302365
F	2.640055	0.0	0.0
