17

C	-0.473887	-0.058694	-1.433217
C	0.0	0.0	0.0
Br	0.477775	-1.605991	-2.344642
H	1.091735	0.0	0.0
N	-1.865329	-0.097539	-1.618191
H	-2.279954	-0.839528	-1.069526
H	-2.10534	-0.187696	-2.597001
N	0.015283	1.147941	-2.242442
O	-0.455799	1.254774	-3.374658
O	0.811561	1.910254	-1.718408
C	-0.380454	-1.235778	0.818191
H	-1.459398	-1.416683	0.901241
H	0.111868	-2.110617	0.396147
H	0.01437	-1.094206	1.825731
C	-0.52714	1.194019	0.637252
N	-0.960916	2.11706	1.225163
F	2.516632	0.0	0.0
