15
Coordinates from ORCA-job run
  C   0.88635369363666      0.27517925510245     -0.54849020189559
  C   -0.26353225332927     -0.11128460550405      0.41808776155583
  Cl  0.39662610997712      0.34260075445125     -2.26632260229388
  H   0.19973862249948     -0.31491794824059      1.38646197193514
  C   1.45905256406363      1.56629698700036     -0.15812449399893
  N   1.90901524994729      2.59586730743010      0.18724835290584
  C   1.90992701687009     -0.76802465608198     -0.42012584549614
  N   2.69846421763603     -1.63012935378717     -0.29097203835740
  C   -1.10414801003613     -1.28281868276410     -0.04879544144355
  H   -1.80773390742366     -1.55111410967818      0.74133584073791
  H   -0.46849778429086     -2.14626086973322     -0.25402442950640
  H   -1.65876299852126     -1.02232864791457     -0.94950518569545
  N   -1.15524745540913      1.06994350773567      0.66980045828249
  O   -1.53781235577336      1.70438082992465     -0.30826481921251
  O   -1.46344270984664      1.27161023205938      1.84069067248262
