15
Coordinates from ORCA-job run
  C   1.08187586439283      0.24141573344875     -0.08244944246733
  C   -0.33288234636339      0.13784302046301      0.52996596760455
  Cl  2.23576393518396     -0.30360011555045      1.18696847337624
  H   -0.33149745688339      0.69607274124861      1.46864054651323
  C   1.24885171180251     -0.62590657928065     -1.24852841883675
  N   1.39775730563584     -1.36967998061859     -2.14603403758237
  C   1.40771740483338      1.63072719091245     -0.40895729176547
  N   1.66985048205941      2.75684133733712     -0.61940382516364
  C   -0.82278387521736     -1.28619782103564      0.72079982396257
  H   -0.13856647185069     -1.84327158330441      1.36037849159796
  H   -0.90577565847652     -1.79427355264152     -0.24215203144019
  H   -1.80348010320930     -1.26077954927647      1.19717143992257
  N   -1.31843526045402      0.84833210379313     -0.35689005530233
  O   -1.04275951503056      0.94528600159377     -1.55082646776205
  O   -2.34663601642269      1.22819105291089      0.19031682734299
