15
Coordinates from ORCA-job run
  C   0.92477704836094      0.27630283527205     -0.48094271142650
  C   -0.29163094161435     -0.12246191730872      0.39544983742090
  Cl  0.54302999640296      0.44006433698418     -2.21918622131843
  H   0.10680263299325     -0.38072025656455      1.37952489181392
  C   1.50462471663350      1.53053211900439      0.00699760648878
  N   1.95648132388582      2.52849700605076      0.43341526416286
  C   1.91135619308579     -0.80059139666880     -0.34277056275631
  N   2.66501764204806     -1.69252720456986     -0.20863690000554
  C   -1.12904636522867     -1.24914294808266     -0.17529549931185
  H   -1.88941383990698     -1.53103066628348      0.55529968320159
  H   -1.61708480091542     -0.93536704688378     -1.09722792481573
  H   -0.50312822960717     -2.12053936175469     -0.37679263051827
  N   -1.16755855831150      1.07038113184112      0.64659899458674
  O   -1.51730650786430      1.24732678984700      1.81010030946439
  O   -1.49792030996193      1.73927657911704     -0.32753413698656
