15
Coordinates from ORCA-job run
  C   1.07584858760757      0.24853498555215     -0.13873623792051
  C   -0.27477222686930      0.02449170074898      0.57783152545278
  Cl  2.33393826483888     -0.55493073280178      0.86678933157477
  H   -0.16729100736127      0.37390723628250      1.60691501788798
  C   1.10648559499344     -0.35524198231780     -1.47069154676813
  N   1.13952195004192     -0.89654485743633     -2.51320942392219
  C   1.40237553654566      1.67428210987863     -0.19998966833762
  N   1.66076989043116      2.82072479525629     -0.19862508425660
  C   -0.77943616926593     -1.40569509191565      0.51639683855306
  H   -1.70656401743907     -1.47747193695493      1.08615286326758
  H   -0.04881656144934     -2.08735280000330      0.95124096873624
  H   -0.97145644114655     -1.69945569192764     -0.51759539989248
  N   -1.32404172847829      0.90947023826120     -0.03778694316450
  O   -2.28353964858014      1.17086428433577      0.67778646029516
  O   -1.16402202386874      1.25441774304189     -1.20647870150553
