15

C	-0.650922	-0.021138	-1.370097
C	0.0	0.0	0.0
Br	0.000344	-1.44842	-2.49401
H	1.088949	0.0	0.0
H	-1.735454	-0.110098	-1.322814
N	-0.399659	1.305099	-2.035009
O	-1.398939	2.005014	-2.197019
O	0.743589	1.598133	-2.341698
N	-0.507148	-1.259253	0.690241
O	0.274441	-2.174279	0.91258
O	-1.705444	-1.275252	1.004697
N	-0.449672	1.171294	0.685321
H	0.241323	1.419656	1.380834
H	-1.367774	1.056362	1.0959
F	2.538658	0.0	0.0
