15

C	-0.581915	0.037844	-1.408035
C	0.0	0.0	0.0
Br	0.080815	-1.401021	-2.505944
H	1.088306	0.0	0.0
H	-1.667939	-0.022979	-1.41308
N	-0.254701	1.369451	-2.022182
O	0.819109	1.542647	-2.576556
O	-1.12919	2.228014	-1.860021
N	-0.574589	-1.247633	0.633222
O	0.165588	-1.942007	1.321369
O	-1.782978	-1.463795	0.468674
N	-0.414651	1.102442	0.818622
H	-1.224328	1.603802	0.480913
H	0.378233	1.719857	0.929715
F	2.541169	0.0	0.0
