15

C	-0.580548	0.067711	-1.40539
C	0.0	0.0	0.0
Br	0.089858	-1.340787	-2.534905
H	1.088347	0.0	0.0
H	-1.665981	0.004748	-1.414345
N	-0.257543	1.415216	-1.99041
O	-1.136706	2.263065	-1.81133
O	0.812249	1.607028	-2.543129
N	-0.56561	-1.262386	0.608215
O	-1.764543	-1.498988	0.415278
O	0.169029	-1.943526	1.311755
N	-0.414558	1.083013	0.844537
H	-1.22022	1.595071	0.517814
H	0.379534	1.693227	0.973774
F	2.540276	0.0	0.0
