15

C	-0.367203	-0.036066	-1.472055
C	0.0	0.0	0.0
Br	0.21973	1.56776	-2.372907
H	1.090568	0.0	0.0
H	0.093233	-0.883399	-1.967457
N	-1.848451	-0.178195	-1.693586
O	-2.59022	0.678205	-1.211726
O	-2.223419	-1.181147	-2.299648
N	-0.467791	-1.329157	0.551963
O	-1.109822	-1.369773	1.596132
O	-0.144669	-2.326279	-0.099428
N	-0.446592	1.083378	0.789888
H	-1.27423	1.547154	0.450808
H	0.322039	1.718573	0.931392
F	2.51865	0.0	0.0
