15

C	-0.583742	-0.097156	-1.411468
C	0.0	0.0	0.0
Br	0.584978	-0.945684	-2.69522
H	1.093696	0.0	0.0
H	-1.532316	-0.626353	-1.461328
N	-0.886206	1.294816	-1.887955
O	-2.081926	1.590113	-1.915529
O	0.04022	2.032405	-2.177724
N	-0.420385	-1.223701	0.734632
O	-0.694603	-1.125094	1.934564
O	-0.439591	-2.285794	0.110192
N	-0.396615	1.206745	0.669479
H	-1.106296	1.020325	1.36632
H	0.428174	1.558837	1.137375
F	2.492331	0.0	0.0
