15

C	-0.475872	0.145936	-1.425634
C	0.0	0.0	0.0
Br	-2.421532	0.377735	-1.572172
H	1.091714	0.0	0.0
H	-0.039373	1.066023	-1.808956
N	-0.005491	-0.919818	-2.405568
O	-0.804542	-1.679108	-2.932271
O	1.202694	-0.879119	-2.605173
N	-0.497718	-1.278777	0.590416
O	-0.82217	-1.317469	1.77209
O	-0.484143	-2.256904	-0.162753
N	-0.324255	1.118543	0.814227
H	-1.146561	1.634171	0.540995
H	0.492927	1.702151	0.911491
F	2.496343	0.0	0.0
