15

C	-0.644387	-0.009419	-1.373087
C	0.0	0.0	0.0
Br	-0.0026	-1.442679	-2.495346
H	1.088949	0.0	0.0
H	-1.729596	-0.089106	-1.330707
N	-0.374262	1.312859	-2.035639
O	-1.366071	2.021722	-2.209074
O	0.775548	1.593805	-2.332675
N	-0.516167	-1.264178	0.673829
O	0.25932	-2.188693	0.893938
O	-1.720285	-1.274625	0.976244
N	-0.448761	1.16767	0.692744
H	-1.369304	1.05419	1.098473
H	0.238663	1.406569	1.395142
F	2.540323	0.0	0.0
