15

C	-0.402567	0.016287	-1.452994
C	0.0	0.0	0.0
Br	-0.102567	1.741841	-2.259553
H	1.094078	0.0	0.0
H	0.167303	-0.706371	-2.027265
N	-1.854523	-0.334718	-1.684864
O	-2.146572	-0.823994	-2.77186
O	-2.646869	-0.103672	-0.772844
N	-0.375521	-1.356952	0.523788
O	-0.377955	-2.301744	-0.272458
O	-0.602407	-1.469228	1.727561
N	-0.466236	1.067906	0.803627
H	-1.392334	0.89736	1.169983
H	0.187956	1.205963	1.560516
F	2.510742	0.0	0.0
