15

C	-0.617269	-0.007742	-1.386598
C	0.0	0.0	0.0
Br	0.0615	-1.436352	-2.493748
H	1.088944	0.0	0.0
H	-1.702534	-0.091032	-1.374482
N	-0.333934	1.315458	-2.039301
O	0.824352	1.61155	-2.277677
O	-1.323565	2.011494	-2.267486
N	-0.522019	-1.260054	0.669848
O	-1.744746	-1.310049	0.878235
O	0.269081	-2.139211	0.990856
N	-0.465969	1.164424	0.688519
H	0.198659	1.396738	1.413068
H	-1.397574	1.047978	1.065057
F	2.540906	0.0	0.0
