15

C	-0.595978	-0.09658	-1.398621
C	0.0	0.0	0.0
Br	0.47684	-1.103882	-2.6579
H	1.093566	0.0	0.0
H	-1.598791	-0.517753	-1.429312
N	-0.734868	1.293761	-1.951488
O	-1.875453	1.62904	-2.272176
O	0.267788	1.984226	-2.040716
N	-0.407539	-1.204458	0.755588
O	-0.506986	-1.113659	1.984253
O	-0.578012	-2.254799	0.130399
N	-0.429436	1.21037	0.666105
H	-0.953064	0.966429	1.499473
H	0.420655	1.673033	0.96702
F	2.49305	0.0	0.0
