12

C	0.0	0.0	0.0
C	-0.306819	0.020104	-1.509826
Br	1.949052	0.0	0.0
H	0.382531	0.718413	-1.987976
H	-0.342969	0.898181	0.49897
H	-0.174372	-0.977689	-1.924355
C	-0.469986	-1.195295	0.694534
N	-0.707316	-2.131646	1.364751
N	-1.658511	0.459093	-1.981092
O	-2.31849	-0.350512	-2.622726
O	-1.877792	1.663576	-1.925677
F	-2.298577	0.0	0.0
