12

C	0.0	0.0	0.0
C	-0.539989	-0.016364	-1.410923
Br	1.954145	0.0	0.0
H	-0.189856	0.842353	-1.983404
H	-0.33292	0.933232	0.44826
H	-1.667185	0.00707	-1.166991
C	-0.453331	-1.101763	0.848542
N	-0.626078	-1.989525	1.598216
N	-0.199529	-1.211583	-2.196933
O	0.242648	-2.208716	-1.626002
O	-0.431221	-1.149954	-3.407055
F	-2.605573	0.0	0.0
