12

C	0.0	0.0	0.0
C	-0.487085	-0.264435	-1.423442
Br	1.949967	0.0	0.0
H	-1.185811	-1.089574	-1.454091
H	-0.321595	0.981693	0.325006
H	0.345232	-0.407861	-2.120322
C	-0.441661	-1.018771	0.945069
N	-0.573021	-1.866467	1.749138
N	-1.230171	0.902959	-1.976231
O	-2.002964	0.660064	-2.896054
O	-0.928394	2.028277	-1.596073
F	-2.33601	0.0	0.0
