13

C	-0.516892	-0.030127	-1.451699
C	0.0	0.0	0.0
Cl	0.07478	1.413967	-2.334675
H	1.093521	0.0	0.0
H	-0.348936	0.939688	0.440448
C	-0.075834	-1.239446	-2.15097
N	0.243021	-2.205483	-2.737901
C	-1.984586	0.003206	-1.44956
N	-3.156885	0.060265	-1.396048
N	-0.508676	-1.184222	0.671952
H	0.26656	-1.709112	1.054268
H	-1.150431	-0.952879	1.415564
Br	3.523747	0.0	0.0
