13

C	-0.495023	0.046411	-1.452619
C	0.0	0.0	0.0
Cl	-2.308431	-0.048669	-1.464184
H	1.093753	0.0	0.0
H	-0.346984	-0.95057	0.420737
C	-0.124163	1.303	-2.105448
N	0.152704	2.314542	-2.633825
C	-0.004363	-1.093803	-2.229717
N	0.382178	-2.012911	-2.851305
N	-0.473848	1.175619	0.705511
H	0.306769	1.598706	1.188368
H	-1.197688	0.951263	1.372707
Br	3.493625	0.0	0.0
