13

C	-0.516902	0.032908	-1.451731
C	0.0	0.0	0.0
Cl	0.074809	-1.409389	-2.33812
H	1.093669	0.0	0.0
H	-0.349466	-0.940255	0.438568
C	-1.984624	-0.000741	-1.44904
N	-3.156937	-0.058892	-1.395164
C	-0.076094	1.243649	-2.148759
N	0.243054	2.210558	-2.734389
N	-0.509534	1.182513	0.674812
H	-1.145718	0.948356	1.422323
H	0.26608	1.709968	1.053092
Br	3.525762	0.0	0.0
