12
Coordinates from ORCA-job run
  C   1.03631621466594     -0.11947027280266      0.66281250529188
  C   -0.07404524698497      0.07179353230022     -0.09888792768909
  H   1.72075992343953      0.69628917492201      0.85442553187887
  C   1.32573478560052     -1.39810635503871      1.20953094810064
  N   1.50790796857467     -2.47821298664834      1.64254895801914
  N   -0.91861358769368     -0.94767101192463     -0.46696342916337
  H   -1.86887293050875     -0.68801188036858     -0.67460161421840
  H   -0.82873084732044     -1.81558387343230      0.04115224766527
  C   -0.40549322733647      1.41354722173730     -0.67871084372798
  H   0.33223138898352      2.16080185208361     -0.38910802933195
  H   -0.44028891910281      1.35503823731688     -1.76984125212763
  H   -1.38790552231706      1.74958636185521     -0.33135709469738
