12
Coordinates from ORCA-job run
  C   1.03914583197197     -0.17299972872566      0.64633749659633
  C   -0.10200394864120      0.08914573621578     -0.04557079672859
  H   1.73561321033720      0.62068662381711      0.88218796050561
  C   1.33106851272908     -1.49211207728774      1.08488546378568
  N   1.52266457010338     -2.60660761979599      1.41429982657132
  N   -1.07423099584599     -0.85361964953092     -0.27799072544469
  H   -0.81493741268436     -1.81779188521479     -0.12744938286089
  H   -1.65757460199896     -0.70471726196823     -1.08486889292832
  C   -0.42720780351637      1.47079231293052     -0.52687778928367
  H   -0.54552098325941      1.48001538415620     -1.61528629202335
  H   -1.36799926170814      1.81209540822765     -0.08683512338735
  H   0.36098288251281      2.17511275717607     -0.26383174480209
