12
Coordinates from ORCA-job run
  C   1.03324248560577     -0.10904486147373      0.66979185836462
  C   -0.10203472881666      0.08484201193194     -0.05351042431241
  H   1.72372027573700      0.70551768972493      0.84341321428305
  C   1.32849428788198     -1.38512198729934      1.21993002391418
  N   1.52169732303741     -2.46729208207684      1.64272862903800
  N   -1.06592474115946     -0.88139605091264     -0.21293127015386
  H   -1.64160163898765     -0.80697671373390     -1.03546417552450
  H   -0.80204806079760     -1.82710278632680      0.02265711261244
  C   -0.43083001300329      1.41748663649987     -0.65522445117635
  H   -0.53571459446304      1.33255035404761     -1.74174192887935
  H   0.34923538586426      2.14790473011441     -0.44459988563164
  H   -1.37923598089871      1.78763305950449     -0.25704870253419
