12
Coordinates from ORCA-job run
  C   1.04109435395641     -0.18458827933762      0.63961673967894
  C   -0.06799568985592      0.07034909227345     -0.10473020712683
  H   1.82795142900911      0.55265787062946      0.72836327250575
  C   1.19007571276756     -1.42714476843844      1.31202149457513
  N   1.25112853995648     -2.47138042703461      1.85335615655950
  N   -1.04662863974357     -0.86580288718394     -0.34119760337345
  H   -1.04409246655071     -1.68001345653029      0.25624486117840
  H   -1.96618882806121     -0.50653595591466     -0.53945403581351
  C   -0.25427901022154      1.37776179468587     -0.81307163967395
  H   -0.34038982346982      1.21374721542689     -1.89034675804231
  H   -1.17274819322709      1.86913146682331     -0.47623970096584
  H   0.58107261544029      2.05081833460056     -0.62456257950182
