12
Coordinates from ORCA-job run
  C   0.81844094235369     -0.13315570032890      0.91676529567074
  C   -0.09035409568417      0.08433728010430     -0.07135040597288
  H   1.35117677032366      0.69262168052682      1.36912223554070
  C   1.07641054188841     -1.45068812179008      1.38194665121749
  N   1.25248854765291     -2.56560129236532      1.71862104882842
  N   -0.87385137529942     -0.91052894706223     -0.60506405236033
  H   -1.20698180515585     -0.76093214110308     -1.54321742359594
  H   -0.59107754116740     -1.86098783184651     -0.41394542067129
  C   -0.37540512765736      1.46304597459225     -0.58518320927777
  H   0.23749875591153      2.20666269137255     -0.07750576969691
  H   -0.16999155644837      1.52409118870211     -1.65867408312648
  H   -1.42935405671765      1.71013521919809     -0.43351486655575
