12
Coordinates from ORCA-job run
  C   1.03129956851587     -0.17035222950816      0.66103813081851
  C   -0.08987987282145      0.08981494867774     -0.06361847558517
  H   1.82841928343793      0.55814663773617      0.72593761990602
  C   1.16934233510615     -1.39954718178824      1.35976554569980
  N   1.22844309336439     -2.43909479841682      1.91020997165515
  N   -1.17831296841879     -0.74834284086951     -0.09190653538897
  H   -1.76639705149596     -0.69012444832997     -0.90699487849006
  H   -1.03768105191970     -1.68725686490555      0.25155058716240
  C   -0.25802117562492      1.37602517359764     -0.81426293812511
  H   0.62344028914863      2.00807120627072     -0.71639288351712
  H   -0.42353941577635      1.18046368429306     -1.87840459133674
  H   -1.12711303351582      1.92119671324292     -0.43692155279870
