12
Coordinates from ORCA-job run
  C   0.43595742063663     -0.78003857587223      0.90912475335420
  C   -0.29536868430912     -0.19986233119569     -0.07763316982060
  H   0.08589965976909     -1.68304255208914      1.40135028866411
  C   1.68577989282014     -0.25592378897833      1.33279887275372
  N   2.72030786666067      0.17664339737303      1.69112019070568
  N   -1.45864726477594     -0.76978890624002     -0.55389914069694
  H   -1.88548120413057     -1.46721766281985      0.03624140642667
  H   -2.12408452352373     -0.12973482171664     -0.95707195396229
  C   0.13411374459767      1.03973394508412     -0.80210562556393
  H   0.22817531517548      0.83001770428970     -1.87086821055871
  H   -0.61512294784504      1.82875451339121     -0.68084513095116
  H   1.08747072492474      1.41145907877386     -0.43021228035074
