12
Coordinates from ORCA-job run
  C   0.93268107339911     -0.15442274110421      0.79728277027840
  C   -0.05988052875310      0.07793119906935     -0.10330684446983
  H   1.56000330581467      0.65431892954969      1.14801714047145
  C   1.16775881576169     -1.46618765074344      1.28924574344947
  N   1.30736949883855     -2.57331799949707      1.66629335439070
  N   -0.81639643489142     -0.92270386497671     -0.66309689964391
  H   -0.78126180170311     -1.82447685820338     -0.21042549803006
  H   -1.73101978694287     -0.66197507073621     -0.99284027320760
  C   -0.33580575312368      1.45433017050118     -0.62831216201409
  H   -1.36675022016652      1.74967382064646     -0.40884157511947
  H   -0.20674984206649      1.47648687429612     -1.71358278446651
  H   0.33205167383317      2.18834319119821     -0.17943297163853
