12
Coordinates from ORCA-job run
  C   0.66705186196501     -0.93127843094113      0.55950463017814
  C   -0.24074793631614     -0.22280143146179     -0.16110110886774
  H   0.65449469518064     -2.01753702976720      0.55497733018038
  C   1.65065524376959     -0.30005496156214      1.36632680167959
  N   2.47211604683765      0.21717558469235      2.03231603801642
  N   -1.25790951278910     -0.83926193192067     -0.86054745726924
  H   -1.61338580735255     -0.33032065749159     -1.65384181102655
  H   -1.14106269954574     -1.82458293139035     -1.03948324454412
  C   -0.28341069421799      1.27500999929171     -0.18832973880245
  H   0.49842260457883      1.70987430415816      0.43210572439617
  H   -0.15297576837394      1.63896931889627     -1.21262763835146
  H   -1.25524803373625      1.62480816749637      0.16970047441085
