12
Coordinates from ORCA-job run
  C   0.91604305990095     -0.17346828748193      0.81104493920162
  C   -0.09423689908109      0.08807841097824     -0.06099574820913
  H   1.52851879042275      0.62785192679689      1.20238537846777
  C   1.17572361816166     -1.50366125111794      1.23684308834719
  N   1.34788392360856     -2.62654596103008      1.54743355921907
  N   -0.97268943382254     -0.87160328540559     -0.50408415374314
  H   -1.40664581980764     -0.70079706240941     -1.39640879777751
  H   -0.70360717710348     -1.83326974243229     -0.35450037063030
  C   -0.38659319243426      1.48219599882474     -0.52679935347400
  H   0.31664273022009      2.19603142292651     -0.09983948761688
  H   -0.32019355619544      1.54575336356262     -1.61753872712262
  H   -1.40084604386956      1.76943446678824     -0.23754032666207
