12
Coordinates from ORCA-job run
  C   0.41043570904716     -0.78505401197300      0.91710650756661
  C   -0.29858323719698     -0.19451254811032     -0.07971204901019
  H   0.10212501282660     -1.74362647193201      1.32495275033648
  C   1.56309166008168     -0.18124606725535      1.48593920826987
  N   2.52253905357860      0.31140142182434      1.95774117627909
  N   -1.47386553378287     -0.73644680575138     -0.55874614294224
  H   -1.70903764739441     -0.49628230708993     -1.50848907020410
  H   -1.63617554079707     -1.70783036672917     -0.34256072652282
  C   0.06676345322190      1.12998825235041     -0.67816129687668
  H   0.24685579541528      1.02363030550941     -1.75275220047588
  H   -0.75721917821155      1.83604626214831     -0.54592629311376
  H   0.96307045321168      1.54393233700869     -0.21939186330639
