12
Coordinates from ORCA-job run
  C   0.53023485970496     -0.81385691648976      0.82627103005537
  C   -0.31586221834139     -0.18117617142584     -0.02756546149757
  H   0.25733284161516     -1.76438273422733      1.27599730519668
  C   1.78917039702858     -0.26555757645668      1.18832199490568
  N   2.83638079806771      0.18069444289666      1.48840154104010
  N   -1.57861868051919     -0.66733970612773     -0.29711164708385
  H   -1.96744074603584     -0.40347289218704     -1.18816381993088
  H   -1.74482340021295     -1.63299334657441     -0.05960511922259
  C   -0.00355245161062      1.13488462822175     -0.67299747071056
  H   0.97662057868141      1.50449231767734     -0.37657591616624
  H   -0.75982943307018      1.87317098814536     -0.39381750452016
  H   -0.01961254530763      1.03553696654768     -1.76315493206596
