12
Coordinates from ORCA-job run
  C   0.88717384819964     -0.12415331517382      0.85113320418326
  C   -0.10763789731176      0.07778932394700     -0.05384973743876
  H   1.31923314023308      0.70727629956240      1.39199117729513
  C   1.37187986294528     -1.43405156296759      1.11092480638191
  N   1.73707883645395     -2.54139280799021      1.27747466997562
  N   -0.76724371539001     -0.94804399663211     -0.68780132181028
  H   -0.33000133103296     -1.85747851356129     -0.64736397627065
  H   -1.17636334187024     -0.72903774539015     -1.58144539305350
  C   -0.62894567664472      1.45076370318965     -0.35275291581995
  H   -1.69548599741308      1.50684951396933     -0.11990327416714
  H   -0.10126678356597      2.20706626321793      0.22671490125612
  H   -0.50742094460321      1.68541283782884     -1.41512214053176
