12
Coordinates from ORCA-job run
  C   0.43182654555259     -0.75121968248225      0.93585139143173
  C   -0.32410597672977     -0.16526428709819     -0.02870364646579
  H   0.07661068561518     -1.63378928271482      1.46028201420448
  C   1.69961705205660     -0.23845663390129      1.31874776015304
  N   2.75378956068340      0.17861673526342      1.63582628104302
  N   -1.59664915941032     -0.60699861375579     -0.32691175514047
  H   -1.83584274550834     -1.53120771909251     -0.00305450948784
  H   -1.91822436193904     -0.41615082406924     -1.26217413485938
  C   0.10384631727216      1.05726317066649     -0.78257227180174
  H   -0.62087630340122      1.86076776780659     -0.62720121556426
  H   0.14369763274319      0.84584657845226     -1.85600158724725
  H   1.08631075306556      1.40159279092532     -0.46408832626555
