12
Coordinates from ORCA-job run
  C   0.74875562248814     -0.21196410781917      0.95994983330365
  C   -0.04339373252702      0.08926307052488     -0.10363834778255
  H   1.19427533096630      0.57296854650691      1.55656500102090
  C   1.01228657907608     -1.56499769712217      1.30335164118303
  N   1.18637076972296     -2.70467587102249      1.54421695311956
  N   -0.54609283170729     -0.86083987650260     -0.95991718313459
  H   -1.39344379649132     -0.61902456299921     -1.44703706837399
  H   -0.51241385814824     -1.81874593023944     -0.64171793788370
  C   -0.34823486715914      1.50819375679319     -0.47733038613842
  H   -1.42789344781699      1.68732124476239     -0.45323147139399
  H   0.12880954608887      2.20678087924074      0.20878982571397
  H   0.00097468550766      1.71572054787698     -1.49200085963386
