12
Coordinates from ORCA-job run
  C   0.44105272181531     -0.77236442372656      0.91374924382058
  C   -0.27485238149671     -0.21893478123194     -0.09942783977634
  H   0.13311280228994     -1.71256140445310      1.36244582424591
  C   1.62374730658799     -0.17127452846572      1.42054769243740
  N   2.60141613895312      0.32499900368256      1.84919083957430
  N   -1.36474358291959     -0.85648071636620     -0.65565495651732
  H   -2.05217952888091     -0.25533919901667     -1.08079886928966
  H   -1.76992033993078     -1.60270931218529     -0.11185533782997
  C   0.10101199222841      1.06958588516300     -0.76620191723458
  H   0.26614149978834      0.89994163330969     -1.83337385709504
  H   -0.70865314477368      1.79939413425261     -0.66455759112809
  H   1.00386651633856      1.49674370903762     -0.33306323120718
