12
Coordinates from ORCA-job run
  C   0.69099545119627     -0.22169920959434      1.00066186133087
  C   -0.08214139740309      0.09096745492456     -0.07360869096103
  H   1.15114401152606      0.55683881551753      1.59454653056968
  C   0.90028842275574     -1.57743592022073      1.36962023197073
  N   1.04322086230653     -2.71943484121344      1.61986296096654
  N   -0.77997047703603     -0.84651813002321     -0.79646758511617
  H   -0.98764725721517     -0.60982780652918     -1.75275005729790
  H   -0.51650879156013     -1.81144530399686     -0.65811997379908
  C   -0.30813119298901      1.51287188049754     -0.48988479914015
  H   0.03061405028439      1.66957376253188     -1.51912518523252
  H   -1.37391738853225      1.75268638924753     -0.45031074788968
  H   0.23305370666671      2.20342290885874      0.15557545459871
