12
Coordinates from ORCA-job run
  C   0.42587445651109     -0.79249618480489      0.90371795351674
  C   -0.29995021334709     -0.19431736865797     -0.07641627815037
  H   0.06025450613827     -1.68904753044626      1.39662914668208
  C   1.69107186310982     -0.29785607722419      1.31752147868365
  N   2.73817663532052      0.10938652903440      1.66903525589813
  N   -1.48001598090430     -0.73471909274750     -0.54388840091947
  H   -1.91789614544706     -1.42618604276975      0.04488709514375
  H   -2.13301995398251     -0.07982291761589     -0.94318511077476
  C   0.15027616566920      1.03913432180154     -0.79905722206939
  H   0.22765963060176      0.83453485685305     -1.87003551596334
  H   -0.57920600106757      1.84404963424726     -0.66361907454407
  H   1.11577503739788      1.38733987233020     -0.43558932750294
