12
Coordinates from ORCA-job run
  C   0.45141519444803     -0.84751279786513      0.84045034911775
  C   -0.27828797768627     -0.20830953151921     -0.11046953062840
  H   0.21609132714733     -1.86840106059543      1.12769542378682
  C   1.53205420975328     -0.21829113071485      1.51336430101196
  N   2.43300159528449      0.29644952240283      2.06943603010275
  N   -1.38799286983737     -0.78742107959278     -0.69016969825074
  H   -1.47661449358431     -1.78648213107669     -0.58699494754076
  H   -1.62226782109651     -0.45882954824167     -1.61294055576505
  C   -0.01066268567907      1.20020766637044     -0.54722044713427
  H   0.82613292624575      1.63613857616304     -0.00426016411539
  H   -0.89956856666646      1.81416337929693     -0.38082820230204
  H   0.21969916167111      1.22828813537253     -1.61706255828264
