12
Coordinates from ORCA-job run
  C   0.60577751869505     -0.89107583343845      0.68201830606205
  C   -0.26279012386188     -0.22271230192515     -0.12043048125003
  H   0.50378735076667     -1.96096606802470      0.84025334483357
  C   1.66818664911840     -0.23564026639373      1.35888162963279
  N   2.55435293667494      0.30110130414238      1.91799431409903
  N   -1.35076651649695     -0.84594881621584     -0.69621914336338
  H   -1.69186701299355     -0.43099489847373     -1.54836217507819
  H   -1.32342497774904     -1.85332243838552     -0.72621181870423
  C   -0.18377799509421      1.25229339011088     -0.37306645387003
  H   -0.06618061296479      1.44848644274878     -1.44358013094569
  H   -1.10860009765348      1.73376877828432     -0.04480366797272
  H   0.65530288155884      1.70501070757076      0.15252627655682
