12
Coordinates from ORCA-job run
  C   0.53595997590050     -0.79681731097225      0.83903480401289
  C   -0.31605971160276     -0.18130297739897     -0.02127317554343
  H   0.26552834137234     -1.73740427939096      1.31063042746790
  C   1.79847664094378     -0.24262778802845      1.17939224825952
  N   2.84874892582054      0.20808286922651      1.46150121623506
  N   -1.58169872830667     -0.67174954359031     -0.27088153759033
  H   -1.97330328636178     -0.42930692050194     -1.16684402506229
  H   -1.74452579453585     -1.63312914193515     -0.01386425481887
  C   -0.00844412916994      1.12130006867466     -0.69567238518863
  H   0.97235100286666      1.49841236391200     -0.41079192102965
  H   -0.76486539660245      1.86352063438659     -0.42777715127201
  H   -0.02916784032436      1.00002202561826     -1.78345424547016
