15
Coordinates from ORCA-job run
  C   1.10132184824342     -0.07914188079765     -0.10408544797610
  C   -0.30418639218150     -0.30428129796183      0.49454729770497
  Br  2.18807520982441     -1.69775146260959      0.11844046979525
  H   -0.18334382739416     -0.51319642737159      1.55889032025060
  C   1.73789357234384      0.99119372476898      0.66432037134421
  N   2.20432220914713      1.85811091069253      1.30763791434661
  C   1.08160236599536      0.29412385626332     -1.51756747937056
  N   1.08696042292959      0.66085967307077     -2.63468185068217
  N   -0.91769896883687     -1.54421611477908     -0.08445562784040
  O   -1.41541770787580     -2.33055954969539      0.71539492603306
  O   -0.91033131002463     -1.64737736918724     -1.30684217644639
  C   -1.24021418395795      0.86430281345957      0.23873727744495
  H   -2.20795255099544      0.65554398778591      0.69896922624603
  H   -0.83964862500727      1.77705142459804      0.68330387571734
  H   -1.38138206221013      1.01533771176326     -0.83260909656742
