15
Coordinates from ORCA-job run
  C   0.97576516683062      0.24807528622131     -0.37747101956700
  C   -0.31959448405105     -0.23249733068281      0.32764671656433
  Br  0.67945010515589      1.39798418436348     -1.93869790020446
  H   -0.00049544925926     -0.68901734787565      1.26836441487951
  C   1.78158358084197     -0.89930290424388     -0.79278245459194
  N   2.41211064861792     -1.84339036140094     -1.09957927708448
  C   1.71899373522163      1.04803300880713      0.59737187116275
  N   2.27470063810978      1.68416015670865      1.41553387346005
  N   -0.94732686743762     -1.36058033685185     -0.43927648382999
  O   -1.11314429582758     -1.19821511207855     -1.64395585746858
  O   -1.28184672275391     -2.33985117172659      0.22123754066909
  C   -1.35284433463870      0.85005898681056      0.56529225622270
  H   -0.90599917643762      1.68702837893774      1.10511231708156
  H   -1.75861145274042      1.20729552799495     -0.38052899262284
  H   -2.16274109163165      0.44021903501643      1.17173299532929
