15
Coordinates from ORCA-job run
  C   1.09610385269976     -0.08160967901600     -0.14087391316973
  C   -0.29264879810355     -0.32733737250092      0.48742421809612
  Br  2.17793276181452     -1.71474529400309     -0.02902290278403
  H   -0.14247562814009     -0.58944660334727      1.53615805044447
  C   1.76185390890202      0.94642329141791      0.65988008108564
  N   2.25091794015127      1.78057470193472      1.32902729066686
  C   1.03958515203981      0.36125815074985     -1.53321479874146
  N   1.02904938434334      0.78721759593355     -2.62922486227677
  N   -0.93338790831766     -1.53304258696333     -0.13335942946747
  O   -1.43550531687751     -2.34163754590315      0.64093672933459
  O   -0.94114576548389     -1.58849181570974     -1.35871853542626
  C   -1.22659470511532      0.85859247776582      0.31833365187460
  H   -1.40962970992854      1.05547560264855     -0.73932157090426
  H   -0.79832112006289      1.74847087455671      0.78272569671141
  H   -2.17673404792125      0.63929820243637      0.80925029455628
