15
Coordinates from ORCA-job run
  C   1.09054026918612      0.17298440704404     -0.01044807265737
  C   -0.28989452418482     -0.33273066628210      0.46433549421563
  Br  1.99029423889118      0.95032734815372      1.56368051935050
  H   -0.13311754325733     -0.99729437222402      1.31649452858956
  C   0.98959471429105      1.22193686708404     -1.02093751622304
  N   0.90188061262001      2.10437668268680     -1.79278178388238
  C   1.92552931905002     -0.93388999847306     -0.47150506417395
  N   2.59133848218682     -1.84547453257363     -0.80014449783088
  N   -0.89473225838121     -1.20013451970472     -0.60956382902917
  O   -0.54837879949046     -0.99462765630183     -1.77043792658839
  O   -1.72735080079856     -2.01332990920986     -0.22690683427633
  C   -1.28670032939916      0.76821839713704      0.77964509277683
  H   -0.90016350359609      1.42183809920789      1.56117051144414
  H   -2.21392436084705      0.31390364813458      1.13114031655711
  H   -1.49591551627051      1.36189620532109     -0.11274093827226
