15
Coordinates from ORCA-job run
  C   1.09246157486377     -0.00617067986342     -0.17217710250786
  C   -0.25800063868907     -0.35034635528321      0.49321181070197
  Br  2.27955097048859     -1.56781608563973     -0.11748409129377
  H   -0.05847811943715     -0.61730387580639      1.53239482413577
  C   1.71617130703338      1.05345541127174      0.62083235349111
  N   2.17730264389394      1.90949392498369      1.28227342660162
  C   0.96425206719622      0.44589451964509     -1.55669847894493
  N   0.88912432527495      0.87278420152137     -2.64972316809851
  N   -0.83242441776749     -1.58818825587087     -0.12916755823948
  O   -0.93558543596661     -1.59414274344520     -1.35183698863970
  O   -1.18628679368047     -2.47494765845719      0.64154387730156
  C   -1.27111836217542      0.77396785587292      0.36875438419664
  H   -1.49057507066826      0.97810203696965     -0.68040567412742
  H   -2.19401294013864      0.48302746167481      0.87452180228275
  H   -0.89238111022774      1.68119024242673      0.84296058314026
