18

C	0.0	0.0	0.0
C	-0.482287	-0.00415	-1.479489
Cl	1.802695	0.0	0.0
H	-1.574859	-0.011095	-1.32407
C	-0.416621	1.22688	0.682859
N	-0.576886	2.240017	1.256631
C	-0.467052	-1.226962	0.770585
H	-1.565141	-1.180235	0.687214
H	-0.032229	-2.124601	0.322148
H	-0.134361	-1.165989	1.810423
N	-0.07277	-1.196166	-2.220584
H	-0.582375	-1.998748	-1.875717
H	0.91515	-1.368627	-2.072118
C	-0.027772	1.229282	-2.242085
H	-0.476954	1.207078	-3.236727
H	-0.334419	2.147972	-1.736414
H	1.060108	1.248313	-2.364502
F	-2.777019	0.0	0.0
