18

C	0.0	0.0	0.0
C	-0.438856	0.088695	-1.533906
Cl	1.802359	0.0	0.0
H	0.445275	0.48252	-2.04816
C	-0.347431	1.277857	0.639548
N	-0.534351	2.313914	1.16061
C	-0.590797	-1.134028	0.8101
H	-0.260406	-1.066592	1.849813
H	-0.286099	-2.098314	0.401139
H	-1.683253	-0.979293	0.727179
N	-1.552149	0.958796	-1.828647
H	-2.330313	0.664571	-1.18073
H	-1.29912	1.912495	-1.591819
C	-0.759477	-1.299986	-2.066171
H	-0.91723	-1.223251	-3.143952
H	0.037188	-2.025068	-1.872418
H	-1.691738	-1.626811	-1.601798
F	-3.077296	0.0	0.0
