18

C	0.0	0.0	0.0
C	-0.435704	0.084156	-1.535292
Cl	1.802414	0.0	0.0
H	0.446615	0.484492	-2.04751
C	-0.35183	1.278713	0.634677
N	-0.547571	2.314964	1.152154
C	-0.593788	-1.132156	0.811134
H	-0.286397	-2.097519	0.407522
H	-1.685322	-0.977449	0.723761
H	-0.267797	-1.060107	1.852156
N	-1.556144	0.943708	-1.832059
H	-2.334201	0.644479	-1.184808
H	-1.312498	1.899506	-1.593568
C	-0.74284	-1.308222	-2.06556
H	0.055292	-2.028017	-1.861798
H	-0.890872	-1.238477	-3.14468
H	-1.677183	-1.639511	-1.608666
F	-3.084056	0.0	0.0
