18

C	0.0	0.0	0.0
C	-0.242276	0.00988	-1.564361
Cl	1.809692	0.0	0.0
H	0.196716	-0.955625	-1.873739
C	-0.412712	1.271754	0.59758
N	-0.640205	2.28738	1.142108
C	-0.652061	-1.172328	0.684881
H	-1.742983	-0.959781	0.595112
H	-0.349798	-1.231004	1.73313
H	-0.374471	-2.100336	0.174839
N	0.481632	1.141786	-2.158048
H	-0.003624	1.424729	-2.9977
H	1.432154	0.899624	-2.400304
C	-1.672278	0.082291	-2.060261
H	-1.679578	-0.226039	-3.115901
H	-2.406408	-0.442712	-1.432938
H	-2.014588	1.118609	-1.994581
F	-3.228451	0.0	0.0
