18

C	0.0	0.0	0.0
C	-0.532087	-0.024278	-1.441831
Cl	1.799706	0.0	0.0
H	-1.623053	-0.063871	-1.230132
C	-0.402438	1.240502	0.673523
N	-0.588833	2.253866	1.237685
C	-0.49057	-1.204982	0.786122
H	-1.586337	-1.110188	0.739324
H	-0.131014	-2.105062	0.287334
H	-0.115179	-1.168005	1.811915
N	-0.087845	-1.258979	-2.090879
H	-0.821577	-1.5857	-2.70617
H	0.73959	-1.081717	-2.650242
C	-0.166386	1.226795	-2.229754
H	0.919751	1.310839	-2.358182
H	-0.622692	1.173906	-3.22323
H	-0.527165	2.133503	-1.738922
F	-2.861675	0.0	0.0
