18

C	0.0	0.0	0.0
C	-0.469592	0.287134	-1.50002
Cl	1.805897	0.0	0.0
H	0.429754	0.64359	-2.012683
C	-0.343435	1.171539	0.819377
N	-0.530096	2.114119	1.495719
C	-0.564472	-1.238309	0.66805
H	-1.656897	-1.084189	0.633504
H	-0.264636	-2.13702	0.127257
H	-0.203541	-1.304613	1.697474
N	-1.508049	1.284324	-1.648379
H	-1.183275	2.168638	-1.27274
H	-2.295831	0.939133	-1.047521
C	-0.960756	-0.992478	-2.160156
H	-0.23131	-1.804569	-2.117283
H	-1.177307	-0.768637	-3.206341
H	-1.88889	-1.272481	-1.661069
F	-3.031536	0.0	0.0
