16

C	0.0	0.0	0.0
C	-0.393092	0.00249	-1.490396
F	1.364544	0.0	0.0
H	0.445612	0.540837	-1.952159
N	-0.516091	1.062507	0.723331
H	-0.496096	1.952705	0.254041
H	-0.116041	1.08328	1.650655
N	-0.341555	-1.266889	0.791512
O	-0.975096	-2.163465	0.266456
O	0.108736	-1.257479	1.934472
C	-1.601375	0.689013	-1.962881
N	-2.070167	1.414481	-2.770187
N	-0.260979	-1.37249	-2.133244
O	-1.076351	-1.682615	-2.986766
O	0.728535	-2.012975	-1.799262
Br	-3.597738	0.0	0.0
