16

C	0.0	0.0	0.0
C	-0.349693	-0.013547	-1.560006
F	1.380433	0.0	0.0
H	0.031902	-0.960706	-1.905946
N	-0.298656	1.217337	0.765941
H	-0.007333	2.08481	0.344114
H	0.167863	1.07816	1.654347
N	-0.688425	-1.152072	0.879565
O	0.222914	-2.017017	1.334384
O	-1.256082	-1.972119	-0.048854
C	0.306525	1.085551	-2.295686
N	0.766795	1.958793	-2.890447
N	-1.727573	0.125112	-2.248582
O	-2.325625	1.203732	-2.088408
O	-2.129082	-0.796085	-2.964582
Br	-2.974537	0.0	0.0
