15

C	-0.258604	0.0475	-1.497855
C	0.0	0.0	0.0
Br	-2.201978	0.174971	-1.927447
H	1.100188	0.0	0.0
H	0.003171	-0.929812	-1.918395
N	0.427709	1.166656	-2.066186
H	1.367525	1.191674	-1.669549
H	0.501655	1.067128	-3.070815
C	-0.508988	-1.263251	0.682729
H	-1.598903	-1.325493	0.646098
H	-0.185222	-1.274136	1.724869
H	-0.080576	-2.139358	0.190218
C	-0.480844	1.203019	0.670394
N	-0.871115	2.135765	1.268158
Cl	3.314684	0.0	0.0
