15

C	-0.496637	0.004762	-1.446189
C	0.0	0.0	0.0
Br	0.326604	-1.553803	-2.423767
H	1.094163	0.0	0.0
H	-0.076505	0.86058	-1.974053
N	-1.916562	0.016107	-1.544645
H	-2.302286	-0.837942	-1.160694
H	-2.204073	0.081568	-2.512204
C	-0.480791	-1.192632	0.829373
H	-1.565304	-1.189233	0.974508
H	-0.004963	-1.154199	1.810443
H	-0.174822	-2.121563	0.346564
C	-0.452888	1.250315	0.613841
N	-0.823788	2.245578	1.115923
Cl	3.352081	0.0	0.0
