15

C	-0.499818	0.008844	-1.444496
C	0.0	0.0	0.0
Br	0.294273	-1.571999	-2.421007
H	1.094154	0.0	0.0
H	-0.060518	0.85182	-1.977888
N	-1.916055	0.049	-1.541261
H	-2.327491	-0.786574	-1.144455
H	-2.210535	0.121188	-2.506611
C	-0.483312	-1.18672	0.836109
H	-0.1736	-2.119251	0.363181
H	-1.568544	-1.18332	0.976269
H	-0.013208	-1.137781	1.819456
C	-0.446076	1.253886	0.614048
N	-0.817571	2.246493	1.120886
Cl	3.36377	0.0	0.0
