15

C	-0.243308	-0.014519	-1.51085
C	0.0	0.0	0.0
Br	-2.178052	-0.027771	-1.933103
H	1.101533	0.0	0.0
H	0.125913	-0.96685	-1.896422
N	0.392361	1.050152	-2.237104
H	0.121151	1.940757	-1.831197
H	1.395689	0.942942	-2.084605
C	-0.514448	-1.22199	0.749419
H	-1.60648	-1.25315	0.767667
H	-0.139776	-2.126337	0.262555
H	-0.136832	-1.213721	1.77425
C	-0.474319	1.246381	0.587338
N	-0.87538	2.247632	1.053869
Cl	3.315745	0.0	0.0
