15
Coordinates from ORCA-job run
  C   -0.50620020368649     -0.28805043562946     -0.06358607498379
  C   0.68988950746243      0.29191655153496      0.23089822912785
  N   -1.04146542917648     -0.21241075136922     -1.33718925176274
  H   -2.03647994823889     -0.36130346370414     -1.39465801133571
  H   -0.72573041847397      0.55326445339978     -1.91179731631818
  C   -1.29163223278977     -1.12822004348186      0.89655713516564
  H   -2.27179490610883     -0.67755654227674      1.08510816320129
  H   -0.77643936022888     -1.23871543770715      1.84947925991651
  H   -1.45748652421818     -2.12201949922116      0.47036300387662
  C   1.45754110012141      1.09688486064014     -0.78918117359298
  H   0.91437980478827      2.00437434135068     -1.07886895311048
  H   2.42378710793423      1.40826606300957     -0.39268895661999
  H   1.64000417143196      0.50784605440852     -1.69408919253239
  C   1.24669010921661      0.13736845910922      1.53123209584955
  N   1.73193722196656      0.02935538993685      2.59942104311879
