15
Coordinates from ORCA-job run
  C   -0.50339104724431     -0.25609127030571     -0.15658246586297
  C   0.58603654563535      0.38513493389946      0.34947173356533
  N   -0.57261950068976     -0.59763460465742     -1.49571864285720
  H   0.30687166060306     -0.69555319275422     -1.97844111841568
  H   -1.22401105776776     -1.33404541631502     -1.71686012026370
  C   -1.74415164209077     -0.55033106705645      0.62977165924976
  H   -1.94395758890128     -1.62705386518321      0.63856085492209
  H   -2.60399739466424     -0.05486761940932      0.16946026817424
  H   -1.65716973462790     -0.21056403742400      1.66069151614645
  C   1.79326661029538      0.69858003413501     -0.50016250461285
  H   1.50577455758651      1.25876865576510     -1.39581173141495
  H   2.30960224807485     -0.21399167560774     -0.82042791937548
  H   2.51215535504558      1.30120851172512      0.05406101222452
  C   0.59815266510574      0.78085165594029      1.71627696593788
  N   0.63843832363956      1.11758895724811      2.84471049258255
