15
Coordinates from ORCA-job run
  C   -0.64710051595390     -0.06163682854177     -0.04343519198705
  C   0.54461554708421      0.57609968255719      0.14386588731420
  N   -1.86360324428153      0.58375868535709      0.08439625655867
  H   -1.83164997599235      1.59362426739252      0.09278936544646
  H   -2.60994323294085      0.21471588776437     -0.48301881351757
  C   -0.77047367462194     -1.54003969037526     -0.26902727247171
  H   0.17297603000044     -1.99712457948805     -0.55720734988371
  H   -1.14153179631289     -2.02956521577909      0.63599158155198
  H   -1.49215017140660     -1.73906084033060     -1.06724391492253
  C   1.90762527374431     -0.06955952298076      0.17309656656342
  H   1.84663701134084     -1.13292053145242      0.40237034654790
  H   2.43127263483431      0.04958799687496     -0.78053149901625
  H   2.52569132525718      0.39481753408328      0.94479787474249
  C   0.50080507564063      1.99344823260749      0.30109801092723
  N   0.42782971360814      3.16385492231105      0.42005815214648
