15
Coordinates from ORCA-job run
  C   -0.64314646532085     -0.08517116623609      0.04139149587906
  C   0.53943216307399      0.59307168547541      0.10033054464191
  N   -1.86012014859898      0.51627709981032      0.30885786390219
  H   -1.86873629578366      1.52660399617756      0.28868472734861
  H   -2.65323596174015      0.10378704237724     -0.15653897394094
  C   -0.74804574736842     -1.55504253010122     -0.24802906812748
  H   -1.05129311120858     -1.72126832246762     -1.28737569928819
  H   0.18851341459390     -2.08037105706229     -0.07888380921641
  H   -1.50631666154012     -2.00268006242803      0.39887468169354
  C   1.91772251384324      0.00166439806176     -0.05739511143946
  H   1.89428325196357     -0.94879465310993     -0.58969501490515
  H   2.55351048263235      0.67966602593312     -0.63143347451837
  H   2.39929415392057     -0.15733830837303      0.91266565138156
  C   0.46789276743255      1.98904359104815      0.38521512565782
  N   0.36824564410060      3.14155226089465      0.61133106093131
