15
Coordinates from ORCA-job run
  C   -0.54692702640519     -0.06947043308877     -0.34680180118943
  C   0.46495349312518      0.59927432313042      0.27821105263667
  N   -1.59000233347349      0.58009845057798     -0.98075494124326
  H   -1.99945258865312      0.08310608627329     -1.75604565813692
  H   -1.45258773170335      1.56385549431176     -1.16567721533437
  C   -0.70674724349704     -1.56051948493075     -0.29423470863998
  H   -0.93879942175834     -1.94835200096953     -1.29083953605047
  H   -1.54018884513588     -1.82748836656798      0.36198658586583
  H   0.19269415444150     -2.06248886134185      0.05439338142482
  C   1.55798185111039     -0.02348390607605      1.11159538182288
  H   1.83362828019960      0.64695177192127      1.92835141619710
  H   2.46067300689738     -0.21086430793588      0.52180339942369
  H   1.23787860411219     -0.96367967069979      1.56065072679062
  C   0.51184447521392      2.01324153215049      0.09761879450095
  N   0.51705132552626      3.17881937324538     -0.07825687806814
