15
Coordinates from ORCA-job run
  C   -0.65242358150676     -0.03737174214706      0.02374652229644
  C   0.55426823037117      0.59363545335086     -0.05556664326427
  N   -1.85448824969717      0.64233812749441      0.07229269644403
  H   -1.82372972752984      1.61721303496945     -0.19165680741952
  H   -2.64587841962458      0.14994127967563     -0.31057428438685
  C   -0.77699951677583     -1.52128810089317      0.20055757778926
  H   -1.10444990232261     -1.75262894990577      1.21837953501830
  H   0.16107840980558     -2.03743962316710      0.00770446055422
  H   -1.52895376616054     -1.92451428513447     -0.48493782302704
  C   1.89541491672743     -0.09829039052573      0.03215267008522
  H   1.92734537276306     -0.81260632642241      0.85707796163853
  H   2.68277041564759      0.63609425609392      0.20715578637383
  H   2.14262926995279     -0.62970789825928     -0.89186266685464
  C   0.53885564112996      2.00445153733691     -0.25580391570520
  N   0.48256090721974      3.16917362753381     -0.42866506954231
