15
Coordinates from ORCA-job run
  C   -0.65177312924073     -0.04379541184527      0.02790270099461
  C   0.55422928712063      0.59123936885105      0.08143102233457
  N   -1.85684207015204      0.61800567774297      0.16572504896065
  H   -1.80866782187653      1.55364701111681      0.54412001434223
  H   -2.61004879907757      0.07013752685784      0.55022081995888
  C   -0.78345241845745     -1.49661635378563     -0.31914708798610
  H   -1.47106800871666     -1.99303396831760      0.37269943498800
  H   -1.19612492352530     -1.60714598438699     -1.32625533827784
  H   0.17042419353655     -2.01768318362214     -0.27177510646172
  C   1.88567573194394     -0.06484880276354     -0.20510151130516
  H   2.65356526148559      0.69694003603219     -0.34604071828486
  H   2.20989060054492     -0.70853147348434      0.61816637149945
  H   1.85160034012939     -0.66523441281087     -1.11626610422446
  C   0.54954135492799      1.96689528982533      0.45308897778914
  N   0.50305040135726      3.10102468059019      0.77123147567261
