15
Coordinates from ORCA-job run
  C   -0.58305619157977     -0.05758229370144     -0.28691177502352
  C   0.49392523316412      0.58737052554801      0.24742472462238
  N   -1.69016482805567      0.61661295191402     -0.77008605928113
  H   -2.18241261751531      0.15279804325819     -1.51736592044194
  H   -1.56920547528039      1.60708862936353     -0.93004356027852
  C   -0.73937088495990     -1.54961578381647     -0.28132345098066
  H   0.19536789847145     -2.06469113842415     -0.07278224764270
  H   -1.09676783300619     -1.89390646425138     -1.25681176243195
  H   -1.48351143295512     -1.84812700340161      0.46262101144567
  C   1.67216949849821     -0.06472698145781      0.92855685104880
  H   2.51135798886398     -0.20702913459037      0.24063908130303
  H   2.02483432988281      0.56555141451841      1.74751337439082
  H   1.40787871932440     -1.03202650185883      1.35536110996521
  C   0.52252127328423      2.00847714153398      0.12693774892484
  N   0.51643432186316      3.18080659536593      0.00427087437967
