15
Coordinates from ORCA-job run
  C   -0.51787390318262     -0.26542918320870      0.06529961778687
  C   0.68597611714317      0.28907862936815     -0.24670511746087
  N   -0.93087171361713     -0.37963067513315      1.38096602551168
  H   -0.51602882317564      0.26126870583210      2.03914228786541
  H   -1.92427917630877     -0.48701893880781      1.51124295647934
  C   -1.44135517915975     -0.88729282065056     -0.93717857679646
  H   -2.41325925178515     -0.38290946420928     -0.92604679992354
  H   -1.60835726059966     -1.93890410780318     -0.68646046106919
  H   -1.03722526413175     -0.82941632815396     -1.94639815667812
  C   1.59725219476736      0.86175874049953      0.81106525476491
  H   2.55236980829509      1.16273804236711      0.38128650788287
  H   1.15832258369439      1.74713120265233      1.28615286042741
  H   1.79936941566903      0.12236900761617      1.59287378510656
  C   1.10924582318165      0.33555268650383     -1.60440063673715
  N   1.48471462920977      0.39070450312742     -2.71983954715971
