15
Coordinates from ORCA-job run
  C   -0.64327374913966     -0.03198931207698     -0.08831429031508
  C   0.56555568845752      0.57982903924773      0.07130573505308
  N   -1.83055219278269      0.66913091664556     -0.19222819771162
  H   -1.74659068096509      1.65375634315282     -0.40281577287175
  H   -2.55579888783180      0.20967221151735     -0.72040453155907
  C   -0.81961304226978     -1.52079557269094     -0.05732216202708
  H   -1.21367537553083     -1.87961434838690     -1.01436369980628
  H   -1.54223729707549     -1.78794443980061      0.71840021315614
  H   0.11090845297961     -2.04549974633429      0.14521350473818
  C   1.87607247466714     -0.12763154770176      0.32773866535896
  H   2.70841749438549      0.54194519705393      0.10576243773581
  H   1.99225447232913     -1.00885418333019     -0.30553210660113
  H   1.97409804277702     -0.43985442617413      1.37204923017582
  C   0.57718150337398      2.00508471819808      0.04163641139680
  N   0.54625309662543      3.18276515068034     -0.00012543672276
