15
Coordinates from ORCA-job run
  C   -0.65203681454486     -0.01425417088409     -0.04474110152162
  C   0.57178058898024      0.57299003599474      0.08930734840513
  N   -1.83565890243827      0.69795069249322     -0.00976358147723
  H   -1.75393603977054      1.69913396138513     -0.11892105304320
  H   -2.59594933539982      0.29999648260670     -0.53786000660975
  C   -0.83082682243846     -1.50178213440075     -0.10773083731707
  H   -1.26517602855504     -1.86870672626920      0.82683610806298
  H   0.10863742493865     -2.02073457166748     -0.28597069102054
  H   -1.51956558160649     -1.76780991000844     -0.91581938005414
  C   1.87947755077934     -0.17726212760202      0.19935985873440
  H   1.80902014261501     -1.00842530069649      0.90363837994966
  H   2.66273912257756      0.49002605648062      0.56138978378533
  H   2.20694329304233     -0.57273199728577     -0.76695519014694
  C   0.61167772270952      1.99740259924409      0.10389722488642
  N   0.60187367911084      3.17620711060974      0.10433313736656
