15
Coordinates from ORCA-job run
  C   -0.64873308850678     -0.04682296532434     -0.05325287252695
  C   0.56049711859975      0.58376886375946     -0.01864462488310
  N   -1.83466246553837      0.62406036910664     -0.28796950055146
  H   -2.65213012031564      0.21748479578748      0.13831388864824
  H   -1.79917103440488      1.63019476809210     -0.20156772100409
  C   -0.79817617658540     -1.53751525276639      0.02304572576624
  H   -1.61955233679592     -1.79987570272524      0.69702112761643
  H   0.10117760940948     -2.02468210301920      0.39269683027891
  H   -1.04295261055186     -1.94366224582386     -0.96265116270779
  C   1.90381528347602     -0.09779271365699      0.08503181756501
  H   2.21202881903535     -0.23616540200569      1.12615082075439
  H   1.90030168157537     -1.07165653288137     -0.40532482338668
  H   2.66835519105634      0.50857912569346     -0.40425637429920
  C   0.54923466606607      2.00926752521889     -0.05300564332856
  N   0.49996746348046      3.18681747054506     -0.07658748794139
