14
Coordinates from ORCA-job run
  C   -0.47234992267031      0.21901570997341     -0.24459557099923
  C   0.90481758662921      0.35888333968182      0.34675266688165
  F   -0.54526539247144      0.66811786595437     -1.48878760612638
  H   1.17888628997601      1.40974372828403      0.42867636893367
  H   0.95590720750392     -0.12494223330616      1.31929298882880
  N   -1.48026031017844      0.99373700184479      0.60486652587940
  O   -1.22845456544382      1.06239418872683      1.80196163770355
  O   -2.44897445921285      1.43763008344287      0.00746551813409
  N   -0.98978576046978     -1.21987351112836     -0.19895866237686
  O   -0.79271771015269     -1.79728858959159      0.86116882153343
  O   -1.57406164311618     -1.61911872940520     -1.18995598062419
  N   1.91294002397601     -0.29554584795167     -0.54368751503047
  O   1.54916041626788     -1.29727512751189     -1.15253685993736
  O   3.03015823936248      0.20452212098675     -0.55266233280009
