14
Coordinates from ORCA-job run
  C   -0.38617577664940      0.33322014616749     -0.26468925107495
  C   0.88353308696931      0.13522322575278      0.51951193859162
  F   -0.18728407120770      0.95877597812079     -1.41542282783182
  H   1.30380975558491      1.09604039119200      0.81312083608983
  H   0.70097381554592     -0.48431841699071      1.39439602807691
  N   -1.38069880896703      1.15058708331278      0.55971584715478
  O   -2.16548654307612      1.83403397516250     -0.08027128291836
  O   -1.30944663165842      1.01206740239105      1.77501387446813
  N   -1.12613250795848     -0.97950493784508     -0.52818515861279
  O   -1.59297889166298     -1.12708030957263     -1.64305985918698
  O   -1.20275690497139     -1.72181878185822      0.44105054239021
  N   1.90390764033304     -0.55674523529395     -0.32723823861417
  O   3.07286848462088     -0.26284839027572     -0.11365217909209
  O   1.48786735309746     -1.38663213026308     -1.13029026944032
