14
Coordinates from ORCA-job run
  C   -0.52136131336999     -0.02090223411809      0.54878114230490
  C   0.98737276210772     -0.04107708162276      0.55520954694425
  F   -0.94677239963836      0.00980795336882      1.81928063040757
  H   1.33903755742864     -0.95192562717884      1.03686137166379
  H   1.32277756388183      0.83970343396188      1.10574057022935
  N   -1.12947068423134     -1.23208722930111     -0.12433456278569
  O   -2.23277211510575     -1.57069649737719      0.27373399753458
  O   -0.45173414719844     -1.73931459071798     -1.01035597936616
  N   -1.09359643961557      1.21684437453663     -0.13591582254281
  O   -1.83732708348882      1.05125062293265     -1.08908076630140
  O   -0.75009684209142      2.26235675774092      0.39383082659327
  N   1.60789441972133      0.02732193606437     -0.79993528399449
  O   1.10084216739812      0.80921881646713     -1.59638535689457
  O   2.60320655420207     -0.66150063475642     -0.97643031379260
