14

C	-0.048916	0.010073	-0.005088
C	-0.487253	-0.358033	-1.427763
Cl	1.787061	-0.012643	0.045875
H	0.082527	0.285513	-2.105189
H	-1.547576	-0.102303	-1.481129
C	-0.429022	1.38229	0.340383
N	-0.569356	2.525458	0.573824
C	-0.467633	-0.954426	1.016771
N	-0.568921	-1.78817	1.839774
C	-0.294649	-1.832434	-1.743652
H	0.730518	-2.165996	-1.564798
H	-0.976605	-2.430838	-1.136703
H	-0.534812	-2.0139	-2.794215
Br	-3.463216	-0.090399	0.154886
