14

C	-0.049473	-0.011141	-0.004399
C	-0.486568	0.188195	-1.460717
Cl	1.786249	0.020469	0.045987
H	-1.546138	-0.074923	-1.485594
H	0.086111	-0.527818	-2.058282
C	-0.471337	1.064701	0.898073
N	-0.576184	1.987355	1.619467
C	-0.428415	-1.334386	0.497778
N	-0.569943	-2.443029	0.860903
C	-0.297631	1.616776	-1.944746
H	-0.984258	2.278544	-1.413576
H	0.72564	1.972829	-1.801934
H	-0.533981	1.674481	-3.010157
Br	-3.466944	0.106978	0.133356
