15
Coordinates from ORCA-job run
  C   1.06387822028786      0.19298629059735     -0.15449924927422
  C   -0.36901749566502      0.26692254804289      0.37393945413229
  Br  2.20684640258285      1.44498036238407      0.93209965431880
  H   -0.33102161930655      0.07739173307934      1.45324269924754
  H   1.11233998370358      0.62888104942444     -1.15448421894430
  N   1.57223413439918     -1.13044171514915     -0.18022528855303
  H   2.49741678369911     -1.16133209361211     -0.58815801183375
  H   1.62685435658630     -1.51505032236976      0.75580437795707
  C   -1.23884706801070     -0.79771888144017     -0.29810502999649
  H   -2.26953632777011     -0.69658030591841      0.05218157904143
  H   -0.88989900730276     -1.81024751170519     -0.09776377781984
  H   -1.23223306556447     -0.65651307950879     -1.38400177536389
  N   -0.87168230501845      1.62302241621935      0.18423106285225
  H   -1.60627660245360      1.82202322956319      0.85027167127637
  H   -1.27105639016722      1.71167628039295     -0.74353314704022
