15
Coordinates from ORCA-job run
  C   1.01565954571647      0.18061324511339     -0.19651110344391
  C   -0.42350985873451      0.21162378777205      0.29854111726245
  Br  2.04433211634179      1.64656619260063      0.79369806629059
  H   -0.40337409734433     -0.01094057206990      1.37992210171460
  H   1.06000992801784      0.52706986405425     -1.22882015280878
  N   1.62000091086088     -1.08282007292754     -0.05282753173532
  H   1.65661944843151     -1.37358812437083      0.91621603838759
  H   2.55295479193678     -1.10654644251010     -0.44111878756564
  C   -1.23231388558872     -0.86454302169003     -0.41739003511221
  H   -2.27220033433858     -0.83400584862718     -0.07862294149448
  H   -0.83201785673296     -1.85872440785612     -0.22699212298547
  H   -1.21993480775026     -0.67748813777891     -1.49367437830626
  N   -1.00734849859600      1.51008179625717     -0.01295412473595
  H   -0.56784731457833      2.23448414640182      0.54190497885981
  H   -1.99303008764158      1.49821759563129      0.21962887567298
