15
Coordinates from ORCA-job run
  C   1.04618176338225     -0.29616867981676      0.24720925257689
  C   -0.36481311158810      0.28055504729222      0.27307418147273
  Br  1.09388486700968     -1.79238235634141     -1.17303349198941
  H   -0.31471896115220      1.03832002661463      1.06519255190410
  H   1.27120470858601     -0.86420724023999      1.14924494758777
  N   1.98555900907531      0.71243527902330      0.01828711704604
  H   1.70416435136719      1.27358507208718     -0.77674590134898
  H   2.93193927457261      0.37372642585492     -0.07678507804609
  C   -1.43971259522751     -0.73517978159809      0.64098300099854
  H   -1.56717257478845     -1.47437704122156     -0.15126169206681
  H   -2.39364379747344     -0.22324149236611      0.79293469295186
  H   -1.18931993373275     -1.26467752328238      1.56524562829604
  N   -0.58535178076395      1.00082453340339     -0.97938037977584
  H   -0.80966948076284      0.33707001715935     -1.71274874563124
  H   -1.36853173850378      1.63471771343131     -0.88221608397558
