18

C	-0.407817	0.050803	-1.494744
C	0.0	0.0	0.0
Cl	-0.263149	-1.696601	-2.116352
H	1.091544	0.0	0.0
N	-1.720574	0.562597	-1.651381
H	-1.945531	0.593501	-2.637746
H	-2.403342	0.00935	-1.150369
N	0.476182	0.810158	-2.330694
H	0.486968	1.752542	-1.9512
H	1.420191	0.449148	-2.200433
C	-0.550635	-1.119525	0.854343
H	-0.330405	-0.912551	1.901804
H	-0.053061	-2.046223	0.577288
H	-1.630934	-1.242807	0.752137
N	-0.408698	1.330059	0.566086
O	0.203379	2.32103	0.174026
O	-1.34201	1.367726	1.368728
Br	3.493254	0.0	0.0
