18

C	-0.369748	-0.09958	-1.482684
C	0.0	0.0	0.0
Cl	-0.008259	1.672094	-2.217911
H	1.090158	0.0	0.0
N	0.519117	-1.022437	-2.062521
H	1.482837	-0.797434	-1.813149
H	0.424811	-1.05417	-3.068935
N	-1.723945	-0.412715	-1.737312
H	-1.904355	-0.415876	-2.734464
H	-2.308158	0.287012	-1.295037
C	-0.500265	-1.198058	0.792203
H	-0.116185	-2.101827	0.320645
H	-1.589626	-1.235982	0.813058
H	-0.105593	-1.139602	1.809577
N	-0.538894	1.230871	0.632811
O	-1.752928	1.432241	0.50631
O	0.21814	1.935486	1.287455
Br	3.518503	0.0	0.0
