18

C	-0.324051	0.060577	-1.498832
C	0.0	0.0	0.0
Cl	-2.128239	0.64913	-1.705436
H	1.091589	0.0	0.0
N	0.498285	1.015841	-2.135301
H	1.439732	0.980396	-1.747516
H	0.516747	0.887427	-3.138618
N	-0.227444	-1.25471	-2.04803
H	-0.992057	-1.840893	-1.737263
H	-0.25017	-1.206301	-3.059104
C	-0.55139	-1.202243	0.72595
H	-0.317468	-1.122348	1.787201
H	-0.05996	-2.09495	0.338673
H	-1.635974	-1.279016	0.62186
N	-0.41969	1.268399	0.674127
O	0.205118	2.286875	0.396542
O	-1.358776	1.215419	1.471972
Br	3.481803	0.0	0.0
