18

C	-0.38575	-0.021306	-1.490707
C	0.0	0.0	0.0
Cl	-0.024084	1.684162	-2.129268
H	1.095939	0.0	0.0
N	0.473895	-0.88457	-2.253536
H	1.44655	-0.664041	-2.039869
H	0.290454	-1.839209	-1.966115
N	-1.729875	-0.40892	-1.71683
H	-2.352437	0.20727	-1.208858
H	-1.917505	-0.361809	-2.71071
C	-0.477813	-1.232237	0.753102
H	-1.565286	-1.302129	0.770718
H	-0.085627	-1.194038	1.772413
H	-0.068065	-2.125745	0.280196
N	-0.547591	1.188899	0.706069
O	0.209845	1.890011	1.364938
O	-1.768983	1.368532	0.6141
Br	3.521969	0.0	0.0
