19

C	-0.237062	-0.12725	-1.50618
C	0.0	0.0	0.0
F	-1.533637	-0.620741	-1.806784
H	1.097793	0.0	0.0
C	-0.17746	1.194435	-2.166353
N	-0.129446	2.245542	-2.689933
C	0.81818	-1.033868	-2.122891
H	1.781729	-0.727484	-1.686358
H	0.810183	-0.974252	-3.214181
H	0.613446	-2.064474	-1.825256
C	-0.479085	-1.255447	0.721501
H	-1.568628	-1.367689	0.684363
H	-0.022794	-2.157182	0.307158
H	-0.171195	-1.196488	1.769231
C	-0.599016	1.253295	0.617002
H	-0.421345	1.249984	1.696733
H	-1.683118	1.317471	0.453099
H	-0.134285	2.155631	0.214128
F	2.732585	0.0	0.0
