19

C	-0.238291	0.054828	-1.5117
C	0.0	0.0	0.0
F	-0.026858	-1.228558	-2.049843
H	1.097927	0.0	0.0
C	-1.635213	0.397187	-1.865992
N	-2.742273	0.697384	-2.124387
C	0.778773	0.975875	-2.16961
H	1.741122	0.734484	-1.690775
H	0.532453	2.024495	-1.988664
H	0.794591	0.796895	-3.247539
C	-0.616051	-1.23057	0.639373
H	-0.359116	-1.252372	1.702728
H	-1.71186	-1.239289	0.555618
H	-0.224302	-2.140478	0.184151
C	-0.467242	1.284378	0.674992
H	-1.549753	1.446294	0.586005
H	-0.217919	1.234956	1.738985
H	0.053081	2.156341	0.271716
F	2.729187	0.0	0.0
