15

C	0.0	0.0	0.0
C	-0.487376	-0.405982	-1.392161
Br	1.967709	0.0	0.0
H	-0.159703	-1.424086	-1.618234
H	-1.587318	-0.399136	-1.344737
N	-0.464362	1.335534	0.26415
H	-0.243798	1.585039	1.222491
H	-1.485632	1.30765	0.182729
C	-0.435285	-1.045961	1.020298
H	-0.087864	-0.757906	2.015709
H	-0.03267	-2.034453	0.784825
H	-1.528815	-1.071428	1.011949
C	-0.038133	0.484215	-2.458035
N	0.298881	1.165059	-3.352267
Br	-3.835236	0.0	0.0
