15

C	0.0	0.0	0.0
C	-0.48799	-0.399676	-1.393547
Br	1.967271	0.0	0.0
H	-0.157104	-1.415209	-1.626083
H	-1.587665	-0.396129	-1.34432
N	-0.46419	1.334517	0.270673
H	-1.485391	1.307319	0.188419
H	-0.24446	1.578126	1.230733
C	-0.435447	-1.050647	1.015352
H	-0.033661	-2.038098	0.774253
H	-0.087094	-0.76844	2.012189
H	-1.528841	-1.075582	1.007341
C	-0.041992	0.498119	-2.454618
N	0.292794	1.184529	-3.345501
Br	-3.834636	0.0	0.0
