15

C	0.0	0.0	0.0
C	-0.458143	0.087158	-1.469243
Br	1.972334	0.0	0.0
H	-0.071748	-0.753512	-2.051805
H	-1.556501	0.031171	-1.437693
N	-0.47039	1.073503	0.827816
H	-0.282648	1.966494	0.382271
H	-1.486528	0.961105	0.890371
C	-0.447985	-1.32488	0.594051
H	-0.096424	-1.390883	1.624381
H	-0.048742	-2.164291	0.020843
H	-1.541246	-1.351606	0.578193
C	-0.062255	1.336262	-2.110472
N	0.240575	2.344354	-2.631095
Br	-3.821758	0.0	0.0
