15

C	0.0	0.0	0.0
C	-0.182206	-0.18524	-1.547084
Br	1.975195	0.0	0.0
H	0.424104	-1.04369	-1.849644
H	0.279388	0.686947	-2.022277
N	-0.527459	1.199201	0.551469
H	-1.538738	1.053781	0.653225
H	-0.384907	1.976577	-0.083957
C	-0.489484	-1.196964	0.784088
H	-0.229062	-1.072796	1.836578
H	-0.046412	-2.121097	0.405859
H	-1.579013	-1.234217	0.683264
C	-1.47516	-0.375269	-2.21605
N	-2.2746	-0.561121	-3.057143
Br	-3.829582	0.0	0.0
