15

C	0.0	0.0	0.0
C	-0.467289	-0.174881	-1.457915
Br	1.971336	0.0	0.0
H	-0.134329	0.681445	-2.053783
H	-1.567681	-0.166058	-1.416323
N	-0.47536	1.226123	0.581524
H	-1.490915	1.121139	0.672258
H	-0.303669	1.998709	-0.054348
C	-0.445927	-1.169011	0.861638
H	-0.034909	-2.109246	0.490043
H	-0.110294	-1.004611	1.886338
H	-1.539126	-1.208617	0.836792
C	-0.010301	-1.403254	-2.09874
N	0.346711	-2.393793	-2.618934
Br	-3.823095	0.0	0.0
