15

C	0.0	0.0	0.0
C	-0.476394	-0.480112	-1.375425
Br	1.964786	0.0	0.0
H	-0.115153	0.218653	-2.134346
H	-1.576076	-0.440344	-1.355362
N	-0.461762	1.359519	0.143165
H	-0.203443	1.696416	1.065869
H	-1.486371	1.320598	0.117026
C	-0.437996	-0.947102	1.108435
H	-0.117389	-0.551253	2.075263
H	-1.53113	-0.997048	1.085514
H	-0.015595	-1.94651	0.982391
C	-0.050742	-1.834291	-1.70466
N	0.287256	-2.926986	-1.969603
Br	-3.813705	0.0	0.0
