13

C	0.0	0.0	0.0
C	-0.501499	-0.187038	-1.426949
Cl	1.770098	0.0	0.0
H	-1.513529	-0.58217	-1.366489
H	-0.378731	0.897197	0.480567
H	0.143722	-0.912005	-1.927892
N	-0.380474	-1.148641	0.899146
O	-0.515847	-0.893441	2.089941
O	-0.446334	-2.258786	0.382732
N	-0.547467	1.057011	-2.180656
H	0.287521	1.60818	-2.022749
H	-1.349157	1.581313	-1.847401
Cl	-3.401292	0.0	0.0
