13

C	0.0	0.0	0.0
C	-0.544293	0.048249	-1.424698
Cl	1.762911	0.0	0.0
H	-0.307407	1.052472	-1.790683
H	-0.354313	0.838745	0.593998
H	-1.631113	-0.01999	-1.321714
N	-0.422737	-1.225849	0.778197
O	-0.355292	-1.130855	1.998952
O	-0.750154	-2.227812	0.152092
N	-0.05793	-0.932482	-2.379211
H	-0.396009	-1.84128	-2.092931
H	0.954315	-0.960368	-2.368588
Cl	-3.640714	0.0	0.0
