13

C	0.0	0.0	0.0
C	-0.573504	0.077752	-1.393098
Cl	1.761715	0.0	0.0
H	-0.176427	-0.751182	-1.986864
H	-0.36108	0.807041	0.629945
H	-1.652624	-0.05667	-1.263058
N	-0.387334	-1.285389	0.684765
O	-0.583905	-1.233015	1.893296
O	-0.404136	-2.300142	-0.006938
N	-0.284687	1.402379	-1.936039
H	-1.10014	1.743355	-2.427804
H	0.489429	1.359872	-2.584756
Cl	-3.653113	0.0	0.0
