13

C	0.0	0.0	0.0
C	-0.605054	0.247661	-1.377342
Cl	1.76135	0.0	0.0
H	0.066613	-0.207652	-2.111229
H	-0.36656	0.672428	0.77176
H	-0.592725	1.339812	-1.538077
N	-0.406818	-1.388123	0.458524
O	-1.162834	-1.433871	1.420859
O	0.047922	-2.335967	-0.164926
N	-1.883297	-0.417274	-1.455662
H	-2.226473	-0.43115	-2.404953
H	-2.631516	-0.048575	-0.862399
Cl	-4.758005	0.0	0.0
