13

C	0.0	0.0	0.0
C	-0.543371	-0.247168	-1.402638
Cl	1.761455	0.0	0.0
H	-1.536092	-0.678235	-1.284501
H	-0.375071	0.915216	0.44836
H	0.109535	-0.958635	-1.913067
N	-0.366668	-1.107464	0.959351
O	-0.512497	-0.787907	2.132949
O	-0.411056	-2.244998	0.504458
N	-0.682287	0.973934	-2.181729
H	0.142187	1.556904	-2.088426
H	-1.487473	1.471578	-1.814908
Cl	-3.466908	0.0	0.0
