16

C	0.0	0.0	0.0
C	-0.61297	-0.438491	-1.340483
Br	1.925286	0.0	0.0
H	-1.713123	-0.49559	-1.124416
C	-0.502697	1.365515	0.418308
H	-0.126268	1.597862	1.412442
H	-0.150797	2.117467	-0.288518
H	-1.595819	1.328795	0.426594
N	-0.404531	-1.019689	1.072479
O	-0.196981	-0.694227	2.233113
O	-0.878207	-2.082332	0.691339
C	-0.110961	-1.711597	-1.856806
N	0.300914	-2.70214	-2.334782
C	-0.390128	0.598855	-2.348483
N	-0.217994	1.418756	-3.172043
Cl	-3.597503	0.0	0.0
