11
Coordinates from ORCA-job run
  C   -0.17090152385432      0.17110332415334      0.01884629177522
  C   1.16458195636794     -0.00523662618516     -0.14491678315424
  H   1.78968138508376      0.82517471380846     -0.44245093416989
  N   -1.09668719338513     -0.70993195276740      0.46382524129685
  H   -0.83525205872403     -1.68385874166478      0.46519370540740
  H   -2.05600835521113     -0.49101168943915      0.24691791555213
  N   -0.73240093265163      1.51738887924715     -0.25493239887828
  O   0.05070118637709      2.43530017101114     -0.46730078582463
  O   -1.96045058994799      1.60405695783493     -0.25906826666655
  C   1.71929511950411     -1.28755107895530      0.08666374453242
  N   2.12644100644133     -2.37543395704322      0.28622227012956
