11
Coordinates from ORCA-job run
  C   -0.29499568717563     -0.04144148706588      0.19427979459200
  C   0.89370208289425     -0.69224346929729      0.24395652785463
  H   0.94399877715197     -1.58382341534974      0.86325904351655
  N   -1.42293365308154     -0.34239564262699      0.89605106993031
  H   -1.47311444518642     -1.27149963060363      1.28162180603999
  H   -2.27753594803858      0.00269861236126      0.48568100143259
  N   -0.47154148597928      1.17016104421466     -0.64161153243169
  O   -1.63238957794480      1.45792300833721     -0.93599573448867
  O   0.53149549029386      1.78590713297750     -0.98046134611766
  C   2.08425523819495     -0.33812197359223     -0.43772092489044
  N   3.11805920887121     -0.14716417935486     -0.96905970543762
