11
Coordinates from ORCA-job run
  C   -0.18025905469262      0.15825912625456     -0.04021346971627
  C   1.15420202255115     -0.01577267724942     -0.21383490307940
  H   1.77941789636853      0.81987863850329     -0.49473550704515
  N   -1.13221941562585     -0.76888437163029      0.21770195876012
  H   -0.81385302100990     -1.66620798061141      0.55009338523893
  H   -1.99654955998968     -0.41957615421482      0.60011858565758
  N   -0.73053435576710      1.52563559617005     -0.20980362564376
  O   -1.90002714978529      1.68758467760567      0.14003484246864
  O   0.00669577854205      2.39001204099630     -0.66811044480903
  C   1.70460447534437     -1.30764594823656     -0.02835280068836
  N   2.10752238406434     -2.40128294758736      0.14710197885670
