11
Coordinates from ORCA-job run
  C   -0.19359203198596      0.12196657210494     -0.08306697331387
  C   1.14408975439007     -0.02087509357747     -0.26059855530132
  H   1.69379698085388      0.70062666638945     -0.84796344089695
  N   -1.06394461159364     -0.71181482673860      0.53355169725121
  H   -1.93791763030842     -0.30192473962869      0.82292940984794
  H   -0.66686137031192     -1.41618939333717      1.13628462699688
  N   -0.85072065280950      1.30945879233557     -0.68269774749804
  O   -2.01629122050376      1.51430532291929     -0.34324719185132
  O   -0.19626101265119      2.00217047712543     -1.45214726438604
  C   1.79729754416044     -1.13046773111249      0.32949407157224
  N   2.28940425076000     -2.06725604648027      0.84846136757926
