11
Coordinates from ORCA-job run
  C   -0.17907448832479      0.16514005935874      0.00273081938167
  C   1.15819195906475      0.03591011104861     -0.18830545773077
  H   1.72588228184640      0.84469040644912     -0.62612653776687
  N   -1.03707594355715     -0.68650670002122      0.61101073905514
  H   -2.01336871804313     -0.56018762125663      0.39602909747061
  H   -0.71634451396983     -1.63164627394558      0.75488832761611
  N   -0.82690069199300      1.42279373282273     -0.44501415828093
  O   -2.05799810141277      1.43294127416696     -0.43473447904792
  O   -0.10519388603108      2.34679778032198     -0.79989066856649
  C   1.79000043705252     -1.17118793253885      0.19897289906799
  N   2.25988166536808     -2.19974483640587      0.53143941880147
