11
Coordinates from ORCA-job run
  C   -0.32624043543865     -0.12383459819249      0.06743175628526
  C   0.84837454757054     -0.78097388718560     -0.09938219925554
  H   0.80010903383243     -1.86234139707015     -0.19548957411468
  N   -1.56269708548042     -0.67912022784416      0.20033754605122
  H   -1.66107338597694     -1.63076580305107     -0.11415381290711
  H   -2.32691538427757     -0.06400994862418     -0.03484717583919
  N   -0.36916635475764      1.35333492687192      0.18420393746810
  O   0.66132460557667      1.93490437263813      0.50044274729218
  O   -1.45541759448962      1.88251575898435     -0.05504044086998
  C   2.13957583389611     -0.20283020924492     -0.17844300478479
  N   3.25212621954510      0.17212101271818     -0.27405977932548
