11
Coordinates from ORCA-job run
  C   -0.16736498600048      0.17500609421674      0.02333970293232
  C   1.15473409158880     -0.02291038135225     -0.20983909828162
  H   1.77132577780522      0.78971110552116     -0.56725923639796
  N   -1.07482545035682     -0.67877294858782      0.55194278454172
  H   -2.04303090040834     -0.46167425390612      0.37603826432896
  H   -0.82098386817051     -1.65421417879927      0.58066983387836
  N   -0.73093360531830      1.51675741825933     -0.26602171733188
  O   -1.95833298890398      1.60843478076971     -0.23512416740109
  O   0.04929183869825      2.42449885199190     -0.52647757846511
  C   1.70777277722668     -1.30432620956171      0.03059658470899
  N   2.11134731383947     -2.39151027855167      0.24113462748731
