11
Coordinates from ORCA-job run
  C   -0.16607515115940      0.17693893920314      0.01189089383303
  C   1.12984443059676     -0.05879841921793     -0.31399536931868
  H   1.70007041415240      0.68686864986347     -0.84963651534118
  N   -1.00821118723461     -0.58078382551473      0.75343868641552
  H   -0.74088308917582     -1.54165720487102      0.90266031919306
  H   -1.99098111926016     -0.39309980993527      0.63293744781745
  N   -0.77068785058116      1.45913639040669     -0.42655702101896
  O   -0.03003813906030      2.31263694763279     -0.89939404973903
  O   -1.99022725612035      1.55932652801994     -0.28936728761942
  C   1.71788046414022     -1.28889411131541      0.06960222260565
  N   2.15030848370242     -2.33167408427168      0.40842067317258
