11
Coordinates from ORCA-job run
  C   -0.24237997823804      0.02697854948570      0.25850717188509
  C   1.02322466571690     -0.45997007961237      0.28454412396618
  H   1.32890775900393     -0.99354041105773      1.18050781410745
  N   -1.15673334961324     -0.01675626300773      1.26664566796682
  H   -2.11643512085724      0.06936032289742      0.96816070568634
  H   -0.98839218569845     -0.69222197411718      1.99433687493315
  N   -0.76226013950094      0.74885761773977     -0.92749408901546
  O   0.04922142306406      1.22060896221957     -1.71427545575769
  O   -1.98842166516104      0.81162085403659     -1.02664865523027
  C   1.99102161924791     -0.36221836511892     -0.74578483097472
  N   2.86224697203615     -0.35271921346511     -1.53849932756688
