11
Coordinates from ORCA-job run
  C   -0.31833832423450     -0.12931507183699      0.03378215858262
  C   0.83204929985695     -0.82172739864706     -0.11455140103904
  H   0.81401011398800     -1.88801347570970      0.07127324111122
  N   -1.57235156902149     -0.62290654204372      0.19444415838539
  H   -2.27440294173707     -0.01948284385310      0.58715927490661
  H   -1.68791108382443     -1.60996492995195      0.32929994355686
  N   -0.34220894752800      1.34749510868768     -0.05832137939142
  O   -1.21425269026402      1.85326122997676     -0.76108537143389
  O   0.48673044610691      1.94179129025372      0.63323570896379
  C   2.09436312742134     -0.22687458796734     -0.35038361303490
  N   3.18131256923631      0.17573722109170     -0.56385272060723
