11
Coordinates from ORCA-job run
  C   -0.32402532666430     -0.12363366388493      0.07816771723674
  C   0.83605375917477     -0.78176327996493     -0.16778629512016
  H   0.77453721450712     -1.85880504498380     -0.29869865506848
  N   -1.55711587204656     -0.67556132597818      0.25003694175588
  H   -2.32686723533753     -0.04772314027595      0.07411325875861
  H   -1.67731650868673     -1.61447459055344     -0.09378289398188
  N   -0.34919712130254      1.34875134004123      0.24829211275911
  O   -1.44169534767334      1.89282028282191      0.08190085816859
  O   0.70003598335406      1.91243955628333      0.53362150704728
  C   2.12695976853856     -0.20986786380610     -0.28649899030166
  N   3.23763068613651      0.15881773030087     -0.42036556125404
