11
Coordinates from ORCA-job run
  C   -0.33406499869032     -0.11210611205133     -0.04686385756261
  C   0.84653393083967     -0.74833262169782     -0.24863370595951
  H   0.80515918334031     -1.81653792149441     -0.44411872107662
  N   -1.58060131921841     -0.65372092557866     -0.13282051686186
  H   -1.63624212254355     -1.65775713323832     -0.07771923916454
  H   -2.29309339497517     -0.15191716185209      0.37531845259251
  N   -0.38196078217673      1.33945777614570      0.25091725386053
  O   0.59135626668635      2.01983333677810     -0.04874226309878
  O   -1.41278249667018      1.74649476728591      0.78835961150699
  C   2.13906841579976     -0.16862983564438     -0.21764837489790
  N   3.25662731760827      0.20321583134730     -0.19804863933821
