11
Coordinates from ORCA-job run
  C   -0.19025319577302      0.13529583372543     -0.06784904742913
  C   1.14102330295258     -0.02865781117242     -0.27337655669767
  H   1.70833489936946      0.73566059305051     -0.78537226455888
  N   -1.08254994971713     -0.73210326323843      0.46475841026534
  H   -0.70509172401878     -1.50956287427501      0.98429445998309
  H   -1.94243847314839     -0.33012722416599      0.80296815493969
  N   -0.81349591180100      1.40019879456775     -0.53098754407169
  O   -1.97069498164770      1.60203696422773     -0.16193454101288
  O   -0.14142579933473      2.15217795058148     -1.22614300927285
  C   1.76478950577742     -1.21222733869982      0.19063526156953
  N   2.23180232734128     -2.21269162460123      0.60300667628546
