11
Coordinates from ORCA-job run
  C   -0.31307618177835     -0.08891169040094      0.14332846776437
  C   0.88897124329251     -0.71525384005887      0.19185136893791
  H   0.98704995398415     -1.54166959005059      0.89075676801374
  N   -1.43949560762176     -0.42831169688619      0.82922248858440
  H   -2.10826668705429      0.31938166427724      0.93575387119444
  H   -1.30976582165299     -1.01234048312416      1.63935951986287
  N   -0.54266230949356      1.06227903872612     -0.76279640691600
  O   -1.50717429710565      1.77905100009175     -0.49184332847696
  O   0.23140432087284      1.22000450433221     -1.69872996469382
  C   2.04583999732654     -0.39334480190333     -0.56022825313936
  N   3.06717538923055     -0.20088410500324     -1.11467453113159
