11
Coordinates from ORCA-job run
  C   -0.33229754584610     -0.12339228082599     -0.03307151958748
  C   0.85336063646655     -0.78137591669091     -0.01573177677058
  H   0.81702338434056     -1.86458189123769      0.06351768387282
  N   -1.57662412281533     -0.67696819025253     -0.03514109228076
  H   -2.30705484597041     -0.06814710717194      0.30192553912840
  H   -1.63929219587664     -1.63516165451274      0.26857686219258
  N   -0.38667383667372      1.35632537114669     -0.11226859476293
  O   0.60017832509897      1.94599471717564     -0.53453447510902
  O   -1.43595896200649      1.87870822817558      0.26621661111442
  C   2.14530145416854     -0.20218191992531     -0.07324050410610
  N   3.26203770911408      0.17178064411920     -0.09624873369134
