11
Coordinates from ORCA-job run
  C   -0.19982162192226      0.13158640331839     -0.04260792234974
  C   1.08931013259855     -0.01239906983465     -0.44144823780266
  H   1.55912880643994      0.74739609819737     -1.04971757083230
  N   -0.98221126838999     -0.74019609787346      0.63604496667530
  H   -1.78922672161817     -0.34552037968082      1.09265880272849
  H   -0.51403624800657     -1.49861071523866      1.10793389578682
  N   -0.91368886467348      1.37265505617112     -0.43195487211972
  O   -2.00156518113370      1.56661736019167      0.11104134026229
  O   -0.37459183187689      2.11606625480213     -1.24288912534149
  C   1.79657249956399     -1.17570827427433     -0.05054804640599
  N   2.33013029901859     -2.16188663577876      0.31248676939901
