11
Coordinates from ORCA-job run
  C   -0.18358802350426      0.15344127946323     -0.04440635618905
  C   1.09597567808479     -0.12129545390099     -0.40312282081280
  H   1.66933974188085      0.59909358558697     -0.96928920658950
  N   -1.08231212231518     -0.64451540071231      0.57857617996889
  H   -0.71921566934766     -1.46312869297684      1.04230017129735
  H   -1.85897307337917     -0.17568324732033      1.01748172542020
  N   -0.74088787364714      1.47690127316126     -0.41786694877666
  O   -1.82213099135131      1.77374286453192      0.09085721386357
  O   -0.09126989488708      2.17987616843171     -1.18212605290393
  C   1.65837940573718     -1.36601038495107     -0.02842627358781
  N   2.07568282272900     -2.41342199131355      0.31502236830976
