11
Coordinates from ORCA-job run
  C   -0.15070465128226      0.18873631581930      0.02615768966342
  C   0.98769889941608     -0.19248439060086     -0.60661673555923
  H   1.38786137080185      0.40456804982071     -1.41375496147925
  N   -0.75238616143391     -0.36836453542719      1.10280965023517
  H   -0.46996388633844     -1.30457100706027      1.34884863946893
  H   -1.72154776375093     -0.12995673513223      1.24125763414863
  N   -0.83483258664455      1.41523184479797     -0.45335439635739
  O   -0.25051114908135      2.11848601610029     -1.26853632869110
  O   -1.95791447696247      1.62548977317602      0.00552870541466
  C   1.63710873887198     -1.37872637299275     -0.18538468797269
  N   2.12619166640402     -2.37740895850100      0.20504479112885
