11
Coordinates from ORCA-job run
  C   -0.29003145141601     -0.09579219745451      0.18218273289620
  C   0.90603491252858     -0.71858119491996      0.03783945245638
  H   0.97733604953836     -1.74111795665401      0.39882306963047
  N   -1.40028548449667     -0.58840274567494      0.79789524528569
  H   -2.26613357014062     -0.15762460271037      0.51077466161352
  H   -1.43491592229510     -1.58673895066538      0.92552784557607
  N   -0.49581309735482      1.29091871468633     -0.30019633053853
  O   0.49414726078687      1.98854702642362     -0.48273307929064
  O   -1.66537000944999      1.63005378501418     -0.48535494132589
  C   2.07712578669654     -0.18046284434179     -0.55092902295277
  N   3.09690552560285      0.15920096629682     -1.03282963335048
