11
Coordinates from ORCA-job run
  C   -0.32941947926354     -0.11592701840192      0.06480355804754
  C   0.83032261678574     -0.79872934388278     -0.10319525952184
  H   0.75682487723421     -1.87779505578356     -0.20966390804274
  N   -1.57826825655184     -0.64366525157371      0.19044874087910
  H   -1.69771936797149     -1.59263838549379     -0.12470329603146
  H   -2.32904735155985     -0.01111146761367     -0.04151110763304
  N   -0.33887028671234      1.36098902247165      0.19187113189664
  O   -1.41209671035564      1.91643778665580     -0.04642202597909
  O   0.70398070388724      1.91665362758929      0.51397653650847
  C   2.13515613121785     -0.25095751140424     -0.17314003143157
  N   3.25713712328966      0.09674359743694     -0.26146433869200
