11
Coordinates from ORCA-job run
  C   -0.29939120160219     -0.13529684417326      0.13019610521926
  C   0.83979109356345     -0.81764423340894     -0.13555425750187
  H   0.85228988681493     -1.88517324070703      0.06496087767484
  N   -1.45275147832499     -0.63297818430030      0.65182029592226
  H   -1.39555309112374     -1.40546159617564      1.29190311604258
  H   -2.23274871075117     -0.00813920237539      0.75706520115660
  N   -0.41384284553252      1.28828724264798     -0.24011000341509
  O   0.49940774513241      2.03561013105820      0.09449993135499
  O   -1.43982420136476      1.60462492032299     -0.84067740102407
  C   2.01940765634993     -0.23286600899500     -0.66125366941101
  N   3.02221514683864      0.18803701610637     -1.11285019601848
