11
Coordinates from ORCA-job run
  C   -0.17436463447681      0.16463806830153     -0.02534233403156
  C   1.11789366785682     -0.06646168026776     -0.37426614139416
  H   1.71901035188094      0.72456956723928     -0.80217366082462
  N   -1.07403339760479     -0.70821570251878      0.47902770152476
  H   -1.91663009821529     -0.30613081617482      0.86148448672255
  H   -0.73033876218805     -1.56295783628282      0.88614155521464
  N   -0.73708818537097      1.50981652218673     -0.27451628978765
  O   -1.89343549780607      1.69972974233432      0.10483429467174
  O   -0.02785534926076      2.33086549446501     -0.84275022584598
  C   1.66261058828047     -1.34911423242067     -0.12331761987954
  N   2.05323131690450     -2.43673912686202      0.10987823362984
