11
Coordinates from ORCA-job run
  C   -0.32469084254939     -0.10159632132333      0.10433775605581
  C   0.84801969922595     -0.78226533016074      0.08308939728367
  H   0.80084300604317     -1.85236605942871      0.26665891316364
  N   -1.55624290034920     -0.60119999610061      0.40221719992947
  H   -1.65921209628505     -1.60104473591772      0.33848890461230
  H   -2.32661598125374     -0.06340988197529      0.03456571359699
  N   -0.36926746618942      1.35734091014923     -0.15729702272176
  O   0.66705680367198      1.99652233752272     -0.02536666415694
  O   -1.46262197855047      1.81157854133968     -0.49700477998277
  C   2.13577584155554     -0.24767507605802     -0.16861079451605
  N   3.24595591468065      0.08511561195279     -0.37907862326436
