11
Coordinates from ORCA-job run
  C   -0.19518368926404      0.12331807746432     -0.07657454954802
  C   1.11691876767861     -0.08813229834008     -0.35032966478243
  H   1.64023090240960      0.56036885661411     -1.03857131387723
  N   -1.03854059395719     -0.62272555016633      0.67471634398274
  H   -1.87146196795990     -0.15658638754909      0.99785526634114
  H   -0.61842230523785     -1.29520103544790      1.29771196915063
  N   -0.85934587193207      1.28645238534082     -0.71523130174572
  O   -0.25015968866815      1.88708197341418     -1.59193682229485
  O   -1.98261635186906      1.56754343382434     -0.29656504647362
  C   1.77885885018113     -1.17425419930903      0.27299580078429
  N   2.27872194861891     -2.08786525584533      0.82492931846307
