11
Coordinates from ORCA-job run
  C   -0.18904703155044      0.13488441819385     -0.06981911584566
  C   1.16414952073824      0.06408173946698     -0.14269469257010
  H   1.73515347747192      0.91523318249515     -0.48539962926087
  N   -1.07671233526297     -0.83805978717720      0.24235027989479
  H   -1.99123091272525     -0.52612834886614      0.52831706525280
  H   -0.70974214291845     -1.66024471305602      0.69639478246545
  N   -0.83770587435468      1.41966863062949     -0.43357862534920
  O   -0.14494600015185      2.28834801450430     -0.94919249190587
  O   -2.03687961635713      1.51563988681720     -0.17126316785830
  C   1.80511847108425     -1.14313269542454      0.22884787372081
  N   2.28084244402634     -2.17029032758307      0.55703772145615
