11
Coordinates from ORCA-job run
  C   -0.19095934725721      0.14847886888886     -0.02218507367347
  C   0.97618438689164     -0.19775286959162     -0.62134511127443
  H   1.39430569357915      0.42616265286022     -1.39839952042153
  N   -0.91264919241400     -0.53649873477214      0.89564912247587
  H   -1.57549281771023      0.00431680699674      1.42842309527566
  H   -0.44182687826631     -1.28760242840832      1.37626271078056
  N   -0.83757354290992      1.41647845844418     -0.44258473207665
  O   -1.78096847721393      1.80018526284227      0.24943683182821
  O   -0.38827041158316      1.99329300606884     -1.42544798689456
  C   1.62817714269827     -1.38675397779225     -0.21235434635706
  N   2.13007344418570     -2.38130704553679      0.17254501033741
