11
Coordinates from ORCA-job run
  C   -0.18346914173492      0.15576585002823     -0.03608425151100
  C   1.08006982089982     -0.12695115535576     -0.44242749673440
  H   1.63870199570728      0.59390441742473     -1.02243099335088
  N   -1.06721744928500     -0.64025789402666      0.61009163327215
  H   -1.82345012862694     -0.16907376836161      1.08078151681066
  H   -0.69571949271639     -1.46700762175938      1.05208429741177
  N   -0.74061611364298      1.48834631476569     -0.37575347519167
  O   -1.80132228464500      1.78913704981432      0.17253637913503
  O   -0.11183278056137      2.19295700327207     -1.15595111682680
  C   1.64310335974530     -1.38105225586917     -0.10117531024672
  N   2.06175221486019     -2.43576793993246      0.21732881723184
