11
Coordinates from ORCA-job run
  C   -0.31888910347909     -0.14388127780735      0.06636107445450
  C   0.87292887806704     -0.72944566184244     -0.20990007414184
  H   0.86060343659911     -1.79198983413505     -0.43626241633830
  N   -1.52830628243366     -0.76078400090839      0.16497672141603
  H   -2.32325522921262     -0.15318102373965      0.03764569022812
  H   -1.60358798950374     -1.67113771042344     -0.25836780105226
  N   -0.41170369370489      1.30646336538587      0.35418811404973
  O   -1.52633850552848      1.81370236836013      0.22088634461255
  O   0.60988923500354      1.89149152814851      0.69236445390700
  C   2.13780559440938     -0.09433622849690     -0.26842439454650
  N   3.23185365978341      0.33209847545871     -0.36346771258904
