11
Coordinates from ORCA-job run
  C   -0.32258453328630     -0.13434455851313      0.06204871673813
  C   0.90234798096330     -0.71328448898566      0.12645054755680
  H   0.93302904079153     -1.79280694038079      0.24791673725693
  N   -1.52754221194442     -0.75123866874828      0.20583692649416
  H   -1.53596948921901     -1.75181205170821      0.09212201299412
  H   -2.30660285412440     -0.25824504498379     -0.20267959369986
  N   -0.47085747958863      1.32848614287865     -0.12830812455073
  O   -1.56433651773837      1.71021161306405     -0.54751967082618
  O   0.48859092872829      2.04264786455650      0.13491437333548
  C   2.15617115235798     -0.05878452798438      0.04064990418997
  N   3.24775398306003      0.37817066080502     -0.03043182948881
