11
Coordinates from ORCA-job run
  C   -0.32365202588043     -0.13807786124737      0.05578651009712
  C   0.88721718056999     -0.74349532039076     -0.02586189471375
  H   0.93948889757276     -1.78818406497308      0.26861906662001
  N   -1.50670081031831     -0.71623870460113      0.40359126846242
  H   -2.20381378859115     -0.07163690821836      0.74491060315387
  H   -1.44802798358739     -1.59111828179399      0.89911012842853
  N   -0.49219495831753      1.29021070257318     -0.30351650192219
  O   -1.48808145798609      1.84905621526413      0.15805088636709
  O   0.35776771667755      1.80720102461198     -1.01785135617287
  C   2.10498232423724     -0.14833933245664     -0.43970857935415
  N   3.17101490562336      0.25062253123204     -0.74313013096608
