11
Coordinates from ORCA-job run
  C   -0.31893646839808     -0.13804020424861      0.07488476933084
  C   0.92074805276198     -0.67916869065403      0.17288754674207
  H   1.00608404782503     -1.62733713150943      0.69692471058040
  N   -1.48876208833419     -0.68993441206177      0.50082601785952
  H   -2.23084798563722     -0.02677124375511      0.66563777192572
  H   -1.41259099416726     -1.43114071602170      1.17835856852569
  N   -0.53627668150893      1.16466493876506     -0.59888535056183
  O   0.32437824130609      1.56069821672389     -1.37506820526473
  O   -1.58010714369115      1.75270062435698     -0.31291615992849
  C   2.12826077407342     -0.12922958710150     -0.32420413341663
  N   3.18805024577033      0.24255820550622     -0.67944553579255
