11
Coordinates from ORCA-job run
  C   -0.16993180124664      0.17429275589443     -0.00603624742815
  C   1.10605793485998     -0.09211401571871     -0.38326870699386
  H   1.61279708074341      0.55591428263501     -1.08430190319358
  N   -0.93241292776211     -0.45571453233288      0.91827347671965
  H   -1.92678231995185     -0.31073375446781      0.84333953581499
  H   -0.62368973356462     -1.36850074428247      1.21563005345079
  N   -0.84546352784286      1.34531442336091     -0.61742664374885
  O   -2.05508703214897      1.44395966503979     -0.40984053904769
  O   -0.16816687147971      2.11501556479220     -1.28790488175290
  C   1.75751637504974     -1.22408329582719      0.16487569668881
  N   2.24516282334363     -2.18235034909329      0.64766015949079
