11
Coordinates from ORCA-job run
  C   -0.16379705977998      0.17967940277405     -0.00051369440467
  C   1.09243652204378     -0.12676764710152     -0.41235329981374
  H   1.60336496185863      0.51051487715672     -1.12008556978903
  N   -0.92488612614475     -0.43393305423995      0.93561809820876
  H   -0.64173674723765     -1.36000702302467      1.21664660601342
  H   -1.91464141813051     -0.25014685626249      0.89059325436106
  N   -0.81270870246482      1.38006947254927     -0.58288545363891
  O   -0.12511400803088      2.13452029878539     -1.26008094645788
  O   -2.01318057920293      1.51722443042545     -0.34582936523762
  C   1.71747261811742     -1.28640393180259      0.10784874577229
  N   2.18279053897171     -2.26574996925966      0.57004162498633
