11
Coordinates from ORCA-job run
  C   -0.19300729417288      0.13369455060399     -0.06367685075215
  C   1.10003590891444     -0.11113582065359     -0.39417234487299
  H   1.62296171385860      0.55053559070699     -1.07002616116170
  N   -1.03771479322038     -0.61714645906994      0.68156903557629
  H   -0.62184530438646     -1.33325123983868      1.25695729966473
  H   -1.83970614645624     -0.13619994584363      1.05712250804555
  N   -0.83455774639465      1.34925445141613     -0.62275509497387
  O   -1.93170550855289      1.64967158055951     -0.15153233456490
  O   -0.23353389733394      1.96949235830989     -1.49139331716188
  C   1.74178998691463     -1.24895564122743      0.15326841924008
  N   2.22628308082978     -2.20495942496324      0.64363884096083
