11
Coordinates from ORCA-job run
  C   -0.18985941264544      0.13839054173455     -0.06367713311321
  C   1.09962387670160     -0.13110744366544     -0.38924190864481
  H   1.64083943451787      0.52505689493500     -1.05601306982834
  N   -1.05431663357193     -0.60033033102978      0.67033567855326
  H   -1.85075767675233     -0.10892813552143      1.04362477135949
  H   -0.65866775853238     -1.33339522776666      1.23853201925647
  N   -0.80187173605393      1.37299384805427     -0.61409568920420
  O   -0.18723582274838      1.98275974037596     -1.48085854185158
  O   -1.89037474919747      1.69782875352508     -0.13912539286276
  C   1.71419973575399     -1.28676188949025      0.15240263643797
  N   2.17642074252842     -2.25650675115129      0.63711662989770
