12

C	0.0	0.0	0.0
C	-0.289192	-0.029487	-1.529837
Br	1.96278	0.0	0.0
H	0.223518	-0.910904	-1.928269
H	0.220851	0.83896	-1.958509
C	-0.478623	1.222308	0.643436
N	-0.619622	2.251791	1.19621
C	-0.467506	-1.194014	0.698318
N	-0.611137	-2.205543	1.283979
C	-1.673108	-0.038838	-2.021928
N	-2.500753	-0.051418	-2.861838
F	-2.295312	0.0	0.0
