12

C	0.0	0.0	0.0
C	-0.467067	-0.084523	-1.468824
Br	1.959976	0.0	0.0
H	-0.134482	-1.039217	-1.884328
H	-1.58004	-0.062167	-1.29728
C	-0.427247	1.242889	0.64397
N	-0.595277	2.262084	1.204003
C	-0.456208	-1.17633	0.740434
N	-0.583716	-2.191995	1.319991
C	0.017815	1.013261	-2.283746
N	0.367675	1.894441	-2.978616
F	-2.482953	0.0	0.0
