12

C	0.0	0.0	0.0
C	-0.462328	0.090315	-1.470778
Br	1.960079	0.0	0.0
H	-1.574461	0.081179	-1.304754
H	-0.112573	1.038563	-1.887443
C	-0.44778	1.175149	0.746248
N	-0.560321	2.182681	1.341842
C	-0.432885	-1.241683	0.643164
N	-0.599471	-2.257081	1.210877
C	0.011436	-1.016107	-2.281499
N	0.360454	-1.899868	-2.973853
F	-2.476378	0.0	0.0
