12

C	0.0	0.0	0.0
C	-0.472193	-0.101152	-1.466744
Br	1.959864	0.0	0.0
H	-1.586075	-0.073611	-1.291029
H	-0.144954	-1.06372	-1.868784
C	-0.429403	1.247089	0.636921
N	-0.606705	2.269161	1.189327
C	-0.455708	-1.169325	0.75301
N	-0.589986	-2.178416	1.341958
C	0.017057	0.979837	-2.300276
N	0.381039	1.837084	-3.017176
F	-2.492398	0.0	0.0
