12

C	0.0	0.0	0.0
C	-0.467621	-0.020395	-1.471227
Br	1.960171	0.0	0.0
H	-1.580766	-0.006464	-1.299032
H	-0.133888	-0.955172	-1.92918
C	-0.428813	1.21297	0.698217
N	-0.598979	2.201145	1.311377
C	-0.455857	-1.207085	0.688889
N	-0.586672	-2.245445	1.225521
C	0.017032	1.112447	-2.23706
N	0.372279	2.020425	-2.89364
F	-2.484698	0.0	0.0
