12

C	0.0	0.0	0.0
C	-0.271976	0.294011	-1.504965
Br	1.963093	0.0	0.0
H	0.250953	-0.481298	-2.073346
H	0.234496	1.236932	-1.734079
C	-0.446853	1.067911	0.886515
N	-0.551196	1.990137	1.60948
C	-0.443677	-1.32622	0.414821
N	-0.552543	-2.452418	0.736616
C	-1.649047	0.376645	-2.002937
N	-2.479502	0.514948	-2.828736
F	-2.276238	0.0	0.0
