12

C	0.0	0.0	0.0
C	-0.292507	-0.178325	-1.509617
Br	1.962854	0.0	0.0
H	0.216699	-1.09154	-1.832425
H	0.200648	0.652155	-2.029244
C	-0.451349	1.28817	0.537655
N	-0.749089	2.324794	1.007668
C	-0.425376	-1.127886	0.823462
N	-0.699172	-2.033457	1.51934
C	-1.691488	-0.248366	-1.954496
N	-2.486128	-0.369097	-2.81959
F	-2.311107	0.0	0.0
