12

C	0.0	0.0	0.0
C	-0.481216	0.164598	-1.455892
Br	1.960193	0.0	0.0
H	-0.157146	-0.706226	-2.031723
H	-1.596126	0.156587	-1.263307
C	-0.42593	1.112555	0.85112
N	-0.600495	2.003705	1.597452
C	-0.451067	-1.283136	0.539417
N	-0.586706	-2.373229	0.958894
C	-0.005386	1.38493	-2.077767
N	0.338479	2.371167	-2.617251
F	-2.499706	0.0	0.0
