16

C	-0.543752	-0.017739	-1.416075
C	0.0	0.0	0.0
Cl	-2.316342	-0.264393	-1.468849
H	1.090767	0.0	0.0
N	-0.227461	1.388635	-1.989575
O	-1.12164	2.211454	-2.061045
O	0.948646	1.539638	-2.289573
C	0.084657	-0.97022	-2.325863
N	0.536599	-1.686005	-3.141648
N	-0.349124	-1.236054	0.677492
O	-0.512793	-1.191893	1.907853
O	-0.320944	-2.28198	0.009604
N	-0.344876	1.189705	0.690767
H	-1.162514	1.058882	1.271839
H	0.446296	1.430427	1.282526
H	2.406086	0.0	0.0
