16

C	-0.53611	-0.053235	-1.419239
C	0.0	0.0	0.0
Cl	-2.29042	-0.394594	-1.490455
H	1.089221	0.0	0.0
N	-0.289226	1.365859	-1.996803
O	0.888663	1.597248	-2.226802
O	-1.233796	2.121104	-2.140232
C	0.155943	-0.975202	-2.316268
N	0.639683	-1.671273	-3.130862
N	-0.330216	-1.225319	0.701364
O	-0.294333	-2.281179	0.049826
O	-0.476255	-1.163513	1.933308
N	-0.356629	1.199958	0.666964
H	0.443104	1.473393	1.232755
H	-1.153837	1.062223	1.274543
H	2.401958	0.0	0.0
