16

C	-0.568046	-0.014444	-1.405096
C	0.0	0.0	0.0
Cl	-2.341531	-0.257125	-1.428344
H	1.090893	0.0	0.0
N	-0.261972	1.392953	-1.979037
O	0.912431	1.548103	-2.281848
O	-1.160031	2.211523	-2.049926
C	0.041316	-0.965498	-2.328836
N	0.472519	-1.679334	-3.156955
N	-0.340629	-1.234832	0.683516
O	-0.458236	-1.191389	1.919303
O	-0.345398	-2.279616	0.013171
N	-0.332649	1.191658	0.695343
H	-1.134931	1.060149	1.297387
H	0.4723	1.434276	1.267574
H	2.400702	0.0	0.0
