16

C	-0.488423	0.041322	-1.435312
C	0.0	0.0	0.0
Cl	-2.280008	0.130321	-1.562595
H	1.090305	0.0	0.0
N	0.094236	1.357974	-2.00787
O	-0.548789	2.387636	-1.850183
O	1.209021	1.255244	-2.503454
C	-0.019999	-1.018357	-2.319946
N	0.302732	-1.816339	-3.120668
N	-0.40219	-1.266469	0.63525
O	-0.325251	-1.334101	1.861318
O	-0.667134	-2.225927	-0.107085
N	-0.328178	1.127563	0.787222
H	-1.110297	1.667322	0.449904
H	0.50143	1.700706	0.903045
H	2.444044	0.0	0.0
