16

C	-0.596181	0.010843	-1.399751
C	0.0	0.0	0.0
Cl	0.074683	1.385056	-2.309595
H	1.089197	0.0	0.0
N	-0.212544	-1.226266	-2.225313
O	0.913285	-1.657589	-2.052771
O	-1.03949	-1.616179	-3.04051
C	-2.051395	0.128069	-1.372676
N	-3.211346	0.298471	-1.281412
N	-0.466889	-1.161923	0.711809
O	-0.956118	-2.112162	0.06126
O	-0.264426	-1.188444	1.938085
N	-0.259807	1.23121	0.682015
H	-0.992445	1.115725	1.369082
H	0.601482	1.487567	1.159754
H	2.37495	0.0	0.0
