16

C	-0.629474	-0.006249	-1.383579
C	0.0	0.0	0.0
Cl	-0.017909	1.379754	-2.317573
H	1.096613	0.0	0.0
N	-0.237319	-1.233868	-2.21718
O	-1.099439	-1.692701	-2.95614
O	0.9237	-1.591143	-2.127181
C	-2.085602	0.066819	-1.315514
N	-3.247019	0.204547	-1.200671
N	-0.436786	-1.152944	0.73167
O	-0.242909	-1.151805	1.962265
O	-0.876672	-2.135755	0.093608
N	-0.256214	1.236816	0.679393
H	0.644367	1.56104	1.0349
H	-0.861605	1.072169	1.473626
H	2.349632	0.0	0.0
