16
Coordinates from ORCA-job run
  C   0.72424042880165      0.15711999458505     -0.44850599580858
  C   -0.78580740689495     -0.04887406876176     -0.32262889894088
  H   1.09391830580247     -0.20863116117063     -1.40427965789256
  H   -1.24298427938928      0.74832246837338     -0.92627124430621
  N   1.43489114310482     -0.60569893944959      0.63435500919589
  O   1.90975923295421      0.02248986973027      1.56909113705418
  O   1.43181451230708     -1.82085755275788      0.48348385979265
  N   1.14272911298326      1.58673101771679     -0.32482718838789
  O   2.23850338887150      1.86044986052543     -0.80388468225702
  O   0.38340731424427      2.36522480804537      0.24780194004730
  N   -1.14899772499688     -0.00601989057528      1.08669323097254
  H   -2.12992099563814     -0.23741041840263      1.18430374740404
  H   -1.00511311729578      0.92681308354846      1.45742701601612
  N   -1.11420800952325     -1.30281808753631     -0.95931074900124
  H   -0.81997306352712     -2.07034042358875     -0.36627467586173
  H   -2.11325884180386     -1.36750056028192     -1.10717284802664
