11
Coordinates from ORCA-job run
  C   -0.81944168532273     -0.89757545416210      0.15075967669646
  C   0.01502917708260      0.28945550608337     -0.30811219167454
  Br  -2.69551839277730     -0.50293086605503     -0.10840913239833
  H   -0.17555177240683      0.50012343526005     -1.36537496363407
  H   -0.57611546590818     -1.77475975048564     -0.44131754868856
  H   -0.65757599666498     -1.09863824903100      1.20888253607738
  N   1.50244533559917     -0.06340480806430     -0.24685213394914
  O   2.28653447948896      0.85776523698587     -0.07186813486641
  O   1.78344911736166     -1.24082214729749     -0.43779092310638
  C   -0.22096493785591      1.49073885138683      0.48397370776756
  N   -0.44428985859647      2.44104824537945      1.13610910777603
