11
Coordinates from ORCA-job run
  C   -0.84685317264716     -0.87995216497066      0.09692863169413
  C   -0.01152166382604      0.34624955134507     -0.24153061782763
  Br  -2.70844876406734     -0.37137298344156      0.23203265966553
  H   -0.34467053691869      0.78169130334407     -1.18910005580568
  H   -0.54038073955135     -1.30586344660969      1.05137109243009
  H   -0.75781661567309     -1.62092552029300     -0.69196878181294
  N   1.44057446095559     -0.06295618817220     -0.49430881220848
  O   2.29978311271611      0.78108082751985     -0.28631234892548
  O   1.61172129197362     -1.19023419848060     -0.94364592833632
  C   -0.04239421501012      1.36192498726666      0.80434827837757
  N   -0.09999315795155      2.16135783249206      1.66218588274921
