11
Coordinates from ORCA-job run
  C   -0.98308355751062     -0.72179876691227      0.08604920372282
  C   -0.01595302797330      0.38984235898059     -0.28601342981667
  Br  -0.82631718178779     -2.19481523476215     -1.15558387264111
  H   -0.13406605366300      0.70155129260764     -1.32484302205388
  H   -2.00579370793667     -0.34976491638549      0.03816506596924
  H   -0.75882196518984     -1.09078110681100      1.08515153014133
  N   1.41044835814579     -0.11067134673006     -0.16643691525700
  O   1.71157456368349     -0.62809133798638      0.90154050571882
  O   2.12967517309665      0.04910269666407     -1.14423594981905
  C   -0.17800877563372      1.52618758655981      0.61759049951698
  N   -0.34965382523098      2.42923877477524      1.34861638451852
