11
Coordinates from ORCA-job run
  C   -1.00723429306120     -0.60263032029676      0.34449677185627
  C   0.00310596247719      0.23148822005855     -0.42525349366392
  Br  -0.85975875973788     -2.46531060308766     -0.15145570155353
  H   -0.07498443284280      0.07507927065222     -1.50209332509078
  H   -2.01667846198308     -0.27065797081959      0.10511069567958
  H   -0.82194479407506     -0.51786645712816      1.41358556458787
  N   1.41036293672109     -0.19142557368017     -0.04923967912985
  O   1.66266716865406     -0.21910556215206      1.14834753998889
  O   2.16466418237508     -0.46232139416699     -0.97472308990969
  C   -0.15022878194100      1.64599676885537     -0.09332932881989
  N   -0.30897072658635      2.77575362176526      0.18555404605504
