11
Coordinates from ORCA-job run
  C   -0.78619055357076     -0.85508644655598      0.32002024672230
  C   -0.01224028657172      0.25548521308676     -0.37997220008770
  Br  -2.68347851007239     -0.57787385796173      0.08787447933260
  H   -0.25222303344933      0.29537325110550     -1.44314856710035
  H   -0.56517631565082     -0.85824043135962      1.38540117025586
  H   -0.53084651177701     -1.81613036349874     -0.12636867893632
  N   1.45899559645461     -0.10421091369082     -0.29761384644819
  O   2.01801997651441     -0.36704068486623     -1.35607634968974
  O   1.94466876074228     -0.14116169979914      0.82680486037761
  C   -0.21220382247328      1.55941208190874      0.24214106061074
  N   -0.37932530014599      2.60947385163126      0.73993782496319
