11
Coordinates from ORCA-job run
  C   -1.01148747855566     -0.63657402704749      0.25607635727897
  C   0.01052060942248      0.28029798057991     -0.39534484786531
  Br  -0.85662055907953     -2.42855948551274     -0.45223363691821
  H   -0.05199983238954      0.25190641597916     -1.48413643507209
  H   -0.84226552785659     -0.67773492173079      1.33041476515034
  H   -2.01722651651240     -0.27690838907740      0.04251481734416
  N   1.41149015199969     -0.18728504594143     -0.05088657665731
  O   1.64709344834165     -0.35060743653417      1.13931899070267
  O   2.17778623960417     -0.35560911437538     -0.99072456953515
  C   -0.14824347970528      1.64609146091695      0.09839393159938
  N   -0.31904705526900      2.73398256274336      0.50660720397252
