16

C	-0.188911	0.087986	-1.50396
C	0.0	0.0	0.0
Br	-2.09633	0.673969	-2.031102
H	1.099841	0.0	0.0
N	0.743359	1.045178	-1.984972
H	0.860264	0.977345	-2.98954
H	1.646517	0.859782	-1.495152
C	-0.083772	-1.227361	-2.150511
N	0.051497	-2.240415	-2.734021
C	-0.55527	-1.196844	0.592465
N	-1.007657	-2.146159	1.120052
C	-0.409295	1.262159	0.751208
H	-0.053019	2.131229	0.19719
H	0.074019	1.255625	1.731617
H	-1.491984	1.329524	0.876883
H	2.626903	0.0	0.0
