16

C	-0.231141	0.140037	-1.497301
C	0.0	0.0	0.0
Br	-2.150441	0.624296	-1.929519
H	1.109432	0.0	0.0
N	0.623107	1.13253	-2.106681
H	0.350135	2.043901	-1.754126
H	1.562962	0.932089	-1.722014
C	-0.010554	-1.141716	-2.177417
N	0.178539	-2.16249	-2.728948
C	-0.549661	-1.214425	0.562395
N	-0.986036	-2.18631	1.062827
C	-0.382437	1.218808	0.830137
H	0.007248	1.0806	1.84162
H	-1.462673	1.374353	0.874486
H	0.099065	2.111107	0.42415
H	2.618883	0.0	0.0
