16

C	-0.197906	0.070569	-1.51351
C	0.0	0.0	0.0
Br	-2.070755	0.648164	-2.013851
H	1.099779	0.0	0.0
N	0.732858	0.970521	-2.153172
H	1.649547	0.739285	-1.722803
H	0.512085	1.916494	-1.859639
C	-0.045994	-1.258443	-2.117515
N	0.085086	-2.319637	-2.606142
C	-0.568428	-1.180644	0.613375
N	-1.027732	-2.120249	1.152993
C	-0.38971	1.262403	0.758722
H	0.022669	1.197807	1.76864
H	0.061894	2.135825	0.283997
H	-1.471526	1.39918	0.813923
H	2.641688	0.0	0.0
