16

C	-0.507231	-0.122721	-1.440939
C	0.0	0.0	0.0
Br	0.214371	-1.79057	-2.218281
H	1.107968	0.0	0.0
N	-1.949569	-0.175216	-1.644687
H	-2.343441	0.696809	-1.301958
H	-2.31467	-0.930116	-1.070505
C	0.014962	0.98317	-2.252638
N	0.367268	1.902321	-2.894928
C	-0.543486	-1.088472	0.785719
N	-1.023391	-1.949105	1.430934
C	-0.361988	1.348848	0.62682
H	-1.439675	1.525522	0.713171
H	0.078346	1.383066	1.626362
H	0.100159	2.151051	0.046378
H	2.628562	0.0	0.0
