16

C	-0.186343	0.319024	-1.480271
C	0.0	0.0	0.0
Br	-2.085083	0.881377	-1.911185
H	1.108972	0.0	0.0
N	0.703622	1.355624	-1.944253
H	1.628359	1.090716	-1.55493
H	0.438117	2.226517	-1.496553
C	0.039038	-0.88374	-2.290115
N	0.231933	-1.853456	-2.924003
C	-0.565213	-1.271972	0.390211
N	-1.019261	-2.301869	0.733189
C	-0.400898	1.11418	0.956356
H	-0.032507	0.863423	1.954728
H	0.083867	2.047929	0.663276
H	-1.482567	1.262658	0.995118
H	2.623215	0.0	0.0
