15
Coordinates from ORCA-job run
  C   -0.49228008136854      0.04628348719557     -0.40708442193983
  C   1.01113060907356      0.38531642510265     -0.33333852171917
  F   -0.81209062245030     -0.03673760134560     -1.73125827589750
  H   1.15475756710975      1.29111668739874     -0.93353864400495
  N   -1.22086570766266      1.29075394379920      0.10973456564581
  O   -2.03517504773773      1.14703639329696      1.01384455459981
  O   -0.92461215831389      2.33887038649567     -0.45528502199561
  C   -0.91562474586821     -1.19244482041767      0.32071278351369
  H   -1.99086459622264     -1.32631278336939      0.21018952416053
  H   -0.67784661822063     -1.12552355276811      1.38179766946772
  H   -0.40025493573354     -2.04763502203072     -0.11949926283741
  C   1.79874770478141     -0.70809519061985     -0.90504451298907
  N   2.41332218197016     -1.59431872552690     -1.36880505758335
  C   1.40438806233458      0.65739857611933      1.05038833990345
  N   1.68626838830868      0.87529179667009      2.16918628167590
