15
Coordinates from ORCA-job run
  C   -0.38355843526464      0.05307298341140     -0.33720350880605
  C   1.00214767635487      0.09981241170863      0.33815770968288
  F   -0.22705419856090      0.22500810346245     -1.66936066974913
  H   0.84765745207339      0.06332251040042      1.42170398812865
  N   -1.15584099603348      1.25671774254906      0.19793589659695
  O   -1.65490617629990      2.01855500973096     -0.61429188621940
  O   -1.22147804013616      1.31964858373230      1.42224508214593
  C   -1.17879615369785     -1.19341365151736     -0.05180103101885
  H   -2.15204933602188     -1.10507389768967     -0.53814784403677
  H   -0.65776463318855     -2.05767403655372     -0.46571354195379
  H   -1.32106734531460     -1.32360866883268      1.02080978879040
  C   1.68939450772305      1.35183326333117      0.00628391721041
  N   2.22135770573062      2.36646440310888     -0.24969348366211
  C   1.79353792104074     -1.06013906719945     -0.07790952984299
  N   2.39742005159528     -2.01252568964238     -0.40401488726611
