15
Coordinates from ORCA-job run
  C   -0.48653105190329      0.04583234322240     -0.41473520723759
  C   1.01527398895888      0.38565308199585     -0.31943440813625
  F   -0.78782956696777     -0.03724471983975     -1.74306480203678
  H   1.16795537847641      1.29186920566561     -0.91689936121082
  N   -1.22305595916279      1.29010646853264      0.09184601348722
  O   -0.91975010244400      2.33820498311551     -0.46945205360597
  O   -2.04984662523406      1.14629522275979      0.98450384929604
  C   -0.91948815244687     -1.19296330468999      0.30722719458129
  H   -0.69875380281244     -1.12485098422269      1.37192233200193
  H   -0.39600697352252     -2.04775562094063     -0.12422533474984
  H   -1.99270394992294     -1.32840938336118      0.17953776583922
  C   1.81229150566814     -0.70724804491961     -0.87897529697805
  N   2.43496903683387     -1.59328020842528     -1.33213514880335
  C   1.38834031831021      0.65776221432080      1.07012547726606
  N   1.65513595616917      0.87502874678651      2.19275898028688
