15
Coordinates from ORCA-job run
  C   -0.40817087850666      0.04580160006364     -0.30681181621589
  C   1.01428492555912      0.15588093875487      0.27949639611213
  F   -0.35893630443005      0.32119579893172     -1.62959206048430
  H   0.93808453225690      0.03833353665726      1.36547610376068
  N   -1.22873334659680      1.14468516757307      0.36501607990495
  O   -1.84258607103261      1.91545415789448     -0.35482208197206
  O   -1.20994729895307      1.12053035208969      1.59223634578059
  C   -1.08623256026031     -1.27645976965378     -0.06361647707706
  H   -2.09725751935185     -1.23104608057361     -0.47314808844728
  H   -1.13802123596005     -1.49312158896744      1.00334953508226
  H   -0.53509925353092     -2.06526804183500     -0.57730259047315
  C   1.58185081600641      1.47697798412801     -0.00875486874297
  N   2.01125478978571      2.54792423707043     -0.22464368654030
  C   1.85738672349315     -0.90944930400887     -0.26718849898805
  N   2.50412268152103     -1.78943898812446     -0.69769429169956
