15
Coordinates from ORCA-job run
  C   -0.49170940756788      0.03185529921843     -0.40918796757727
  C   0.99697988962880      0.42823134356000     -0.32417862442109
  F   -0.80281847336363     -0.04680623628876     -1.73568548357379
  H   1.10798484438480      1.34608067311578     -0.91290246181746
  N   -1.27054703872705      1.24041691064934      0.11960458530064
  O   -1.01206803087651      2.30645014026225     -0.43032547559373
  O   -2.08406711929260      1.05360910962693      1.01649816729616
  C   -0.86941131856653     -1.23152141342292      0.30114500800429
  H   -0.64180459105613     -1.16772897491379      1.36470418121123
  H   -0.31708963196729     -2.05998364174659     -0.14536077358299
  H   -1.93769055470065     -1.40711766243155      0.18116523851412
  C   1.82951928489845     -0.62689799345352     -0.90396922039454
  N   2.48078519887254     -1.48345230206679     -1.37333035246287
  C   1.37244825300040      0.69959829147170      1.06469272918014
  N   1.64048869533329      0.91626645641949      2.18713044991715
