15
Coordinates from ORCA-job run
  C   0.42744914044374     -0.21078654715332     -0.22256568266206
  C   -0.86334260945123      0.58035287644837      0.04473519456314
  F   0.23881566707308     -0.74657013218317     -1.50167638744096
  H   -0.88894228042564      0.93549839461266      1.07539929238249
  H   -0.96701636803475      1.40167475840873     -0.66141384709436
  N   0.70404684621426     -1.29094069151723      0.66196119150481
  H   -0.13803494008191     -1.76702417382170      0.95672004001259
  H   1.23752155435022     -0.99438676861848      1.46575423153520
  C   1.60844982280020      0.73509732086905     -0.28848182312247
  H   1.73559318378090      1.28010671243336      0.65011497400966
  H   2.50705789580449      0.14990878700902     -0.48792381901011
  H   1.46993948294070      1.45107947174415     -1.09884233536304
  N   -2.05896644914390     -0.28445565366339     -0.15112498711313
  O   -2.79943727731052     -0.03143587187213     -1.09503413923428
  O   -2.21313366895964     -1.20711848269592      0.65137809703253
