15
Coordinates from ORCA-job run
  C   0.43076329135467     -0.29387607493816     -0.11934491470302
  C   -1.06495106998731     -0.34597470478447      0.18273248237100
  F   0.53754453019043     -0.29882901055358     -1.52919839568369
  H   -1.24268402563586     -0.17686007670289      1.24314471304259
  H   -1.47787370444095     -1.30094071990641     -0.13949420986916
  N   1.00545951215774     -1.46088600150341      0.45069387909446
  H   0.66135965761559     -2.29449693800323     -0.01041487070705
  H   2.01447536961092     -1.43969309086634      0.37507956843386
  C   1.13619119943049      0.94969664679522      0.37115094639550
  H   2.18887245940866      0.89294606193142      0.08433371425094
  H   1.06377089997478      1.02565299440254      1.45635759097744
  H   0.70232419269024      1.83928997350158     -0.07981526621119
  N   -1.80385834259291      0.70193284139204     -0.57161000928172
  O   -1.73747074612311      1.85008351270611     -0.13326303799352
  O   -2.41292322365340      0.35195458652958     -1.57835219011643
