15
Coordinates from ORCA-job run
  C   0.46124360345254     -0.16994738783339     -0.18753568790136
  C   -0.91227183439416      0.50124820675069     -0.02499272923694
  F   0.42598315619802     -0.70831292525598     -1.47866095641962
  H   -1.03130137556040      1.31640400631400     -0.73582744479117
  H   -1.05212509764287      0.84358119675486      1.00081570478092
  N   0.75963863247842     -1.22959063768579      0.71476461695713
  H   -0.05803996764817     -1.78152442618578      0.93708323981342
  H   1.19625219672210     -0.89438471624256      1.56070185950794
  C   1.55495422116713      0.87730201863425     -0.15417968894532
  H   1.55775026912778      1.42102560151523      0.79368802593699
  H   1.41905160146023      1.58693647345032     -0.97055711267689
  H   2.51500282137090      0.37566912366362     -0.28228869545419
  N   -2.00616287070215     -0.46422631678342     -0.31922966774198
  O   -2.14201760110650     -1.40406823163980      0.46652440573075
  O   -2.68695775492289     -0.27011198545625     -1.32030586955970
