15
Coordinates from ORCA-job run
  C   0.43153630732165     -0.14951612090783     -0.08128617404549
  C   -0.91823674148566      0.55685620157541      0.00077671164100
  F   0.37462841730280     -0.91389597248484     -1.27784063365730
  H   -1.00704088032222      1.30810546137670     -0.78022996789936
  H   -1.05952832702979      0.99232444292595      0.99012143396031
  N   0.66755895405063     -0.95904246997118      1.05352451605505
  H   -0.08821936163958     -1.61630235542591      1.19768547381151
  H   1.54345708665677     -1.45621303602486      0.95674556373425
  C   1.54695041232759      0.85697662452068     -0.26846571403725
  H   1.58087060127709      1.55114127159601      0.57203366776445
  H   1.40622440895283      1.40823598797506     -1.19881848315167
  H   2.50275184136221      0.33136691936945     -0.32465071627587
  N   -2.04331614975953     -0.39669658125216     -0.22622086849764
  O   -2.79792197800341     -0.16921688037358     -1.16547176965009
  O   -2.14071459101139     -1.34412349289893      0.55309696024811
