13

C	0.0	0.0	0.0
C	-0.580953	0.177092	-1.395409
Cl	1.770392	0.0	0.0
H	-0.50729	-0.780191	-1.919212
H	-1.660899	0.368293	-1.231286
N	-0.40021	1.167473	0.917278
O	-0.41697	0.928867	2.114874
O	-0.575504	2.241963	0.365603
C	-0.438541	-1.256928	0.601673
N	-0.625798	-2.333776	1.032962
C	0.038092	1.217391	-2.201132
N	0.466994	2.021985	-2.942465
Cl	-3.397115	0.0	0.0
