13

C	0.0	0.0	0.0
C	-0.552175	0.118396	-1.41786
Cl	1.75654	0.0	0.0
H	-0.446908	-0.85989	-1.896508
H	-1.633553	0.313268	-1.298421
N	-0.414343	1.210842	0.852694
O	-0.574997	2.259265	0.248967
O	-0.453872	1.032692	2.059979
C	-0.452059	-1.224272	0.656576
N	-0.630655	-2.273243	1.156652
C	0.114013	1.120103	-2.237883
N	0.63155	1.886271	-2.962052
Cl	-3.351199	0.0	0.0
