13

C	0.0	0.0	0.0
C	-0.561918	0.290136	-1.384876
Cl	1.770207	0.0	0.0
H	-0.448403	-0.61503	-1.987291
H	-1.64651	0.447073	-1.22858
N	-0.406568	1.094099	1.003392
O	-0.392436	0.772604	2.180794
O	-0.616646	2.200354	0.534861
C	-0.44356	-1.296685	0.505804
N	-0.618812	-2.399598	0.872923
C	0.071004	1.404612	-2.074204
N	0.550948	2.269643	-2.706814
Cl	-3.372574	0.0	0.0
