13

C	0.0	0.0	0.0
C	-0.461514	0.019898	-1.492587
Br	1.94288	0.0	0.0
H	0.434262	0.01216	-2.122407
H	-0.334046	-0.901556	0.502684
C	-0.429224	1.161197	0.773875
N	-0.602647	2.080994	1.484272
N	-1.211922	1.223665	-1.794009
H	-2.052715	1.076266	-1.205285
H	-1.46645	1.201727	-2.776359
C	-1.16489	-1.24708	-1.792068
N	-1.59035	-2.259008	-2.213289
F	-2.465827	0.0	0.0
