13

C	0.0	0.0	0.0
C	-0.573145	-0.054055	-1.424995
Br	1.947963	0.0	0.0
H	-1.668719	0.140103	-1.133429
H	-0.359648	-0.873164	0.53796
C	-0.407854	1.209927	0.714568
N	-0.587804	2.212205	1.300566
N	-0.498348	-1.36671	-2.042144
H	0.41465	-1.785439	-1.891978
H	-1.203309	-1.936287	-1.587203
C	-0.009747	0.974537	-2.287679
N	0.415918	1.809478	-2.998218
F	-2.636653	0.0	0.0
