13

C	0.0	0.0	0.0
C	-0.457727	-0.070644	-1.493153
Br	1.946872	0.0	0.0
H	0.440735	-0.105781	-2.118394
H	-0.336063	-0.867794	0.557392
C	-0.425563	1.210239	0.696461
N	-0.578571	2.181671	1.339564
N	-1.215334	1.108828	-1.865106
H	-1.469312	1.028161	-2.844015
H	-2.054289	0.991358	-1.266901
C	-1.148814	-1.359929	-1.716921
N	-1.570612	-2.412084	-2.028715
F	-2.464664	0.0	0.0
