13

C	0.0	0.0	0.0
C	-0.554252	0.02717	-1.414796
Br	1.949464	0.0	0.0
H	-1.679763	0.025973	-1.08597
H	-0.341118	-0.925187	0.456587
C	-0.425527	1.149965	0.794826
N	-0.601288	2.113086	1.443955
N	-0.18331	-1.198523	-2.111317
H	-0.836549	-1.353679	-2.86888
H	0.746266	-1.113078	-2.510769
C	-0.182436	1.243805	-2.132735
N	0.118566	2.168728	-2.796466
F	-2.638214	0.0	0.0
