13

C	0.0	0.0	0.0
C	-0.431505	-0.038644	-1.476056
Br	1.954945	0.0	0.0
H	0.011902	-0.961316	-1.884622
H	-0.330367	-0.887473	0.529706
C	-0.403846	1.209517	0.710417
N	-0.578283	2.198158	1.3197
N	0.050745	1.158224	-2.169974
H	-0.557153	1.301843	-2.966458
H	0.992849	1.008499	-2.507794
C	-1.906654	-0.133834	-1.709557
N	-2.65522	-0.238473	-2.630158
F	-2.435999	0.0	0.0
