19

C	-0.483508	0.00115	-1.443746
C	0.0	0.0	0.0
F	0.02073	-1.131513	-2.103408
H	1.097167	0.0	0.0
C	-1.996902	-0.056773	-1.619569
H	-2.477504	0.817636	-1.178033
H	-2.374243	-0.959955	-1.139692
H	-2.237873	-0.094594	-2.685725
C	0.033434	1.182111	-2.171399
N	0.399567	2.155163	-2.718098
C	-0.432244	-1.263198	0.732733
H	0.165221	-1.344557	1.644888
H	-0.2272	-2.151069	0.131536
H	-1.492911	-1.260756	1.016243
C	-0.429421	1.256621	0.745168
H	-0.114065	2.163132	0.22222
H	0.070572	1.263626	1.717813
H	-1.511731	1.304891	0.920771
H	2.928853	0.0	0.0
