17

C	-0.105762	-0.038878	-1.510555
C	0.0	0.0	0.0
F	-1.423659	-0.296657	-1.973418
H	1.096387	0.0	0.0
H	-0.365952	-0.959278	0.378848
C	0.325178	1.282844	-2.128221
H	1.335724	1.475384	-1.757305
H	0.338217	1.193166	-3.220252
H	-0.341463	2.106189	-1.858165
N	0.742363	-1.135947	-1.929079
H	0.943709	-1.038842	-2.919595
H	1.624122	-0.993046	-1.413939
C	-0.645306	1.18008	0.700792
H	-0.12128	2.112362	0.476133
H	-1.70011	1.301228	0.424338
H	-0.598312	1.044489	1.78607
F	2.767723	0.0	0.0
