17

C	-0.186109	-0.064904	-1.524124
C	0.0	0.0	0.0
F	-0.260558	-1.445114	-1.84646
H	1.092925	0.0	0.0
H	-0.441264	-0.878435	0.477782
C	-1.458246	0.537055	-2.093549
H	-2.332531	0.054237	-1.651005
H	-1.469604	0.374121	-3.173783
H	-1.515751	1.609822	-1.89274
N	0.97876	0.450731	-2.204666
H	0.866905	1.4471	-2.347877
H	1.796349	0.311557	-1.5771
C	-0.474644	1.303288	0.626798
H	0.006066	2.153087	0.130855
H	-1.561133	1.449665	0.583599
H	-0.170357	1.343233	1.676757
F	2.780972	0.0	0.0
