14

C	-0.214381	-0.127479	-1.497904
C	0.0	0.0	0.0
F	-1.497724	-0.619283	-1.826396
H	1.102851	0.0	0.0
H	-0.202518	0.888716	-1.913586
N	0.787652	-1.013122	-2.005981
H	0.952304	-0.842644	-2.988472
H	1.65471	-0.819865	-1.480595
C	-0.482063	-1.179591	0.715044
N	-0.910597	-2.055535	1.371918
N	-0.505675	1.256363	0.549993
H	0.108808	1.52407	1.30909
H	-1.434417	1.129243	0.934537
F	2.642224	0.0	0.0
