14

C	-0.235238	0.212004	-1.499104
C	0.0	0.0	0.0
F	-0.230146	-1.074776	-2.124086
H	1.095554	0.0	0.0
H	-1.224142	0.622035	-1.736467
N	0.813685	1.032471	-1.958931
H	1.690287	0.721589	-1.517162
H	0.869833	1.039414	-2.96768
C	-0.55869	-1.250821	0.490523
N	-1.045179	-2.211558	0.963579
N	-0.449435	1.164593	0.769445
H	0.307552	1.420192	1.390298
H	-1.259528	0.937028	1.332834
F	2.648128	0.0	0.0
