14

C	-0.156302	0.104878	-1.529529
C	0.0	0.0	0.0
F	-0.073683	-1.204508	-2.078775
H	1.097844	0.0	0.0
H	-1.140987	0.470571	-1.857632
N	0.893441	0.946064	-1.967666
H	1.004085	0.901139	-2.971075
H	1.759106	0.665298	-1.471179
C	-0.623907	-1.193862	0.543425
N	-1.163611	-2.141991	0.980406
N	-0.442162	1.194093	0.71765
H	-1.361332	1.478063	0.386469
H	0.213445	1.927275	0.474389
F	2.662288	0.0	0.0
