14

C	-0.128895	-0.046854	-1.518136
C	0.0	0.0	0.0
F	-1.424318	-0.38562	-1.955684
H	1.096981	0.0	0.0
H	0.013222	0.982638	-1.885776
N	0.821032	-0.992921	-2.010073
H	1.005474	-0.828377	-2.991219
H	1.686138	-0.835596	-1.468854
C	-0.530888	-1.212707	0.610391
N	-0.973741	-2.1701	1.127705
N	-0.535259	1.189769	0.650858
H	-1.379045	1.49614	0.17971
H	0.162929	1.918471	0.5737
F	2.643765	0.0	0.0
