14

C	-0.24233	0.065448	-1.515701
C	0.0	0.0	0.0
F	-0.3037	-1.240377	-2.011715
H	1.094076	0.0	0.0
H	-1.199497	0.546215	-1.75142
N	0.835514	0.756194	-2.161683
H	1.688665	0.554152	-1.617065
H	0.655819	1.750416	-2.088311
C	-0.611652	-1.137303	0.666225
N	-1.154157	-1.998624	1.256927
N	-0.384764	1.293489	0.586464
H	0.333009	1.541504	1.257379
H	-1.268801	1.222325	1.079943
F	2.637604	0.0	0.0
