14

C	-0.176654	-0.081185	-1.502709
C	0.0	0.0	0.0
F	-1.47357	-0.461359	-1.897566
H	1.095858	0.0	0.0
H	-0.058247	0.938761	-1.889526
N	0.771709	-1.036281	-1.99146
H	1.648821	-0.856665	-1.482094
H	0.928884	-0.899924	-2.981745
C	-0.484498	-1.207112	0.665217
N	-0.873879	-2.135894	1.273037
N	-0.523639	1.234197	0.578291
H	0.064503	1.4799	1.362601
H	-1.464086	1.098201	0.924854
F	2.630468	0.0	0.0
