13

C	-0.56372	-0.044357	-1.422451
C	0.0	0.0	0.0
Br	0.225707	-1.520457	-2.442732
H	1.094142	0.0	0.0
H	-1.630818	-0.277821	-1.392429
C	-0.365419	1.194659	-2.167651
N	-0.227439	2.179095	-2.794554
N	-0.376277	-1.217666	0.717859
H	0.486164	-1.584744	1.11469
H	-1.017203	-1.017461	1.473894
C	-0.478512	1.205725	0.661198
N	-0.880344	2.157098	1.227183
H	2.627359	0.0	0.0
