13

C	-0.555992	-0.047949	-1.425217
C	0.0	0.0	0.0
Br	0.231471	-1.533426	-2.434485
H	1.094099	0.0	0.0
H	-1.624248	-0.275558	-1.400602
C	-0.349316	1.18508	-2.17775
N	-0.207656	2.160401	-2.818382
N	-0.382997	-1.211291	0.721669
H	-1.057817	-1.016962	1.447636
H	0.467049	-1.563223	1.153621
C	-0.476539	1.212746	0.652123
N	-0.878822	2.168623	1.20999
H	2.629138	0.0	0.0
