13

C	-0.559466	-0.038284	-1.424682
C	0.0	0.0	0.0
Br	0.217596	-1.523849	-2.440745
H	1.094144	0.0	0.0
H	-1.629456	-0.258481	-1.400842
C	-0.344274	1.198645	-2.167872
N	-0.230054	2.197804	-2.775871
N	-0.381029	-1.21778	0.714743
H	0.478107	-1.586047	1.11528
H	-1.028831	-1.020116	1.466493
C	-0.477487	1.205184	0.662452
N	-0.880012	2.15507	1.230288
H	2.630156	0.0	0.0
