13

C	-0.310115	0.045866	-1.489437
C	0.0	0.0	0.0
Br	-2.252242	0.177896	-1.892361
H	1.098205	0.0	0.0
H	0.136973	0.936894	-1.937683
C	0.177195	-1.14787	-2.170638
N	0.551765	-2.105985	-2.738509
N	-0.399947	-1.195684	0.705738
H	-1.260348	-1.588584	0.344121
H	0.354827	-1.868568	0.620985
C	-0.488926	1.20981	0.646177
N	-0.850167	2.204047	1.160106
H	2.607432	0.0	0.0
