13

C	-0.304587	0.005123	-1.491481
C	0.0	0.0	0.0
Br	-2.242617	0.128635	-1.907016
H	1.097719	0.0	0.0
H	0.147452	0.882348	-1.960174
C	0.18455	-1.20801	-2.135537
N	0.546894	-2.189884	-2.669673
N	-0.40159	-1.175557	0.737474
H	0.352682	-1.849842	0.672741
H	-1.260569	-1.578806	0.386423
C	-0.490562	1.226967	0.611274
N	-0.850453	2.234777	1.099207
H	2.608685	0.0	0.0
