13

C	-0.477975	-0.023466	-1.460579
C	0.0	0.0	0.0
Br	0.212471	-1.601488	-2.407559
H	1.095192	0.0	0.0
H	-1.565317	-0.136714	-1.514292
C	-0.105551	1.171124	-2.211127
N	0.163441	2.119511	-2.850827
N	-0.37005	-1.1695	0.774682
H	0.428059	-1.797807	0.747195
H	-1.181322	-1.646033	0.400113
C	-0.52726	1.216034	0.610893
N	-0.949951	2.197705	1.103677
H	2.629742	0.0	0.0
