13

C	-0.471554	0.007901	-1.464697
C	0.0	0.0	0.0
Br	0.167273	-1.583778	-2.423275
H	1.095231	0.0	0.0
H	-1.561844	-0.066723	-1.524363
C	-0.059623	1.193133	-2.209755
N	0.224202	2.121021	-2.872324
N	-0.391708	-1.169085	0.759099
H	0.35231	-1.851158	0.659807
H	-1.263217	-1.569455	0.438671
C	-0.510579	1.216371	0.623049
N	-0.917871	2.199616	1.125469
H	2.638892	0.0	0.0
