13

C 0.711362 -0.488184 -0.105819
H 1.915194 1.175941 0.324853
Br -1.903653 -0.719047 -0.068269
Cl 2.995179 -1.069608 -0.27108
C 0.844646 0.951259 0.367578
H 0.592956 -0.717637 -1.145318
H 0.62528 -1.277804 0.611535
C 0.391686 1.161782 1.823541
H -0.673596 0.96296 1.930509
H 0.948935 0.478884 2.469626
H 0.603937 2.185186 2.143846
C 0.219893 1.920976 -0.541014
N -0.186915 2.752496 -1.229001
