10

C -1.004259 -0.015641 -0.138253
H 0.15706 -0.880428 1.416189
F -1.095136 1.804887 -0.199755
F -1.007749 -1.846427 -0.193598
C 0.189278 0.013332 0.790824
H -0.88969 -0.014109 -1.203173
H -1.985021 -0.039583 0.295279
H 0.128922 0.916114 1.40059
C 1.473158 0.02504 0.098344
N 2.509377 0.036497 -0.4106
