13

C 0.32846 -1.10805 -0.272945
H 1.975936 -0.023449 -0.990524
Br -1.840935 -0.30814 0.144602
F 2.066228 -2.215059 -0.475279
C 1.327777 0.022224 -0.111916
H 0.086801 -1.440747 -1.263356
H 0.235633 -1.794351 0.542228
N 2.004671 -0.12109 1.150609
H 2.741955 0.572523 1.230163
H 2.433672 -1.0427 1.032819
N 0.741955 1.448671 -0.249203
O 0.808493 2.212868 0.697602
O 0.341364 1.746014 -1.364549
