13

C -0.154481 -1.098461 0.44779
H 1.342695 0.014176 1.503612
Br -2.178767 -0.272411 -0.224617
F 1.547764 -2.069188 1.054548
C 0.862942 0.004681 0.538017
H -0.05395 -1.765008 -0.384337
H -0.518492 -1.485571 1.377389
N 0.348847 1.454907 0.340915
O 0.444803 1.976992 -0.752183
O -0.088517 1.976234 1.351698
N 1.976489 -0.158328 -0.488519
O 3.032908 0.377013 -0.187886
O 1.739381 -0.720224 -1.53758
