15

C 0.071663 -0.754548 -0.149671
H 1.714635 0.347602 -0.402386
Cl -1.989434 -0.552674 0.115622
F 2.203391 -1.537234 -0.201553
C 0.694315 0.621905 -0.105434
H 0.071573 -1.246354 -1.108015
H 0.298087 -1.414244 0.665357
C 0.754766 1.178168 1.317956
H -0.243873 1.300349 1.750652
H 1.329121 0.491398 1.945514
H 1.256678 2.15326 1.340328
C 0.097857 1.617177 -1.104015
H 0.066442 1.193108 -2.113474
H -0.923412 1.902432 -0.835762
H 0.708993 2.526795 -1.146821
