12

C -0.177814 -0.299431 0.04149
H -1.029201 1.489433 0.739664
Br 2.325874 -0.922668 -0.146482
Br -2.734023 -0.448168 -0.092678
C -0.018983 1.126416 0.533009
H -0.243293 -1.079595 0.774147
H -0.206396 -0.535281 -1.002162
C 0.518002 2.028585 -0.516004
N 0.904211 2.826253 -1.255176
N 0.720847 1.177421 1.794575
H 0.807486 2.142058 2.09831
H 1.653986 0.803509 1.633905
