16

C -0.138764 -0.036462 -0.629822
H 0.788854 -1.937101 -0.462025
Cl 0.279541 1.916813 0.331972
H -1.078984 -1.255554 -1.219454
C 1.05012 -0.910221 -0.188484
H -0.193402 0.428105 -1.602608
N -1.475445 -0.503147 -0.245548
O -1.545896 -1.231003 0.823494
O -2.473235 0.179102 -0.646584
N 1.298365 -0.939288 1.253901
H 0.400077 -1.20428 1.661545
H 1.443028 0.022978 1.552993
C 2.316764 -0.525441 -0.953313
H 2.176628 -0.619115 -2.035695
H 2.601328 0.506568 -0.736489
H 3.134165 -1.182425 -0.645833
