15

C 0.164358 0.120409 -0.280568
H -0.979712 0.792873 1.340664
Cl 0.547957 -2.197727 -0.944789
Cl 0.009852 2.475916 -0.372569
C -1.026647 -0.057533 0.65751
H 0.12962 0.18725 -1.344977
N 1.524848 0.201321 0.312627
O 1.599486 0.128785 1.535309
O 2.458625 0.348954 -0.446894
C -1.103276 -1.330506 1.534403
H -1.333558 -2.212815 0.944707
H -0.153432 -1.480413 2.041212
H -1.886368 -1.175279 2.282632
C -2.270185 0.083913 -0.108599
N -3.283372 0.147185 -0.654478
