12

C 0.636364 -0.12721 -0.358465
H 1.392494 1.842216 -0.656184
Br -1.908098 -0.731866 -0.345741
Cl 2.910597 -0.206281 -0.86802
C 0.433059 1.327667 -0.731104
H 0.546751 -0.953152 -1.026973
H 0.141148 1.337353 -1.783392
N 0.830108 -0.492804 1.063388
O 0.896499 0.432913 1.861665
O 0.94148 -1.675051 1.326067
C -0.534374 2.128285 0.022667
N -1.214573 2.901419 0.53995
