13

C 0.462556 0.171601 -0.126228
H 1.442298 1.508111 1.178635
Br -2.045259 -0.124877 -0.26902
Cl 2.908353 0.302335 -0.6478
C 0.422288 1.3197 0.844609
H 0.435877 0.255298 -1.192075
H -0.155253 0.997425 1.717983
N 0.675075 -1.198956 0.395363
O 0.817943 -1.311722 1.60812
O 0.686069 -2.11459 -0.406066
N -0.086364 2.516392 0.174538
H 0.040751 3.31399 0.788084
H -1.08377 2.396831 0.019659
