15

C -0.343306 -0.173514 -0.192902
H 0.264842 1.543276 0.838118
Cl -2.631816 -0.723037 -0.991706
Br 2.297934 0.070708 -0.245057
C -0.693165 1.135982 0.508989
H -0.13807 -0.171682 -1.244294
C -0.23858 -1.396383 0.53619
N -0.191197 -2.35922 1.174823
C -1.570481 0.943299 1.759162
H -2.551979 0.551966 1.488466
H -1.109647 0.25813 2.476186
H -1.697937 1.911477 2.255707
N -1.221424 2.069704 -0.486545
H -1.374513 2.971158 -0.045202
H -2.117973 1.722827 -0.81956
