13

C 0.756076 -0.477241 -0.24471
H 1.548298 1.191486 0.815637
Br -1.852197 -0.803945 -0.590774
Cl 3.056492 -0.244076 -0.55569
C 0.558656 0.793832 0.570702
H 0.661774 -0.415464 -1.309863
C 0.8382 -1.741044 0.409706
N 0.955188 -2.749531 0.960538
C -0.177787 0.659995 1.821818
N -0.640097 0.585362 2.873689
N -0.034973 1.92949 -0.299281
O -0.636225 2.802774 0.294595
O 0.24182 1.914833 -1.478554
