12

C -0.016869 -0.032201 0.218876
H 0.156387 1.519421 -1.269004
F 1.837094 -1.027115 0.66178
Cl -1.947864 0.874697 0.221116
C 0.803592 0.797967 -0.766503
H 0.16742 0.134029 1.262842
H 1.193935 0.100136 -1.519251
C -0.37452 -1.378749 -0.153002
N -0.743911 -2.415682 -0.503474
N 1.851814 1.501425 -0.024482
H 2.460942 1.971563 -0.689631
H 2.372629 0.726739 0.399519
