13

C -0.94952 0.483136 0.497931
H -0.011304 0.412166 -1.4712
F -0.904725 -0.89739 1.25924
H -0.960243 2.103035 -0.43409
C 0.263429 0.462975 -0.424431
H -0.873542 1.148979 1.343501
C -2.253656 0.430683 -0.12895
N -3.317288 0.263352 -0.556259
N 1.055213 -0.978776 -0.266741
O 1.895346 -1.099867 0.60154
O 0.739364 -1.828333 -1.082575
C 1.252224 1.495185 -0.16342
N 2.124229 2.230575 0.02159
