14

C 0.403044 0.058307 -0.727049
H -0.079131 2.12574 -0.476261
Cl -0.654892 -1.826868 0.152283
H 1.809974 0.985698 -1.392996
C -0.48959 1.166364 -0.145505
H 0.182691 -0.244536 -1.744793
C 1.851556 0.215247 -0.442002
N 2.811314 0.029898 0.264216
N -0.480001 1.211612 1.328228
H 0.483493 1.358734 1.628934
H -0.708241 0.270081 1.646579
N -1.839048 1.063121 -0.693834
H -2.427503 1.675283 -0.133795
H -2.164032 0.113835 -0.519411
