15

C -0.00338 -0.322968 -0.429252
H 0.606054 1.508943 -1.256321
Cl -2.218317 -0.172571 -0.363537
F 1.880204 -0.98669 -1.172299
C 0.540936 1.110493 -0.23088
H -0.081075 -0.712948 -1.420106
C 0.182231 -1.294054 0.617151
N 0.275574 -2.057755 1.478069
N 1.848255 1.011476 0.426459
H 2.319231 1.90732 0.336722
H 2.358066 0.29968 -0.109748
C -0.332982 2.050385 0.606073
H -1.283574 2.270445 0.124344
H -0.531612 1.613307 1.5864
H 0.214836 2.987988 0.759277
