14

C 0.604363 -0.313532 -0.152396
H 1.784751 0.960515 1.028699
Br -2.036085 -0.331645 -0.453963
Cl 2.920798 -0.452508 -0.787217
C 0.727626 0.91833 0.752175
H 0.455247 -0.229341 -1.207803
C 0.593597 -1.604931 0.45622
N 0.613079 -2.620698 1.007518
C -0.081706 0.871218 2.064625
H -1.150741 0.89636 1.867152
H 0.152896 -0.046661 2.60699
H 0.200112 1.722973 2.688716
C 0.462505 2.154476 0.010543
N 0.291043 3.169696 -0.507425
