12

C 0.692868 -0.3937 -0.233544
H 1.664016 1.067783 0.963299
Br -1.919013 -0.456358 -0.6388
Cl 2.987381 -0.366864 -0.623786
C 0.653531 0.925633 0.561133
H 0.579935 -0.38447 -1.296903
C 0.664877 -1.631014 0.475777
N 0.691307 -2.615256 1.079797
C -0.237904 0.9421 1.73216
N -0.805347 1.022158 2.731096
C 0.401619 2.079418 -0.311372
N 0.269195 3.020426 -0.960743
