12

C -0.005169 -0.004284 0.304013
H 0.883108 1.308674 1.728586
Br -2.631996 0.004229 -0.305811
Br 2.63208 0.002972 -0.306175
C 0.005886 1.278884 1.077883
H -0.010309 0.006621 -0.765905
H -0.890435 1.342679 1.699751
H 0.034081 2.143066 0.415738
C -0.003099 -1.303372 1.051027
H 0.896921 -1.371173 1.666695
H -0.876431 -1.355425 1.705926
H -0.025586 -2.153839 0.371151
