17

C 0.592046 -0.534149 -0.181772
H 2.239048 0.569193 -0.184869
Br -1.739577 -0.164826 -0.112423
F 2.760272 -1.175819 -0.797738
C 1.191671 0.83759 0.021481
H 0.604911 -0.857412 -1.206482
C 0.743306 -1.596317 0.869007
H 1.817378 -1.7992 0.886091
H 0.367955 -1.280957 1.845207
H 0.217949 -2.505519 0.571993
C 1.050075 1.403302 1.441994
H -0.00177 1.539592 1.713584
H 1.519348 0.757254 2.190685
H 1.546703 2.37903 1.499315
N 0.750265 1.75674 -1.036862
H 1.255938 2.633094 -0.940943
H -0.23914 1.956476 -0.906356
