18

C 0.553605 -0.577258 -0.015086
H 2.232045 0.386549 0.582823
Br -1.745123 -0.077713 -0.237981
F 2.633193 -1.295013 -0.65892
C 1.245893 0.744796 0.266473
H 0.617935 -0.938145 -1.02264
C 0.541829 -1.635898 1.050191
H 1.575564 -1.989617 1.075292
H 0.230333 -1.252791 2.025543
H -0.112843 -2.464551 0.777146
C 0.637176 1.611808 1.375477
H -0.301908 2.067848 1.056229
H 0.430476 1.036905 2.283046
H 1.338541 2.410577 1.644979
C 1.477373 1.522897 -1.030013
H 2.057987 0.880231 -1.693507
H 0.531313 1.797469 -1.508049
H 2.045873 2.442535 -0.84351
