14

C 0.401198 0.879834 0.394486
H 2.260903 0.149896 0.069453
Br -1.824953 -0.08927 0.139213
F 2.186914 1.621629 1.116644
C 1.257203 -0.290785 -0.093731
H 0.219577 0.926816 1.447002
C 0.214128 2.078801 -0.491751
H 1.179132 2.577207 -0.584137
H -0.166218 1.799388 -1.475093
H -0.498667 2.764287 -0.033489
C 1.109068 -0.625505 -1.511841
N 1.087215 -0.85995 -2.640246
C 1.18746 -1.487942 0.745582
N 1.224505 -2.427797 1.411324
