15

C 0.835172 0.220221 0.24893
H 0.068558 -1.039593 -1.241747
F -0.303597 1.114585 1.415714
F 2.112379 -0.784152 -0.617003
C -0.294843 -0.649824 -0.28802
H 1.339597 -0.084645 1.148172
N 1.170301 1.412006 -0.466099
H 2.16181 1.357437 -0.663975
H 0.958143 2.179083 0.160639
C -1.525637 0.099247 -0.577594
N -2.533935 0.555932 -0.905934
C -0.575998 -1.816613 0.667958
H 0.345959 -2.391034 0.779747
H -0.87689 -1.413139 1.635422
H -1.362951 -2.475756 0.289935
