14

C -0.36317 0.46389 -0.314387
H -0.077406 -0.752368 1.413254
F 1.355264 1.424423 -1.121768
Cl -2.320819 -0.685014 -0.003522
C 0.562481 -0.29198 0.657196
H -0.422175 0.166074 -1.345271
N -0.791593 1.737289 0.129629
H -1.639906 1.981746 -0.369677
H -0.02886 2.330468 -0.209382
N 1.548633 0.549985 1.338731
H 1.015128 1.194863 1.916607
H 1.938365 1.107402 0.56903
C 1.250368 -1.390209 -0.04069
N 1.782007 -2.271983 -0.558571
