13

C 0.741891 0.543497 -0.250542
H -0.816327 1.428974 0.746622
Cl 1.064584 -1.616795 -0.91019
F 0.487711 2.545256 -0.091025
C -0.67363 0.420112 0.332373
H 0.828903 0.806912 -1.287356
N 1.795478 0.620268 0.69155
H 1.93895 1.621944 0.80403
H 2.62174 0.172835 0.314994
C -0.816522 -0.552133 1.421028
N -1.00706 -1.240082 2.325166
C -1.70834 0.235094 -0.687623
N -2.548559 0.143833 -1.47061
