14

C -0.943799 -0.196536 0.949786
H 0.86572 0.539225 1.698817
Cl -1.461675 -1.040053 -1.159577
H 0.036904 -0.606518 3.121107
C 0.539955 0.078307 0.756985
H -1.168291 -1.137585 1.411979
N -1.768869 0.840077 1.159108
H -1.555864 1.682375 0.641838
H -2.744953 0.610736 1.25404
N 0.84841 1.106477 -0.340196
O 1.852675 0.954769 -1.014655
O 0.168279 2.140963 -0.325279
C 1.334994 -1.127574 0.561612
N 2.014805 -2.046322 0.423117
