11

C -0.001585 -0.427567 -0.102617
H 0.885335 -1.267647 1.645642
Cl -2.393982 -0.460522 -0.454933
Cl 2.395853 -0.459815 -0.453899
C -0.000549 -1.404498 1.028939
H 0.000885 -0.634091 -1.150011
H 0.002726 -2.413173 0.615604
H -0.88856 -1.272088 1.643502
N -0.000763 1.024639 0.22109
O -0.001846 1.323446 1.408611
O 9e-05 1.808133 -0.709881
