13

C -0.015735 0.555146 -0.501141
H -1.432832 0.804117 1.031994
F 0.483863 1.771717 0.448755
H -0.345177 -0.850532 -1.743694
C -1.470348 0.494891 -0.012722
H 0.287858 0.991058 -1.432534
H -1.996282 1.285723 -0.559449
N 0.922964 -0.480747 -0.046269
O 0.572432 -1.184529 0.915794
O 2.062928 -0.488239 -0.512835
N -2.241542 -0.744534 -0.092914
H -1.762868 -1.399563 0.522366
H -2.041807 -1.117375 -1.023682
