15

C -0.230507 -0.009474 0.60388
H 0.700828 1.918714 0.873003
Cl -1.922149 0.570714 0.264058
H 0.527523 3.153675 1.866245
C 0.824549 1.030584 0.153536
H -0.179523 -0.196888 1.672617
N -0.007772 -1.317512 -0.064001
O 0.603841 -2.16815 0.603515
O -0.302299 -1.435391 -1.258869
N 0.719783 1.496789 -1.205155
H -0.12337 2.048196 -1.321983
H 0.687445 0.707268 -1.847501
N 2.157535 0.42576 0.319687
H 2.200842 -0.077773 1.203649
H 2.799384 1.211078 0.409602
