15

C 0.166779 0.26882 -0.21743
H -0.985621 -0.779387 -1.726782
F -0.165514 0.231257 1.37851
H 0.917022 0.116466 -1.926623
C -0.925605 -0.715168 -0.642532
H -0.623792 -1.692708 -0.264802
N 1.527266 -0.306417 -0.095871
O 1.627711 -1.542289 -0.027675
O 2.460766 0.46432 0.160079
C 0.024832 1.752945 -0.473436
H -0.381421 1.952795 -1.462815
H -0.631519 2.174967 0.291807
H 1.007789 2.21146 -0.394759
C -2.249018 -0.373577 -0.119009
N -3.330491 -0.127766 0.200526
