15

C -0.39884 -0.049204 0.482781
H 1.132262 -0.036027 1.938547
F -1.26783 1.812666 0.724084
Cl 0.437554 -2.007176 -0.14827
C 0.874783 0.555372 1.055342
H 0.586558 1.559826 1.369544
N -0.815811 0.331847 -0.917404
O -0.003487 0.942014 -1.588112
O -1.910871 -0.041514 -1.298647
C -1.445653 -0.576735 1.42868
H -2.296988 -0.927165 0.850385
H -1.046823 -1.404838 2.014579
H -1.763528 0.244667 2.065501
C 2.078745 0.641937 0.234363
N 3.104556 0.773772 -0.275116
