18

C 0.395845 0.274125 0.301874
H -0.632488 1.512666 -1.004507
Cl -0.307112 -1.646527 1.199448
F 1.253036 1.869872 -0.679476
C -0.944355 0.83104 -0.211537
N 1.249385 -0.417329 -0.738747
O 0.722591 -0.649215 -1.813164
O 2.384519 -0.73 -0.429053
C 1.084356 0.767259 1.550978
H 1.365715 1.80529 1.4014
H 0.437699 0.648539 2.418685
H 1.981029 0.171333 1.701526
C -1.669677 1.644892 0.874054
H -1.931167 1.021013 1.730652
H -1.030785 2.465122 1.202605
H -2.58912 2.067081 0.463114
C -1.884709 -0.119459 -0.815692
N -2.735519 -0.708722 -1.325413
