14

C 0.552396 0.373241 0.237143
H 0.927451 2.03962 -0.973952
Br -1.425379 -1.164097 0.036496
F 2.380729 1.334679 0.205413
C 0.071123 1.391542 -0.779199
H -0.194618 0.876452 -1.700404
N 1.437865 -0.739536 -0.304737
O 1.577412 -0.814265 -1.510783
O 1.940351 -1.480505 0.521958
N 0.487956 0.573166 1.593326
H 1.180557 1.299374 1.77936
H 0.770025 -0.280144 2.064706
C -1.051406 2.203765 -0.324951
N -1.896751 2.929635 -0.029038
