13

C 0.543001 -8.2e-05 0.053936
H 2.000616 -0.902426 -1.187307
F 0.360702 1.811893 0.056752
F 0.348939 -1.813649 0.051887
C 1.387977 -0.003306 -1.190021
H 2.0069 0.891829 -1.191318
H 0.744701 -0.003007 -2.067402
N -0.992285 0.002365 -0.091999
O -1.476225 0.007486 -1.212052
O -1.644412 0.001005 0.941302
N 1.09567 -0.004996 1.352298
H 0.748963 -0.834347 1.816664
H 0.767583 0.834571 1.812031
