14

C 0.370667 -0.216713 -0.082162
H -0.24001 1.112162 1.427684
Cl 2.732648 -0.542842 -1.043618
Br -2.206293 -0.088007 -0.244113
C 0.547682 1.105928 0.663958
H 0.272853 -0.245628 -1.147431
C 0.423607 -1.441252 0.645638
N 0.447012 -2.41688 1.264533
N 0.382004 2.199922 -0.306071
H 0.413554 3.07831 0.205137
H -0.554995 2.129306 -0.700777
N 1.798261 1.139927 1.394646
H 1.856951 2.004164 1.924232
H 2.57419 1.081692 0.740258
