15

C -0.212276 0.113578 0.326094
H 0.124041 -1.192793 -1.328875
F 1.504045 1.03113 1.229161
Cl -2.11163 -0.890902 0.04074
C 0.73294 -0.719546 -0.555224
H -0.219689 -0.057739 1.383301
C -0.5704 1.4505 -0.074399
N -0.921618 2.500934 -0.399579
C 1.381497 -1.804459 0.317852
H 1.944031 -1.304481 1.107436
H 0.632313 -2.468592 0.762498
H 2.062467 -2.418975 -0.282802
N 1.682438 0.175776 -1.222719
H 2.401936 -0.387676 -1.667624
H 2.099901 0.718003 -0.458826
