14

C 0.59987 0.235593 -0.249396
H 0.152996 -1.342613 1.112638
Cl -0.989516 1.964135 -0.865731
Cl 2.285268 -1.55531 -0.279425
C -0.329157 -0.438227 0.744385
H 0.548864 -0.022136 -1.287392
C 1.563866 1.181117 0.213378
N 2.331064 1.954894 0.595509
N -1.549104 -1.069268 -0.065821
O -2.590608 -1.178528 0.564454
O -1.352911 -1.494196 -1.185944
N -0.731559 0.377026 1.819778
H -1.350002 -0.128729 2.43975
H -1.19177 1.215779 1.478123
