13

C 0.096061 -0.115383 -0.344237
H -0.75405 1.633863 -1.159737
Cl 2.53639 -0.218471 -0.555411
Cl -2.333775 -0.58353 -0.680107
C -0.069485 1.395293 -0.344901
H 0.134835 -0.661477 -1.26527
H 0.901015 1.825631 -0.593315
C 0.125381 -0.864406 0.874765
N 0.144826 -1.422253 1.886692
C -0.584584 1.981366 0.968484
H -1.553672 1.553097 1.229522
H 0.110969 1.792207 1.79016
H -0.701574 3.065254 0.870945
