12

C 0.615658 0.332645 -0.314673
H 0.485634 -1.809378 -0.209863
Cl -1.404492 1.716124 -0.870717
Cl 2.762199 -0.62148 -0.519806
C -0.133064 -0.96476 -0.510631
H 0.88994 0.901597 -1.177975
H -0.428844 -1.067232 -1.547886
C 0.831245 0.936939 0.961945
N 1.055462 1.441456 1.97572
N -1.398923 -1.150491 0.306346
O -2.312553 -1.732772 -0.256303
O -1.375765 -0.82968 1.47884
