15

C 0.866958 0.725615 0.285276
H -0.163525 0.498477 -1.604328
F 0.470852 -0.149331 1.569043
H 1.450757 1.943865 -1.180539
C -0.411063 0.612501 -0.556536
H 1.009034 1.66676 0.787121
C 2.086996 0.119311 -0.194557
N 3.045231 -0.502552 -0.401016
C -1.363466 1.766311 -0.307064
H -1.612444 1.833079 0.752941
H -0.859764 2.678102 -0.628749
H -2.293634 1.647183 -0.866445
N -1.126119 -0.73179 -0.2289
O -2.180583 -0.715791 0.38902
O -0.604219 -1.737399 -0.680856
