16

C 0.30531 0.290398 0.438177
H -0.775901 1.044628 -1.190166
F -0.042333 -1.298242 1.287523
F 0.815108 1.979788 -0.11636
C -0.92807 0.242352 -0.467254
H 0.256484 0.729665 1.413807
C 1.58038 -0.211205 -0.019938
N 2.586123 -0.627615 -0.406431
C -2.169612 0.560057 0.36981
H -2.272715 -0.184511 1.16173
H -2.078239 1.550453 0.826492
H -3.076679 0.554235 -0.246107
C -1.08138 -1.082168 -1.223001
H -0.184681 -1.30943 -1.806874
H -1.237724 -1.900383 -0.522454
H -1.928154 -1.021868 -1.918647
