14

C 0.14476 0.239194 0.11468
H -0.589286 2.061915 0.906737
F -0.24057 0.560762 -1.581136
F 0.744183 -0.272949 1.739276
C -1.00992 1.068879 0.728313
H -1.213009 0.623312 1.69701
C 1.465387 0.786816 -0.111198
N 2.485926 1.297838 -0.279693
N -0.078405 -1.228254 -0.155872
O -1.195355 -1.661854 0.098371
O 0.839007 -1.879594 -0.610014
N -2.245329 1.190922 -0.029368
H -2.645522 0.25834 -0.086019
H -1.970622 1.404831 -0.984078
