14

C -0.624341 0.037196 -0.118161
H -0.57012 -1.624633 -1.46083
F 3.25269 0.32941 0.296597
Cl -0.200779 -0.750187 1.487258
C 0.042945 -0.723788 -1.319615
H -0.165145 -0.080346 -2.185716
C -2.080411 -0.072683 -0.273815
N -3.221935 -0.181426 -0.3947
C -0.236176 1.447146 -0.060786
N -0.024877 2.579462 -0.069668
C 1.527127 -1.011347 -1.17441
H 2.215803 -0.230503 -0.615939
H 1.671437 -1.922308 -0.584897
H 1.939879 -1.199124 -2.174082
