15

C 0.30008 0.054059 -0.017834
H -0.800765 -1.16684 -1.354451
F 0.526357 -0.910884 1.55373
F 0.384825 1.057532 -1.528605
C -1.080964 -0.584457 -0.465661
C 1.531048 -0.586251 -0.438067
N 2.475497 -1.129625 -0.818255
C 0.340247 1.252778 0.794505
N 0.350951 2.214939 1.430204
N -2.014789 0.495449 -0.749814
H -2.84388 0.083855 -1.165846
H -1.565231 1.108625 -1.421618
N -1.733078 -1.475598 0.471818
H -2.084535 -0.88093 1.220305
H -0.998767 -2.017468 0.92015
