16

C 0.145433 -0.160906 0.019535
H 0.792688 1.544089 -1.016429
Cl -2.285048 -0.739222 0.42843
Cl 2.661391 0.137275 -0.109101
C -0.171315 1.204221 -0.641524
C 0.273202 -1.334759 -0.794949
N 0.372239 -2.282589 -1.446179
C 0.330635 -0.282253 1.437916
N 0.459062 -0.337263 2.584362
C -0.672643 2.240214 0.374356
H -1.620523 1.931271 0.816417
H 0.053607 2.40464 1.174452
H -0.818964 3.191948 -0.146159
N -1.008272 0.99019 -1.815227
H -1.050976 1.846742 -2.355726
H -1.946723 0.722948 -1.533835
