14

C -0.491505 0.125506 -0.088233
H 0.329532 -0.593801 -1.916159
Cl -2.995408 0.263589 0.082027
Br 2.167824 0.064615 0.026224
C -0.550827 -0.802287 -1.309475
H -1.42905 -0.511095 -1.885146
C -0.494384 -0.370866 1.258785
N -0.507494 -0.807456 2.328262
C -0.439702 1.542313 -0.308353
N -0.406605 2.672199 -0.545797
C -0.616048 -2.281658 -0.949464
H 0.271681 -2.590502 -0.393896
H -1.501203 -2.500321 -0.34903
H -0.669384 -2.878053 -1.864895
