16

C 0.35025 0.032414 -0.297849
H -0.405297 -1.173361 1.316226
F -1.054125 1.598475 -0.771997
Cl 1.91187 -1.427007 0.353015
C -0.742243 -0.304535 0.748491
C 1.165546 1.203637 -0.076793
N 1.901521 2.084073 0.051552
C 0.224394 -0.468283 -1.723053
H 1.184072 -0.389884 -2.231505
H -0.089281 -1.512101 -1.731297
H -0.517929 0.158171 -2.212464
C -1.997856 -0.726227 0.076263
N -3.009874 -1.136016 -0.299345
N -0.932393 0.800268 1.676307
H -1.646933 0.556885 2.354315
H -1.254622 1.572832 1.089503
