16

C -0.120263 0.092456 0.130089
H 0.735043 -0.52995 -1.715249
F -0.784374 1.823953 -0.1722
F 0.27514 -1.722506 0.401502
C 0.962074 0.208401 -0.943786
H 0.865741 1.202009 -1.379457
C -1.437933 -0.360275 -0.272736
N -2.484785 -0.72424 -0.59995
C 0.14266 0.448898 1.581283
H 0.787252 -0.30139 2.034888
H 0.591576 1.440356 1.629295
H -0.800208 0.48558 2.127087
C 2.382612 -0.032734 -0.433065
H 2.67705 0.704127 0.321512
H 2.444735 -1.027325 0.005766
H 3.100523 0.042769 -1.25861
