16

C 0.431772 -0.167673 0.393931
H -0.64507 1.397222 1.152899
Cl 0.517262 -1.332505 -1.06696
H 0.818258 1.438479 2.399268
C -0.75646 0.805063 0.219682
C 1.72616 0.581902 0.384235
N 2.791749 0.903057 0.047711
N 0.219008 -0.970175 1.570682
H 0.354331 -0.261813 2.323972
H 0.990594 -1.629679 1.65068
C -2.043363 0.118402 0.244057
N -3.109078 -0.326275 0.229356
C -0.650284 1.745925 -0.988425
H 0.279478 2.313876 -0.927023
H -0.664896 1.195938 -1.931253
H -1.484855 2.450593 -0.985353
