15

C 0.529856 0.3895 -0.190236
H -0.634394 -0.626641 -1.682584
F 0.23509 0.269161 1.448632
H 1.169784 0.446235 -2.022988
C -0.636073 -0.539074 -0.598838
C 1.872968 -0.131984 -0.270125
N 2.949795 -0.517378 -0.041722
N 0.301701 1.813754 -0.279145
H 0.858645 2.176268 -1.039832
H 0.590201 2.212508 0.609629
C -1.931567 0.074499 -0.213203
N -3.010764 0.398438 0.039245
N -0.452145 -1.866611 -0.01244
H -1.264499 -2.444226 -0.200467
H -0.366765 -1.74167 0.991391
