16

C 0.05436 -0.735544 -0.032563
H -0.228914 0.962204 1.212157
Cl 2.32807 -1.47727 -0.849929
Br -2.467812 0.106928 -0.117897
C 0.607579 0.407188 0.784799
H -0.076581 -0.586228 -1.084231
C -0.290279 -2.02332 0.655518
H 0.614193 -2.499842 1.033173
H -0.952798 -1.836317 1.50099
H -0.787786 -2.697188 -0.040044
N 1.224509 1.514539 -0.175955
O 2.079399 2.227969 0.335566
O 0.764579 1.658892 -1.288289
N 1.504586 0.013911 1.81115
H 1.858102 0.833192 2.289833
H 2.284539 -0.488685 1.392186
