13

C 0.482572 -0.688052 -0.120562
H 0.667731 0.414935 1.731149
F 2.531338 -1.327109 -0.644881
Br -1.693035 0.179924 -0.106731
C 1.208055 0.281931 0.789345
H 0.614262 -0.564523 -1.176648
H 2.175754 -0.207276 0.948479
C 0.239572 -2.072534 0.415357
H 1.219734 -2.549952 0.424665
H -0.201435 -2.048296 1.415877
H -0.431952 -2.627773 -0.240743
C 1.470604 1.596216 0.214835
N 1.717893 2.646307 -0.193874
