16

C 0.617794 -0.584376 0.641917
H -1.337914 -0.84379 1.327894
Cl 1.459867 0.298246 -1.141603
H 0.136609 -2.312937 2.105944
C -0.891744 -0.539994 0.377601
H 1.06004 -1.551972 0.51249
C 1.178317 0.320389 1.712783
H 0.948233 1.365424 1.488789
H 0.757825 0.056243 2.68166
H 2.263277 0.212332 1.764309
C -1.326292 -1.559712 -0.683841
H -0.829506 -1.366744 -1.635154
H -1.045326 -2.549809 -0.315782
H -2.408953 -1.531751 -0.835375
C -1.409681 0.803051 0.090921
N -1.910341 1.830955 -0.074828
