17

C -0.080686 -0.374662 0.073474
H -0.91543 1.196569 1.137698
Cl 2.41562 -0.839672 -0.626471
Cl -2.578689 -0.644015 -0.258191
C -0.157771 1.109499 0.340876
H -0.079152 -0.718816 -0.941324
C 0.003055 -1.332469 1.220545
H 0.946437 -1.197282 1.753609
H -0.822656 -1.159058 1.914236
H -0.041838 -2.360871 0.867795
N -0.556985 1.819577 -0.877697
H -0.686053 2.802494 -0.653191
H -1.464733 1.454191 -1.159209
C 1.134559 1.730533 0.893005
H 1.502658 1.188313 1.765977
H 1.911381 1.718601 0.132134
H 0.925518 2.764109 1.198016
