15

C 0.174793 -0.440178 0.115974
H -0.133926 1.522907 0.784984
Cl 2.450717 -1.5194 -0.681057
Br -2.321559 -0.097183 -0.032753
C 0.524089 1.04154 0.042531
H 0.068687 -0.973005 -0.806189
C 0.226585 -1.129388 1.445065
H 1.259209 -1.164875 1.797389
H -0.381682 -0.596829 2.180067
H -0.138724 -2.151149 1.358344
N 0.322188 1.563462 -1.310365
H 0.483045 2.566116 -1.308264
H -0.659376 1.411206 -1.531866
C 1.88205 1.372914 0.514452
N 2.856387 1.800466 0.959183
