15

C -0.752496 0.172281 -0.367759
H 0.284674 0.84408 1.332217
F -0.439723 -1.47914 -1.118933
F -0.874008 2.037113 0.108253
C 0.429798 0.054569 0.5956
H -0.5984 0.583585 -1.34303
C -2.141671 -0.157776 0.10702
H -2.639343 -0.777244 -0.639639
H -2.094404 -0.723381 1.040193
H -2.687546 0.769818 0.265902
C 1.696607 0.355783 -0.106802
N 2.736365 0.547474 -0.572284
N 0.466608 -1.255886 1.263128
H 1.359148 -1.37612 1.731328
H 0.385211 -1.93276 0.504882
