15

C -0.47989 0.063295 0.159678
H -0.154183 -1.65417 -1.10105
F -2.66852 0.708154 0.172687
Br 1.863689 -0.214229 -0.042167
C -0.97302 -0.973205 -0.869835
H -1.218784 -0.417338 -1.784132
C -0.620026 -0.23852 1.636424
H -1.669006 -0.073802 1.87527
H -0.346214 -1.27315 1.835581
H 0.007942 0.429581 2.225749
C -0.493452 1.454971 -0.232258
N -0.370526 2.560519 -0.548759
N -2.088141 -1.749935 -0.324007
H -2.42836 -2.368974 -1.055243
H -2.794828 -1.030854 -0.129214
