16

C -0.39746 -0.397774 -0.091891
H 0.235976 0.434942 1.7782
F 1.2489 -1.198419 -1.228801
Cl -2.092285 0.71776 0.864244
C 0.723759 0.032676 0.889587
C -0.982168 -1.786924 0.062577
H -0.287233 -2.479424 -0.405516
H -1.101196 -2.029306 1.116835
H -1.951815 -1.834876 -0.431482
C -0.541446 0.244521 -1.376335
N -0.770522 0.767194 -2.380573
C 1.555207 1.133012 0.350068
N 2.27346 1.993228 0.075224
N 1.51421 -1.127315 1.299452
H 2.252561 -0.81857 1.923896
H 1.913049 -1.473739 0.422367
