15

C -0.51285 0.040737 0.135582
H 0.303247 -1.348127 -1.228683
Cl -3.071047 0.444767 0.13421
Br 2.328727 -0.059342 0.008638
C -0.696255 -1.039857 -0.922527
H -1.186353 -0.577089 -1.787122
C -0.416222 -0.307379 1.600611
H -1.415948 -0.450933 2.008108
H 0.136655 -1.237994 1.704327
H 0.091381 0.483256 2.148989
C -0.359572 1.395098 -0.299034
N -0.269827 2.492229 -0.655177
N -1.389595 -2.201463 -0.377015
H -1.3334 -2.963652 -1.043352
H -2.367894 -1.956499 -0.248636
