15

C -0.027268 -0.160436 -0.267562
H 0.710487 1.390047 -1.480401
Cl -2.727754 0.019666 -0.1109
Cl 2.502282 -0.436425 -0.230157
C 0.132212 1.320404 -0.547169
H -0.871672 1.696964 -0.747361
C -0.252237 -1.108471 -1.42336
H -0.859454 -0.611551 -2.179756
H 0.706575 -1.391858 -1.85592
H -0.782578 -1.998312 -1.093353
C -0.090933 -0.646373 1.077321
N -0.114668 -1.089167 2.144855
N 0.694115 2.050143 0.575831
H 0.63006 3.046481 0.402059
H 1.672829 1.795547 0.672524
