18

C -0.68694 -0.634758 0.153046
H -1.842198 0.87298 1.000407
Br 1.922439 -0.274886 -0.147066
F -2.83351 -0.94278 0.332223
C -1.189987 0.82798 0.1192
C -0.492215 -1.255122 1.509298
H 0.206312 -2.088513 1.46281
H -0.111108 -0.529072 2.229455
H -1.478509 -1.601954 1.823783
C -0.716412 -1.498317 -1.081381
H -1.697858 -1.971646 -1.111132
H -0.581663 -0.893847 -1.975759
H 0.065467 -2.253549 -1.033547
N -1.954757 1.068705 -1.111993
H -2.299497 2.024224 -1.099214
H -2.74669 0.434035 -0.984654
C -0.22335 1.923367 0.30931
N 0.319814 2.921936 0.510326
