19

C -1.013919 0.367721 0.331691
H 0.623413 1.227692 1.383936
Cl -0.733429 -1.49559 -0.92894
H -1.06814 2.459366 1.34411
C 0.428601 0.90876 0.361535
C -1.520086 -0.321113 1.584773
H -0.749939 -0.971274 1.998852
H -1.803187 0.425609 2.324027
H -2.390268 -0.933217 1.340321
C -2.048001 0.956627 -0.619809
H -2.567805 1.779724 -0.138813
H -1.558615 1.318488 -1.52294
H -2.765262 0.181964 -0.899093
N 0.666674 1.909196 -0.648879
H 1.659759 2.10982 -0.698776
H 0.167531 2.727068 -0.2988
N 1.55893 -0.184401 0.22646
O 2.415589 -0.050225 -0.634825
O 1.617161 -1.005493 1.130694
