18

C -0.58534 -0.429783 -0.147926
H -1.086523 1.321486 0.734602
Cl 1.63383 -1.43549 -0.218277
F -2.569338 0.616598 -0.027834
C -0.112966 0.831808 0.582253
C -1.21448 -1.53423 0.655796
H -0.935433 -2.506495 0.24995
H -0.908568 -1.471956 1.698272
H -2.288274 -1.369274 0.578638
C -0.750823 -0.43238 -1.6425
H -1.734775 -0.001931 -1.824585
H 0.017917 0.159508 -2.137704
H -0.703057 -1.452931 -2.023866
C 0.698121 1.735844 -0.256146
N 1.314774 2.537515 -0.814439
N 0.501577 0.554064 1.87934
H 0.679496 1.429656 2.359379
H 1.386625 0.077276 1.723367
