17

C -0.804628 -0.258742 -0.23562
H 0.507719 0.578743 -1.691266
F -0.504552 -0.059896 1.472839
H -1.152691 -0.57592 -2.267522
C 0.493648 0.491404 -0.608192
C -2.12106 0.506947 -0.288947
H -2.380602 0.836299 0.725266
H -2.041225 1.377831 -0.936221
H -2.908497 -0.132957 -0.680203
N -0.735628 -1.696553 -0.154514
H -1.284179 -2.076271 -0.911326
H -1.087659 -1.970744 0.759325
C 1.694538 -0.287891 -0.218243
N 2.724065 -0.74335 0.040734
N 0.509349 1.839838 -0.017701
H 1.401508 2.283019 -0.213415
H 0.427093 1.709201 0.986185
