16

C -0.62129 0.600051 -0.2065
H 0.798816 0.968668 1.343223
F -0.669255 -0.852794 -1.214802
H -0.682095 2.514317 0.493463
C 0.712659 0.295617 0.493605
H -0.644295 1.225279 -1.079273
N -1.830256 0.282532 0.524161
H -2.425193 -0.2239 -0.125931
H -2.251262 1.16934 0.767306
C 1.873978 0.542434 -0.462946
H 1.75901 -0.085444 -1.350761
H 1.887561 1.59162 -0.77509
H 2.825629 0.300852 0.020227
N 0.762038 -1.083266 1.020314
H 0.474429 -1.660049 0.229197
H -0.033864 -1.149013 1.654575
