13

C -0.431402 -0.925652 -0.232975
H -2.277483 -0.150209 0.176041
Br 1.859411 0.04401 -0.200795
F -2.250293 -1.777944 -0.74849
C -1.270033 0.298837 0.143968
H -0.215643 -1.083886 -1.271075
N -0.268006 -1.889794 0.765006
H 0.480523 -2.522595 0.510542
H -1.160069 -2.387313 0.761661
C -1.308548 1.323106 -0.901495
N -1.411791 2.124507 -1.722594
C -0.971875 0.882626 1.455625
N -0.857763 1.35552 2.499918
