15

C -0.433831 -0.408419 -0.307535
H -0.084171 0.904757 1.324586
F 1.314529 -1.44606 -1.16903
Cl -2.341724 0.725524 0.008851
C 0.533077 0.3263 0.630815
H -0.451049 -0.107786 -1.339529
N -0.831891 -1.6998 0.085658
H -0.000616 -2.225087 -0.234463
H -1.618111 -1.978092 -0.493146
C 1.335393 1.301027 -0.114199
N 1.969562 2.111445 -0.635192
C 1.439825 -0.605349 1.458783
H 0.812486 -1.289832 2.031509
H 2.062459 -1.169971 0.768956
H 2.047057 -0.016216 2.152456
