15

C -0.33398 0.97379 0.735117
H -2.383024 0.909898 0.499187
Br 1.534461 -0.471874 -0.103548
H -1.338576 1.549482 2.991206
C -1.546927 0.380414 0.025405
H -0.308392 0.80939 1.82106
N 0.021509 2.229886 0.34154
H 0.217699 2.344954 -0.641727
H 0.734392 2.639589 0.931386
C -1.763942 -1.037719 0.333989
N -2.057139 -2.137253 0.519573
C -1.604808 0.614786 -1.494214
H -1.639712 1.686107 -1.710251
H -0.733713 0.174779 -1.981929
H -2.507458 0.165333 -1.91432
