16

C -0.90916 0.279109 -0.719524
H 0.67926 1.603103 -0.909935
Cl -1.248295 -1.394425 0.59864
H -0.709859 1.566584 -2.51011
C 0.392158 0.855904 -0.164548
H -0.808482 -0.295576 -1.624294
N -2.10733 1.038454 -0.433936
H -2.867685 0.380845 -0.286632
H -2.27465 1.57192 -1.280337
N 1.525188 -0.152316 -0.264698
O 2.424972 -0.090831 0.571327
O 1.543441 -0.889435 -1.239594
C 0.303922 1.471688 1.219094
H -0.545657 2.15453 1.222994
H 0.135589 0.708744 1.979044
H 1.218663 2.014032 1.458837
