12

C -0.260259 -0.554743 -0.136899
H 0.138785 0.616467 1.614105
F 1.389841 -1.905243 -0.51425
Cl -1.974352 0.950447 -0.177439
C 0.698093 0.132047 0.810523
H -0.158327 -0.398508 -1.195227
H 1.328042 -0.66387 1.211693
N -0.913971 -1.673172 0.402756
H -0.147706 -2.360872 0.344085
H -1.65102 -1.960496 -0.232664
C 1.567541 1.114187 0.173037
N 2.273026 1.902873 -0.285218
