15

C -0.521956 0.469988 -0.22858
H 0.499725 -1.041172 -1.370477
F -0.030071 0.367933 1.279356
H -1.214518 0.316371 -1.949232
C 0.683832 -0.044738 -0.991594
H 0.97161 0.666127 -1.754295
N -0.848856 1.853383 -0.234671
H -1.152347 2.094618 0.702757
H -1.600811 2.011743 -0.887773
N -1.662172 -0.522162 -0.072558
O -2.743181 -0.05864 0.294913
O -1.42154 -1.723632 -0.170186
N 1.955644 -0.18035 -0.108889
O 2.626644 0.827308 0.064661
O 2.248503 -1.29087 0.307948
