14

C -0.111628 0.312498 0.163958
H 1.079406 1.267725 -1.313284
F 0.420203 -1.257461 0.871914
F -0.898987 1.693996 -0.640614
C 1.016626 0.280797 -0.857113
H 0.742134 -0.436419 -1.630448
N -0.016262 0.983571 1.392378
H -0.067005 0.293798 2.129675
H -0.772792 1.65162 1.444932
N -1.40238 -0.45821 -0.194649
O -1.457683 -1.039269 -1.266332
O -2.301086 -0.426271 0.628099
C 2.327386 -0.067495 -0.313067
N 3.419093 -0.259076 0.006644
