15

C -0.376955 -0.50276 -0.029242
H 0.75829 -0.396255 1.724104
Cl 0.025006 0.612826 -1.948873
F -0.915172 -1.335339 1.654434
C 0.940714 -0.092438 0.688178
N -0.515918 -1.750762 -0.632752
H -0.893005 -1.677321 -1.566084
H -1.084326 -2.319374 -0.017414
N -1.613136 0.356135 0.278345
O -1.448891 1.352136 0.956293
O -2.665282 -0.036862 -0.183395
C 1.323658 1.324715 0.706046
N 1.737298 2.392464 0.830976
C 2.067388 -0.892179 0.192868
N 2.993905 -1.505448 -0.109421
