15

C -0.767908 0.472055 -0.01079
H 0.427728 0.370326 -1.737687
Cl -0.160666 -0.288832 2.047588
F -1.353923 1.064066 -1.83934
C 0.61035 0.237487 -0.668187
N -1.038734 1.799505 0.430316
H -1.500759 1.786766 1.329672
H -1.609834 2.217004 -0.297274
C -1.842348 -0.488912 -0.151079
N -2.77516 -1.168195 -0.186032
N 1.147646 -1.194521 -0.555637
O 2.323582 -1.345233 -0.28302
O 0.362352 -2.075362 -0.847674
C 1.617113 1.196328 -0.23174
N 2.438931 1.966419 0.006594
