16

C 0.456401 -0.090353 0.392493
H -0.44149 -1.924016 0.088246
Cl -0.383909 2.019332 -0.087061
F 1.461147 -1.846978 0.672508
C -0.633392 -0.922228 -0.304133
N 0.364117 0.04449 1.804217
H 0.757672 0.930876 2.094777
H 0.918083 -0.732693 2.159366
C 1.68334 0.23424 -0.311561
N 2.664861 0.533389 -0.843234
C -0.494939 -0.96783 -1.831395
H -0.58279 0.030692 -2.261014
H 0.480218 -1.385443 -2.084933
H -1.270294 -1.607228 -2.259511
C -1.996411 -0.571763 0.107489
N -3.111158 -0.450798 0.378043
