16

C -0.300814 -0.159702 -0.025987
H 0.826214 0.522047 -1.658102
F -1.783448 1.164484 -0.011448
F 1.070324 -1.495433 -0.103895
C 0.654676 0.86329 -0.629016
H 0.137104 1.819928 -0.652178
N -1.101019 -0.934784 -0.937087
H -2.058894 -0.673602 -0.733799
H -0.917203 -1.909386 -0.727677
C -0.441459 -0.316444 1.475968
H -0.187058 -1.338822 1.757695
H 0.244545 0.36545 1.981898
H -1.463697 -0.071374 1.756568
N 1.894346 0.984779 0.160373
H 2.552623 1.558565 -0.361257
H 2.256778 0.032904 0.186139
