16

C -0.333756 -0.077947 -0.039446
H 1.085525 -0.423986 -1.551586
F -1.058907 1.704541 0.03241
F 0.25638 -1.902625 0.028229
C 0.905092 0.351171 -0.805643
H 0.648992 1.275131 -1.325496
N -1.464146 -0.481962 -0.842168
H -2.225633 0.130535 -0.575178
H -1.646559 -1.447813 -0.595272
N -0.342544 -0.074724 1.403805
H -0.509899 -1.031402 1.68957
H -1.087198 0.553519 1.678208
C 2.139485 0.53971 0.067564
H 1.962696 1.305542 0.825674
H 2.369446 -0.396444 0.579216
H 3.007282 0.83687 -0.537196
