17

C	-0.487473	-0.065693	-1.430132
C	0.0	0.0	0.0
F	-1.931363	-0.222012	-1.407154
H	1.093444	0.0	0.0
H	-0.344757	0.949542	0.432264
N	-0.170385	1.134354	-2.128276
H	-0.40468	1.942113	-1.565617
H	-0.688659	1.170438	-2.997655
C	0.047665	-1.260752	-2.189039
H	1.136805	-1.261015	-2.101551
H	-0.357083	-2.186691	-1.777891
H	-0.24241	-1.198385	-3.243258
C	-0.483473	-1.159292	0.863826
H	-0.159141	-1.001193	1.895733
H	-0.034396	-2.100521	0.537212
H	-1.571363	-1.263377	0.847953
H	3.128368	0.0	0.0
