17

C	-0.309765	0.008534	-1.483668
C	0.0	0.0	0.0
F	-1.695025	0.233872	-1.681488
H	1.095592	0.0	0.0
H	-0.336171	0.961736	0.409706
N	0.380125	1.090393	-2.163896
H	1.375034	0.932228	-1.983645
H	0.158614	1.943659	-1.656103
C	0.041258	-1.296305	-2.165017
H	-0.105274	-1.181623	-3.240977
H	1.087081	-1.5389	-1.955657
H	-0.59672	-2.102479	-1.798805
C	-0.574521	-1.157965	0.801477
H	-0.386107	-1.00686	1.86856
H	-1.655422	-1.258309	0.655079
H	-0.095589	-2.100469	0.525209
H	3.055894	0.0	0.0
