17

C	-0.375448	0.076376	-1.479212
C	0.0	0.0	0.0
F	-0.3219	1.432164	-1.860053
H	1.094125	0.0	0.0
H	-0.304045	-0.991793	0.363122
N	0.582856	-0.609449	-2.318552
H	0.440456	-1.60732	-2.206777
H	1.513381	-0.416153	-1.933586
C	-1.783871	-0.386116	-1.807915
H	-1.961074	-0.254552	-2.877555
H	-2.513317	0.203602	-1.248189
H	-1.915673	-1.440572	-1.548119
C	-0.566576	1.098339	0.885244
H	-0.234169	0.951851	1.91713
H	-0.199052	2.069814	0.553354
H	-1.662599	1.126764	0.8826
H	3.098932	0.0	0.0
