17

C	-0.36954	-0.044316	-1.480512
C	0.0	0.0	0.0
F	-0.248358	1.277401	-1.954678
H	1.096338	0.0	0.0
H	-0.38076	0.924348	0.44611
N	0.562487	-0.828716	-2.264442
H	0.402444	-1.810865	-2.068614
H	1.500927	-0.617057	-1.910116
C	-1.796877	-0.458611	-1.789061
H	-1.985458	-1.493435	-1.495288
H	-2.494789	0.188321	-1.252354
H	-1.963493	-0.356062	-2.863072
C	-0.460919	-1.22126	0.787176
H	-1.548308	-1.276642	0.908064
H	-0.006625	-1.206587	1.781592
H	-0.121964	-2.143627	0.304668
H	3.093139	0.0	0.0
