17

C	0.0	0.0	0.0
C	-0.340262	-0.004917	-1.518699
F	1.398542	0.0	0.0
H	-1.390425	-0.16742	-1.729589
N	-0.218161	1.266261	0.770406
H	-0.832009	1.825648	0.200325
H	-0.844354	0.999272	1.51597
C	-0.346097	-1.226062	0.723165
N	-0.613143	-2.208216	1.307753
N	0.307253	-1.244288	-2.125057
O	1.348956	-1.134836	-2.765022
O	-0.361533	-2.272778	-2.034909
C	0.134123	1.243369	-2.241172
H	-0.041144	1.130896	-3.314615
H	-0.475735	2.082154	-1.904186
H	1.18778	1.458653	-2.076376
Cl	-2.784159	0.0	0.0
