17

C	0.0	0.0	0.0
C	-0.506841	-0.094339	-1.447264
F	1.37413	0.0	0.0
H	-1.599426	-0.058218	-1.420252
N	-0.496301	1.208423	0.574663
H	-0.210189	1.24782	1.546565
H	-1.522561	1.137803	0.547746
C	-0.351922	-1.235307	0.76186
N	-0.56336	-2.213382	1.376939
N	-0.16286	-1.433825	-2.028136
O	1.029492	-1.730412	-2.115188
O	-1.09252	-2.139729	-2.414269
C	0.109593	0.980219	-2.322493
H	-0.108411	1.955258	-1.888782
H	-0.321248	0.929075	-3.324788
H	1.18913	0.844927	-2.385027
Cl	-3.546626	0.0	0.0
