17

C	0.0	0.0	0.0
C	-0.476645	-0.02643	-1.458491
F	1.404249	0.0	0.0
H	-1.508007	-0.389373	-1.456441
N	-0.489679	1.161582	0.654979
H	-1.51494	1.117324	0.569219
H	-0.267217	1.091688	1.642733
C	-0.318379	-1.26735	0.720188
N	-0.461355	-2.209701	1.406908
N	0.345564	-1.064937	-2.167762
O	1.241459	-0.690339	-2.923392
O	0.071156	-2.240811	-1.931763
C	-0.355167	1.316786	-2.140192
H	-1.090328	1.991732	-1.705165
H	0.642773	1.734905	-2.014174
H	-0.563148	1.207638	-3.205687
Cl	-3.454249	0.0	0.0
