17
Coordinates from ORCA-job run
  C   -0.71852821133742     -0.51117926237943      0.15812314027629
  C   0.39089180935637      0.49856537456773      0.40294522675104
  F   -1.12335878542176     -1.09702944782534      1.32877853027080
  H   -0.00236083031636      1.22624152432549      1.11616899905588
  N   -0.36612657585423     -1.49212330933989     -0.76867795608237
  H   -1.17146011787146     -2.05180377666463     -1.02192123644893
  H   0.01023184363772     -1.03102309070201     -1.58872576922377
  N   -2.00281561343480      0.27280202189230     -0.27533727444493
  O   -2.15572866014897      1.41066477269812      0.15751434198779
  O   -2.79788806310981     -0.33270656458167     -0.98662159185132
  N   0.66317223169964      1.12347997422706     -0.89464067351739
  H   1.65936834708704      1.21558789520992     -1.04624697393570
  H   0.23999255178104      2.03987637345140     -0.95406003229766
  C   1.61422695919078     -0.19048054881934      0.98388937581446
  H   2.37552474913915      0.55576201267902      1.22416878026835
  H   2.02497499907284     -0.90743115889602      0.27029218075895
  H   1.35888336653023     -0.73020278984270      1.89635093261852
