17
Coordinates from ORCA-job run
  C   -0.80465679278314     -0.23639397603756     -0.16518226330876
  C   0.60748225815762      0.00041944683254      0.36147323441310
  F   -1.30050700208593      0.97777470490580     -0.63393452391012
  H   1.01601454846748     -0.98451075333917      0.59291837363070
  N   -1.62970451243974     -0.84600679505631      0.78035659574456
  H   -1.48242990211606     -0.39673484164595      1.67639142330444
  H   -2.60006559467717     -0.82897697270203      0.49351657056097
  N   -0.82179083094280     -1.14417874849004     -1.38986546464513
  O   0.13820539852753     -1.88847780839138     -1.56230625675097
  O   -1.83886563667450     -1.10224964412067     -2.07231937318967
  N   0.44064241847014      0.72551361421882      1.62466285351557
  H   1.26328549125382      0.60411944817622      2.20075848954983
  H   0.33902217097942      1.71650174885333      1.43600783967687
  C   1.49585323636654      0.71320921079907     -0.65163502200141
  H   1.61940287589898      0.13258841942458     -1.56623670686059
  H   2.48500196982716      0.87026266018741     -0.21557097327930
  H   1.07410990377065      1.68714028638533     -0.90803479645008
