17
Coordinates from ORCA-job run
  C   -0.78537498809099     -0.44745676689435      0.12870724599257
  C   0.39740920859773      0.52732918921042      0.24477685691157
  F   -0.99241082393755     -1.08367910639657      1.31695135982405
  H   0.03627032707558      1.40498627146840      0.80205730654158
  N   -0.67842896444070     -1.35664197128393     -0.93066644271253
  H   -0.84503505296691     -2.30843545961877     -0.64475449467736
  H   0.17564188806332     -1.21483241371350     -1.45244548471826
  N   -2.06709591895912      0.40446720900631     -0.07439541093015
  O   -1.98986757462820      1.22993331644898     -0.97997943536915
  O   -3.03795234040603      0.20307453394466      0.64034412444676
  N   0.87344680981943      0.84067861902455     -1.09783536962474
  H   1.73649215912572      1.36596123537754     -1.03822039907457
  H   0.18627942219769      1.39805282813198     -1.59077161252972
  C   1.52885960257631     -0.12419679640280      1.02748907022160
  H   2.36893432735346      0.57159379075643      1.09897880627287
  H   1.87449524281731     -1.02343868843363      0.51399097986465
  H   1.21833667580296     -0.38539579062573      2.03777289956083
