15

C	0.0	0.0	0.0
C	-0.437539	-0.002413	-1.468611
F	1.389152	0.0	0.0
H	-1.532225	0.018106	-1.407073
H	-0.374843	-0.875075	0.531121
C	-0.41701	1.225128	0.706931
N	-0.476389	2.255202	1.271578
C	0.044463	-1.274733	-2.146123
H	1.135343	-1.361082	-2.10982
H	-0.263604	-1.259154	-3.193142
H	-0.39274	-2.153611	-1.662848
N	0.045974	1.170771	-2.195888
H	-0.482565	1.978486	-1.882894
H	1.016751	1.336715	-1.948439
H	-2.853625	0.0	0.0
