15

C	0.0	0.0	0.0
C	-0.564264	-0.305702	-1.40804
F	1.38759	0.0	0.0
H	-1.296881	-1.106339	-1.243257
H	-0.335826	-0.765301	0.702802
C	-0.38473	1.317083	0.542114
N	-0.474532	2.369836	1.055327
C	0.536257	-0.786638	-2.342549
H	1.0439	-1.672088	-1.949088
H	0.091313	-1.053261	-3.309036
H	1.277556	-0.00173	-2.503435
N	-1.218306	0.880441	-1.943323
H	-2.07304	0.936952	-1.357224
H	-1.545826	0.644634	-2.878286
H	-2.946093	0.0	0.0
