15

C	0.0	0.0	0.0
C	-0.186824	-0.1052	-1.551874
F	1.387709	0.0	0.0
H	0.467888	0.714868	-1.899497
H	-0.357661	-0.884697	0.518386
C	-0.591508	1.216573	0.55918
N	-0.557495	2.313261	1.017556
C	-1.510106	0.074847	-2.265305
H	-1.993721	1.005102	-1.980401
H	-2.194648	-0.73103	-2.019757
H	-1.295632	0.087882	-3.350117
N	0.369543	-1.416425	-1.93916
H	1.352099	-1.428599	-1.693281
H	0.311671	-1.49497	-2.948863
H	-2.335411	0.0	0.0
