17

C	0.0	0.0	0.0
C	-0.236626	-0.149932	-1.56308
Cl	1.740698	0.0	0.0
H	0.328206	0.70652	-1.945214
N	-0.485628	1.346509	0.495598
O	-0.606652	1.522541	1.694171
O	-0.561022	2.21197	-0.369498
N	-0.478059	-1.184304	0.812398
O	-0.733681	-2.193354	0.172537
O	-0.428211	-1.093602	2.029355
C	-1.586795	-0.120546	-2.277411
H	-2.194465	-0.972945	-1.997685
H	-2.129033	0.776655	-2.007752
H	-1.361979	-0.136218	-3.353567
C	0.489645	-1.330302	-2.061117
N	1.027613	-2.239313	-2.575653
F	-2.282966	0.0	0.0
