17

C	0.0	0.0	0.0
C	-0.236552	-0.018646	-1.571614
Cl	1.740772	0.0	0.0
H	0.335878	0.861154	-1.882332
N	-0.485211	1.300107	0.605996
O	-0.568271	2.232628	-0.186687
O	-0.595786	1.379065	1.816159
N	-0.474028	-1.247031	0.710818
O	-0.713411	-2.20624	-0.00816
O	-0.43413	-1.252514	1.931372
C	-1.586267	0.079494	-2.281526
H	-2.202279	-0.785902	-2.066304
H	-2.119702	0.959551	-1.945635
H	-1.361466	0.142106	-3.355931
C	0.482682	-1.158138	-2.166597
N	1.026985	-1.986491	-2.79694
F	-2.277863	0.0	0.0
