17

C	0.0	0.0	0.0
C	-0.261505	0.005918	-1.55882
Cl	1.73997	0.0	0.0
H	0.471869	0.742185	-1.900068
N	-0.470742	1.3053	0.62361
O	-0.835397	1.348549	1.779681
O	-0.300844	2.272693	-0.118308
N	-0.446231	-1.225105	0.763698
O	-0.232368	-1.201276	1.969195
O	-0.842644	-2.183468	0.120275
C	-1.565453	0.410436	-2.243138
H	-1.325678	0.507982	-3.311777
H	-1.901507	1.364365	-1.850539
H	-2.34662	-0.315687	-2.063928
C	0.20469	-1.262495	-2.136766
N	0.564834	-2.210578	-2.729968
F	-2.296606	0.0	0.0
