17

C	0.0	0.0	0.0
C	-0.422746	-0.147364	-1.491343
Cl	1.740154	0.0	0.0
H	0.400977	-0.704775	-1.953367
N	-0.416452	1.289895	0.735637
O	-0.930896	1.249079	1.83274
O	-0.077034	2.311693	0.145328
N	-0.348339	-1.264733	0.79072
O	-0.30106	-1.217783	2.008991
O	-0.473535	-2.277732	0.11706
C	-0.565633	1.17442	-2.250491
H	-1.417432	1.717735	-1.848618
H	-0.759624	0.92799	-3.297362
H	0.330889	1.788404	-2.18286
C	-1.627984	-0.940264	-1.770754
N	-2.349648	-1.623648	-2.40633
F	-2.291528	0.0	0.0
