18

C	0.0	0.0	0.0
C	-0.266724	-0.148684	-1.555343
Cl	1.823742	0.0	0.0
H	0.385338	-0.979383	-1.849766
N	-0.587922	1.098176	0.593854
H	-0.399137	1.11684	1.589913
H	-1.608612	0.935781	0.461858
N	-0.333773	-1.324706	0.76003
O	-0.369202	-2.365765	0.120916
O	-0.531351	-1.213915	1.967141
C	0.233794	1.134586	-2.236908
H	1.321589	1.237596	-2.258371
H	-0.189893	2.006118	-1.73045
H	-0.10608	1.132905	-3.271504
N	-1.621847	-0.482415	-1.962412
H	-1.921934	0.126904	-2.716513
H	-2.302781	-0.34553	-1.182986
H	-3.16349	0.0	0.0
