18

C	0.0	0.0	0.0
C	-0.383021	0.287358	-1.503876
Cl	1.774862	0.0	0.0
H	0.395244	-0.197949	-2.098466
N	-0.604261	0.755993	1.022337
H	-1.625768	0.569526	0.934961
H	-0.44909	1.738378	0.828884
N	-0.33667	-1.487935	0.276987
O	-0.034124	-2.278156	-0.614148
O	-0.843813	-1.784441	1.34671
C	-0.319915	1.795132	-1.733546
H	-0.389141	1.978566	-2.807013
H	-1.182256	2.273566	-1.262837
H	0.602919	2.246526	-1.355281
N	-1.658929	-0.20142	-1.963082
H	-2.40539	-0.008359	-1.253752
H	-1.612628	-1.211612	-2.034001
H	-3.347771	0.0	0.0
