18

C	0.0	0.0	0.0
C	-0.582101	-0.348917	-1.393912
Cl	1.828505	0.0	0.0
H	-1.458505	-0.955261	-1.136112
N	-0.575847	1.136155	0.539322
H	-0.337929	1.197194	1.524636
H	-1.61773	0.928099	0.446884
N	-0.223656	-1.249919	0.95442
O	-0.244526	-2.37136	0.462169
O	-0.315954	-1.00451	2.152785
C	0.347318	-1.125823	-2.313933
H	0.780833	-1.996688	-1.822622
H	1.151688	-0.487236	-2.687088
H	-0.245971	-1.451858	-3.170881
N	-1.124707	0.810403	-2.086361
H	-0.555692	1.62352	-1.879889
H	-2.031802	0.970023	-1.640051
H	-2.974621	0.0	0.0
