18

C	0.0	0.0	0.0
C	-0.2619	0.080597	-1.552948
Cl	1.782052	0.0	0.0
H	0.339178	0.964189	-1.790996
N	-0.652432	1.018482	0.684916
H	-1.690977	0.795458	0.537309
H	-0.449119	0.941264	1.67692
N	-0.353359	-1.394781	0.609011
O	-0.236827	-1.468796	1.828784
O	-0.731832	-2.304223	-0.118811
C	-1.653505	0.362018	-2.101964
H	-1.516976	0.5433	-3.179888
H	-2.124391	1.228089	-1.644199
H	-2.33648	-0.465208	-1.935582
N	0.384944	-1.040098	-2.25079
H	0.504234	-0.757429	-3.21709
H	-0.257822	-1.822167	-2.240547
H	-3.152802	0.0	0.0
