18

C	0.0	0.0	0.0
C	-0.267214	-0.023025	-1.555966
Cl	1.769949	0.0	0.0
H	0.321472	0.853643	-1.847485
N	-0.65145	1.06558	0.610424
H	-1.689814	0.826553	0.48242
H	-0.444672	1.060567	1.604804
N	-0.35525	-1.350004	0.708931
O	-0.288777	-1.321258	1.933844
O	-0.669604	-2.330857	0.045142
C	-1.660798	0.204862	-2.125676
H	-1.516586	0.344557	-3.208907
H	-2.324716	-0.633254	-1.936244
H	-2.157899	1.075683	-1.707984
N	0.396058	-1.173875	-2.188072
H	0.429527	-0.978537	-3.182677
H	-0.202378	-1.980283	-2.058893
H	-3.127142	0.0	0.0
