18

C	0.0	0.0	0.0
C	-0.279775	0.100686	-1.546379
Cl	1.78099	0.0	0.0
H	0.475035	-0.566526	-1.977885
N	-0.282461	1.186832	0.77902
H	-1.300242	1.184119	0.858207
H	0.089858	0.995674	1.706303
N	-0.651846	-1.206604	0.562854
O	-0.647039	-2.237109	-0.182712
O	-0.624543	-1.293902	1.822514
C	-0.038151	1.524299	-2.032359
H	0.925473	1.917886	-1.712336
H	-0.081816	1.543461	-3.127735
H	-0.82851	2.16554	-1.643106
N	-1.608217	-0.307422	-2.043639
H	-1.789215	-1.215094	-1.619849
H	-1.461623	-0.488553	-3.038462
H	-2.09565	0.0	0.0
