15

C	0.0	0.0	0.0
C	-0.545584	-0.193064	-1.403714
F	1.384084	0.0	0.0
H	-1.634884	-0.075137	-1.387826
H	-0.080775	0.53777	-2.072601
C	-0.505431	1.312841	0.55918
H	-0.070776	1.467373	1.54918
H	-1.596931	1.273082	0.625629
H	-0.198104	2.129265	-0.098466
C	-0.400017	-1.121293	0.877596
N	-0.675183	-2.022444	1.577026
N	-0.256436	-1.527928	-2.003076
O	0.702393	-2.173222	-1.578303
O	-0.986115	-1.866871	-2.932311
Br	-3.853808	0.0	0.0
