15

C	0.0	0.0	0.0
C	-0.512013	-0.150951	-1.419061
F	1.389092	0.0	0.0
H	-0.325786	0.760052	-1.982692
H	-1.584512	-0.384167	-1.383825
C	-0.491549	1.308595	0.586031
H	-0.111265	1.413921	1.602668
H	-0.1125	2.132722	-0.023226
H	-1.583803	1.309058	0.593368
C	-0.379305	-1.127582	0.877888
N	-0.573241	-1.982365	1.657748
N	0.216655	-1.228747	-2.136088
O	0.173185	-2.359552	-1.654648
O	0.818019	-0.9158	-3.166366
Br	-3.817587	0.0	0.0
