15

C	0.0	0.0	0.0
C	-0.513653	-0.104216	-1.433141
F	1.385918	0.0	0.0
H	-0.256651	-1.069948	-1.863704
H	-1.598943	0.061984	-1.420337
C	-0.477645	1.21536	0.766074
H	-0.067731	1.171445	1.777314
H	-0.126977	2.117892	0.267607
H	-1.568769	1.20459	0.799629
C	-0.393196	-1.243481	0.697878
N	-0.562294	-2.25381	1.271526
N	0.145669	0.90952	-2.297447
O	-0.133514	2.092799	-2.113101
O	0.936917	0.498068	-3.14756
Br	-3.791895	0.0	0.0
