17
Coordinates from ORCA-job run
  C   0.62834788678239     -0.30048041013816      0.02548572961558
  C   -0.79290666017984      0.22281366341822     -0.23841018408797
  Br  0.57201794832667     -2.16321776510956      0.53895096295392
  H   -0.70807933924134      1.28213562082613     -0.48497190052528
  N   1.32110189608690     -0.15219448720777     -1.34109873785984
  O   1.78951424644718     -1.12691983463383     -1.90139146464614
  O   1.35474961912316      1.00839585896083     -1.73855114121617
  C   1.45175913589084      0.48694924720942      1.02659511616314
  H   1.05167253206340      0.36569266308333      2.03069891346384
  H   1.43794814492375      1.54450396502956      0.76135442887971
  H   2.48005153356500      0.12074709399043      1.00930976466003
  N   -1.56893516694162      0.21291290258405      1.08700745057844
  O   -1.29195913047606      1.10434797391077      1.88647667558510
  O   -2.41257813432459     -0.66355584821085      1.24086078854475
  N   -1.41710185732602     -0.48578706894615     -1.28481867027744
  H   -2.25634152897244     -0.02021789026101     -1.60163663611663
  H   -1.63926112574741     -1.43512568450541     -1.01386109571505
