17
Coordinates from ORCA-job run
  C   0.57574412449965     -0.29890267860781      0.06533507518055
  C   -0.85689348162606      0.23837401593696     -0.19368897921065
  Br  0.53006352077203     -2.18147586926440      0.48583578989144
  H   -0.76206374812557      1.30935010327058     -0.37144360729250
  N   1.28142336226819     -0.08774529252220     -1.28419349689118
  O   1.80154779367773     -1.02635490612974     -1.86517124749441
  O   1.26044377892996      1.08062251659864     -1.66714324027341
  C   1.38051693923044      0.45457278497491      1.10708754987973
  H   0.95738435328149      0.29718341327246      2.09712744397541
  H   1.36530034501246      1.52157693399860      0.88020046735359
  H   2.41117395657890      0.09447459426489      1.10204593055830
  N   -1.63130843623011      0.12650849502565      1.10162681177640
  O   -2.38851311212416     -0.82621649091983      1.23051247364818
  O   -1.41710187808883      1.00808437797167      1.93318071765004
  N   -1.59758643718817     -0.35956667164625     -1.24142675351537
  H   -1.55713325275541     -1.36922685885313     -1.23577320276422
  H   -1.35199782811257      0.01874153262899     -2.14411173247188
