17
Coordinates from ORCA-job run
  C   0.64237702376809     -0.27848686412558      0.27530142477245
  C   -0.90116752018348     -0.19702883531828      0.44661699631856
  Br  1.41720214976674     -0.48132542592199      2.04877708704915
  H   -1.24878670849881     -1.17515857859830      0.77878426884471
  N   0.94815528491040     -1.58327049680105     -0.46774405353222
  O   1.59632468444454     -1.49342575907651     -1.50478476450835
  O   0.50158067589267     -2.61013530840815      0.02470864495606
  C   1.26875713539329      0.90018474307633     -0.42707764824911
  H   2.35152434330996      0.78925881635267     -0.45555289611274
  H   1.02681185533234      1.81590862605051      0.11430818209333
  H   0.90346367289728      0.97974853079600     -1.45071668289150
  N   -1.44760759560915     -0.00825423456469     -0.95323160680987
  O   -1.55102851750696     -1.02028128706183     -1.64143132772270
  O   -1.68870936151927      1.14104353995785     -1.30739560054942
  N   -1.44024053639243      0.82765570428265      1.26865831842501
  H   -1.26125887917491      0.64497436493615      2.24526475580655
  H   -1.11939770683025      1.74959246442424      1.00851490211005
