17
Coordinates from ORCA-job run
  C   0.59103615376418     -0.23999134216412      0.46725494648879
  C   -0.79746654001786      0.36522453324857      0.22540795363556
  Br  0.61799550891670     -0.98402067649118      2.25440995681470
  H   -1.02265062095838      0.99322217891700      1.08879211991531
  N   0.92618650655098     -1.33017463406515     -0.55195762685885
  O   0.64012618392339     -1.03642592885501     -1.71054202453045
  O   1.51848434052440     -2.32965011749202     -0.18954167294497
  C   1.67807665208489      0.81237900403444      0.33216198694741
  H   1.67099108933649      1.21022524447543     -0.68210490386066
  H   2.64767425830310      0.36704804720592      0.56093345093501
  H   1.48912213310982      1.62712402479347      1.03203855555508
  N   -1.88571105630307     -0.71392603390310      0.29525753325967
  O   -1.59366855826488     -1.87700237510917      0.03513066692568
  O   -3.01023061166836     -0.28519875537271      0.54198599374144
  N   -0.90061490963389      1.15642283548980     -0.95053560088319
  H   -1.77613244948557      1.66309820183536     -0.95937426829591
  H   -0.79321808018198      0.59964579345251     -1.78731706684465
