17
Coordinates from ORCA-job run
  C   0.55411033941210     -0.33937116303164      0.06352625312147
  C   -0.83895804738399      0.29674636300186     -0.18710545005863
  Br  0.37831606905844     -2.20695294924312      0.51546755991186
  H   -0.66862292045479      1.35502598388612     -0.38405234196432
  N   1.25242789006973     -0.20062985614656     -1.29901175089376
  O   1.32554084403677      0.96225020148407     -1.69204260106989
  O   1.67487923342599     -1.18546051589923     -1.88279021020397
  C   1.42470751649891      0.36955897177225      1.08323183451699
  H   1.00448435913823      0.25764151752100      2.08068018774203
  H   2.42663996950637     -0.06393979690277      1.07152564710028
  H   1.48346905421940      1.43133117555114      0.83998595582836
  N   -1.60196285040497      0.26265029890128      1.11960266434894
  O   -1.31454626442202      1.14111909164243      1.93213160263471
  O   -2.42305764708986     -0.63133968548140      1.27487968403074
  N   -1.63486495464182     -0.26257492913632     -1.21540603542977
  H   -1.37847296979569      0.08645450922881     -2.12685236042627
  H   -1.66308962117279     -1.27250921714793     -1.19677063918876
