17
Coordinates from ORCA-job run
  C   0.66479996087717     -0.25402088255841      0.34452966232806
  C   -0.86219163301574     -0.07024843853753      0.36509701373482
  Br  1.25004771983902     -0.24522115401829      2.20885228090138
  H   -1.31372714648256     -0.97688545369404      0.78436183039141
  N   1.00489472003556     -1.65906765894478     -0.14678441127591
  O   1.98423480975591     -1.77132737666132     -0.87079984386720
  O   0.28797307096479     -2.56825098859407      0.25214343502832
  C   1.40464693397855      0.80545317257658     -0.42922584674912
  H   2.47880643764948      0.69571808813236     -0.29630698799623
  H   1.08191740779786      1.77896646821255     -0.06023789343237
  H   1.18018184901133      0.71507441141097     -1.49280849327886
  N   -1.36830724371751     -0.03814676072285     -1.06975313439132
  O   -0.80266247086508     -0.78016909911280     -1.86564696545224
  O   -2.33261833738466      0.67665706977656     -1.31900553290009
  N   -1.22488419998477      1.17136617508440      0.99185671509998
  H   -2.11170400213023      1.48168078229471      0.61346971628079
  H   -1.32140787632907      1.03842164535592      1.98925845557858
