17
Coordinates from ORCA-job run
  C   0.62556456797198     -0.26191527671647      0.33779675387807
  C   -0.92264866076057     -0.14795947480573      0.41429693157602
  Br  1.28551282069340     -0.36131706528553      2.16573787210958
  H   -1.30217611657550     -1.07571410046190      0.84205501092718
  N   0.93715251558578     -1.61619969369658     -0.30624513847553
  O   0.47990104244263     -2.60552659411779      0.24944337313234
  O   1.58736800176081     -1.59832085715081     -1.34637476168278
  C   1.32105121850840      0.85724713203754     -0.39631878287966
  H   2.39961099306247      0.70902899496045     -0.36912412410613
  H   1.08970032426347      1.80686989030640      0.08779975337621
  H   1.00171496471507      0.89628581817304     -1.43699753246170
  N   -1.40646791285983     -0.12165086014399     -1.01994974724305
  O   -1.59530546544139     -1.20808008541534     -1.56017086563381
  O   -1.53127548536409      0.98279647710142     -1.54052239861366
  N   -1.48401483795255      0.97530094996656      1.07995846040071
  H   -1.34678686857798      0.91442680098658      2.07848974917268
  H   -1.13790110147210      1.85372794426219      0.72012544652351
