17
Coordinates from ORCA-job run
  C   0.63833995955876     -0.16382465878965      0.44257512500096
  C   -0.79984978523950      0.33691363781530      0.25994113035627
  Br  0.85774160553517     -0.72918622945932      2.28141952205706
  H   -1.00696776877106      1.01143391940548      1.09252806786481
  N   0.95817173013637     -1.32520802265977     -0.49800331603813
  O   1.68541037495960     -2.22243818782575     -0.11368106114094
  O   0.51613101414933     -1.18668498209746     -1.63646063182511
  C   1.64513840967219      0.92762937171682      0.12104101126425
  H   1.45603472946437      1.79841450252867      0.74967377741755
  H   2.65411576057147      0.56098858384396      0.31639572761207
  H   1.54081758666878      1.21988281936506     -0.92345587485617
  N   -1.81308604066988     -0.79756614999577      0.48145631112778
  O   -1.44389242727744     -1.96462402627897      0.40192537321192
  O   -2.96400547664373     -0.41134422897431      0.66836714801483
  N   -1.03232439216445      1.03487403984428     -0.95576186754694
  H   -0.95807352516121      0.42140520616017     -1.75576544029147
  H   -1.93570175478886      1.48933440540126     -0.93219500222873
