17
Coordinates from ORCA-job run
  C   0.65690879607867     -0.20994340335788      0.36790349145371
  C   -0.78532548782575      0.32247926572885      0.33798765789925
  Br  0.93344831268514     -1.07078472784348      2.07838562587429
  H   -0.92060149978630      0.93176259072772      1.23270088580860
  N   0.90186381878877     -1.22038614756799     -0.76186892682788
  O   0.71216131954659     -0.75576146022169     -1.88362789755189
  O   1.29802396797566     -2.34286591348066     -0.50631949127032
  C   1.65824373058523      0.91478619290808      0.18100157678386
  H   2.67332938818817      0.51737680469350      0.23290998597715
  H   1.48856640036573      1.39249790300031     -0.78233881826029
  H   1.52883549983722      1.65151694606186      0.97487182694399
  N   -1.76056780935579     -0.83491817521418      0.54580574620532
  O   -2.60187941691477     -0.69833089946070      1.42977213200166
  O   -1.67454508328527     -1.77536349708519     -0.24034920821415
  N   -1.08711944016128      1.09274568065944     -0.81487235261872
  H   -1.03002773406347      0.54600622964460     -1.66369898450834
  H   -1.99131476265854      1.53818261080741     -0.72826324969626
