17
Coordinates from ORCA-job run
  C   0.63215073186058     -0.10627424830917      0.40958419428171
  C   -0.91097400198672      0.07157288070649      0.45474729756955
  Br  1.33108257386489      0.55628564163368      2.10033981096883
  H   -1.29312607626550     -0.55349287808280      1.26153559199250
  N   0.89414346298780     -1.61440350237487      0.38872884469730
  O   0.45805234980854     -2.26141214148848      1.33111631316919
  O   1.47922065265994     -2.05960015375118     -0.59386739461590
  C   1.33471070531482      0.57994054104179     -0.73545202043809
  H   1.15054356313321      1.65354030397041     -0.68149177066546
  H   0.97992803087813      0.20046066968525     -1.69252542828812
  H   2.40858967075390      0.41060903647794     -0.66876878281065
  N   -1.44335262150336     -0.53480294791742     -0.82578162015801
  O   -1.72432198913379     -1.72969030587141     -0.80001821691852
  O   -1.51973188873828      0.21181984734023     -1.79732151785717
  N   -1.43189880637203      1.39078500718354      0.55327158619892
  H   -1.26429536500770      1.78287739454978      1.46865483260189
  H   -1.08072099225437      2.00078485520628     -0.17175171972795
