17
Coordinates from ORCA-job run
  C   0.59384706952209     -0.36392514430157     -0.02127153003802
  C   -0.82037158482914      0.19534608206282     -0.27785645656903
  Br  0.60000638676166     -2.29075178709268      0.18682846867324
  H   -0.68395584209545      1.21608425204051     -0.65786320287936
  N   1.42414895720721     -0.09032834029282     -1.28603612075435
  O   2.63020067726732      0.05387520616635     -1.14688560782480
  O   0.81821313127666     -0.04988901887845     -2.35422462703149
  C   1.28342203129520      0.28494866531196      1.15919381554998
  H   0.76531057685472      0.01577250875034      2.07896861946435
  H   1.27715229485443      1.37228400574737      1.04846485984018
  H   2.31135755534477     -0.06347778069813      1.21901437252900
  N   -1.46097927160854      0.43199599002718      1.08163481462294
  O   -1.90774914067891     -0.53555656946352      1.68305247597543
  O   -1.43473010283466      1.59481288311928      1.48568935450036
  N   -1.67648854428500     -0.65740897767023     -1.03140806042702
  H   -2.51889046809557     -0.15923804819318     -1.29380955102475
  H   -1.20249372595681     -0.95454392663522     -1.87349162460664
