17
Coordinates from ORCA-job run
  C   0.58720188631364     -0.25841468280951      0.46478617894086
  C   -0.91115413436066      0.00529653313279      0.23309571480516
  Br  0.88802794850119     -0.11138702666844      2.38894669272506
  H   -1.47688356228813     -0.84151571494372      0.63828408513669
  N   0.90593492953168     -1.71723692239831      0.14678544590964
  O   0.08597799996857     -2.55021288123652      0.51188476681069
  O   1.96774267481937     -1.94261840421949     -0.41728348128021
  C   1.49845305866137      0.68857900281633     -0.27114982853365
  H   1.43116126899935      0.51189668306608     -1.34551788523700
  H   1.18454905705732      1.70615282343465     -0.03809087627421
  H   2.53196933215468      0.54052862944863      0.03459617332326
  N   -1.18291717975771     -0.05166129202954     -1.26322948350207
  O   -0.58024255813373     -0.91543702822286     -1.89145740705270
  O   -2.01159550479765      0.72358181978324     -1.72730017425372
  N   -1.28587992256199      1.30835327004662      0.70804241162547
  H   -1.57175455175363      1.25491690732718      1.67591626594643
  H   -2.05959074235364      1.65117828347290      0.15169140091030
