17
Coordinates from ORCA-job run
  C   0.61567387128548     -0.26599061739601      0.40222436798863
  C   -0.78567800000345      0.35338460299487      0.29407349229073
  Br  0.71980048216024     -1.18547286240549      2.10156369236419
  H   -0.94555095166282      0.93858652866602      1.20066812244967
  N   0.89236469268820     -1.25526767004829     -0.73687425512424
  O   0.72526920241877     -0.77605137343931     -1.85595520199335
  O   1.30993149570347     -2.37107213686556     -0.48808565956354
  C   1.69164390581504      0.80167690836189      0.31922999866624
  H   1.54769069338930      1.52819875266404      1.11988254327380
  H   1.62023900570806      1.31019113642960     -0.64111541714375
  H   2.67514106918818      0.34261607976293      0.43338412096333
  N   -1.84872532337682     -0.74030710539000      0.39261766516553
  O   -1.69038467772947     -1.74559850024186     -0.29510792242158
  O   -2.82719867409953     -0.48075873637498      1.08822694901588
  N   -0.96689432913194      1.18688434297367     -0.84098442158639
  H   -1.84536696277989      1.68576166081071     -0.78702982340433
  H   -0.88895549957280      0.67221898949778     -1.70771825094081
