17
Coordinates from ORCA-job run
  C   0.57163095607790     -0.29041841069913      0.38254465534984
  C   -0.84900293461986      0.32711461196384      0.31984982603096
  Br  0.75655423090887     -1.22575035661907      2.06458842120980
  H   -0.96359312035594      0.93526606429702      1.21783150576233
  N   0.79584371440492     -1.26349752373900     -0.77955819431275
  O   1.01247659672406     -2.44232140469106     -0.56561958531904
  O   0.76238200517411     -0.72149294067929     -1.88424134236408
  C   1.63190060471053      0.79099743352163      0.27786276744713
  H   1.53853639975700      1.31062068810399     -0.67527893864229
  H   1.51382566068405      1.49971001621968      1.09923123859213
  H   2.62617920602579      0.34678744507088      0.34477630124650
  N   -1.87411887245660     -0.77314828102591      0.46529921077165
  O   -1.85488438140916     -1.63324582928776     -0.41089450269068
  O   -2.66412577562952     -0.69325115025081      1.39800891880646
  N   -1.20721665736502      1.08469963173298     -0.83039135488966
  H   -0.95987239233261      2.05800383212894     -0.73880917563315
  H   -0.83651524029850      0.69092617395309     -1.68419975136518
