15

C	-0.720126	-0.004411	-1.440235
C	0.016777	0.054838	-0.106891
Br	-0.208246	1.415137	-2.647447
H	1.105725	0.087241	-0.241468
H	-1.801485	0.044181	-1.325026
N	-0.452679	-1.332831	-2.094531
O	-1.409076	-2.10892	-2.117847
O	0.678168	-1.561349	-2.497172
C	-0.278706	-1.180298	0.750375
H	-1.35279	-1.326669	0.900036
H	0.16229	-2.060444	0.282386
H	0.231695	-1.052655	1.703254
C	-0.423074	1.270806	0.574953
N	-0.832547	2.226419	1.121809
Cl	3.042003	-0.569705	0.926935
