17

C	0.0	0.0	0.0
C	-0.274477	0.208724	-1.561057
Br	1.982553	0.0	0.0
H	0.486574	-0.450827	-1.986644
N	-0.365822	1.173427	0.957758
O	-0.788288	2.233197	0.515585
O	-0.22571	0.922438	2.151812
N	-0.599619	-1.180013	0.434706
H	-1.632251	-0.93637	0.339945
H	-0.376849	-1.329657	1.412613
N	0.076599	1.562302	-1.975108
H	-0.061206	1.557477	-2.980209
H	-0.617411	2.191351	-1.589668
N	-1.534077	-0.238493	-2.100248
H	-1.533134	-1.25269	-2.0637
H	-2.282704	0.033688	-1.430879
F	-2.913541	0.0	0.0
