17

C	0.0	0.0	0.0
C	-0.279139	-0.181412	-1.562195
Br	1.94581	0.0	0.0
H	0.52366	0.365522	-2.060014
N	-0.283802	1.481627	0.419421
O	-0.089222	2.361443	-0.4086
O	-0.642877	1.658822	1.580695
N	-0.679849	-0.910751	0.787178
H	-0.522801	-0.699064	1.766854
H	-1.708792	-0.706255	0.563232
N	-1.547	0.314104	-2.028338
H	-2.242229	0.335438	-1.254334
H	-1.87384	-0.380262	-2.687583
N	-0.099867	-1.592301	-1.914802
H	0.883898	-1.8326	-1.827716
H	-0.607213	-2.138482	-1.225249
F	-3.024761	0.0	0.0
