17

C	0.0	0.0	0.0
C	-0.524404	0.03977	-1.492374
Br	1.938627	0.0	0.0
H	0.342452	0.110342	-2.153553
N	-0.285837	1.392213	0.668333
O	0.294744	2.36547	0.210378
O	-1.061896	1.408894	1.613405
N	-0.556023	-0.974546	0.850781
H	-1.568272	-0.717001	0.838009
H	-0.480785	-1.847362	0.335837
N	-1.364368	1.204293	-1.708247
H	-1.63624	1.200723	-2.686889
H	-2.202045	1.009936	-1.131215
N	-1.167054	-1.26214	-1.714515
H	-2.069528	-1.148648	-1.230467
H	-1.355459	-1.333285	-2.7095
F	-2.953758	0.0	0.0
