17

C	0.0	0.0	0.0
C	-0.52716	0.146587	-1.445452
Br	1.925554	0.0	0.0
H	-1.544389	0.504272	-1.266055
N	-0.324715	1.337213	0.763411
O	-0.613747	2.347231	0.136145
O	-0.24038	1.268816	1.987306
N	-0.605298	-1.076898	0.648353
H	-0.357431	-1.059297	1.631742
H	-1.649924	-0.820989	0.508746
N	-0.533134	-1.180714	-2.070654
H	-0.562002	-1.870254	-1.325381
H	-1.414701	-1.263951	-2.565228
N	0.25381	1.078478	-2.240882
H	0.732271	0.531003	-2.946706
H	-0.367267	1.734743	-2.693491
F	-2.832216	0.0	0.0
