17

C	0.0	0.0	0.0
C	-0.459151	0.011055	-1.468106
Br	1.950707	0.0	0.0
H	-1.538091	0.180541	-1.327429
N	-0.374444	1.345897	0.663604
O	-0.94259	2.198658	-0.004678
O	-0.076612	1.457997	1.847138
N	-0.584947	-0.99686	0.795845
H	-0.471047	-1.856811	0.266002
H	-1.621982	-0.72242	0.67451
N	-0.274478	-1.347291	-1.980917
H	-0.884709	-1.477304	-2.777708
H	0.685408	-1.464632	-2.290018
N	0.15983	1.072991	-2.251115
H	0.945164	0.710408	-2.778979
H	-0.520634	1.457422	-2.893579
F	-2.820281	0.0	0.0
