17

C	0.0	0.0	0.0
C	-0.519467	0.024646	-1.492053
Br	1.958902	0.0	0.0
H	0.348728	0.0817	-2.152291
N	-0.278555	1.395646	0.659082
O	0.304468	2.364709	0.194943
O	-1.055129	1.420207	1.604228
N	-0.545807	-0.970241	0.859979
H	-0.475244	-1.845485	0.347235
H	-1.55772	-0.71615	0.859834
N	-1.35251	1.191982	-1.721484
H	-1.622236	1.182327	-2.698882
H	-2.191299	1.005349	-1.144567
N	-1.170128	-1.275336	-1.700881
H	-1.365488	-1.35064	-2.693772
H	-2.068798	-1.148402	-1.214414
F	-2.940038	0.0	0.0
