17

C	0.0	0.0	0.0
C	-0.694183	0.179784	-1.386322
Br	1.981011	0.0	0.0
H	-1.345701	1.041779	-1.238782
N	-0.235902	1.27341	0.867621
O	-0.31032	2.354308	0.297944
O	-0.269615	1.103214	2.079685
N	-0.480443	-1.086303	0.672137
H	-0.016717	-1.360078	1.517957
H	-0.86764	-1.785232	0.0537
N	-1.502281	-1.008991	-1.628631
H	-1.790894	-0.966758	-2.600593
H	-2.362476	-0.764147	-1.000731
N	0.264436	0.504203	-2.428055
H	-0.257769	0.848924	-3.225575
H	0.725873	-0.355039	-2.710657
F	-3.124822	0.0	0.0
