18

C	-0.496018	0.02686	-1.440252
C	0.0	0.0	0.0
F	-0.080031	-1.147988	-2.041091
H	1.087479	0.0	0.0
N	-1.870548	0.272252	-1.61179
H	-2.108047	0.164592	-2.590657
H	-2.388083	-0.384593	-1.041045
N	0.197294	1.125209	-2.247894
O	0.757566	2.033576	-1.652767
O	0.060057	1.024107	-3.462792
N	-0.439499	-1.311749	0.592179
O	0.38435	-1.967537	1.214119
O	-1.634312	-1.617621	0.476899
C	-0.538345	1.094565	0.90352
H	-0.191668	2.058625	0.539371
H	-1.628529	1.084384	0.940193
H	-0.130974	0.942531	1.905422
Br	3.502673	0.0	0.0
