18

C	-0.425509	0.037793	-1.457663
C	0.0	0.0	0.0
F	-1.701701	0.487701	-1.633336
H	1.08952	0.0	0.0
N	0.467748	0.878047	-2.151884
H	1.440376	0.676769	-1.907332
H	0.315778	0.840793	-3.152336
N	-0.421796	-1.377827	-2.077586
O	-1.307114	-1.656996	-2.880368
O	0.549034	-2.068737	-1.788963
N	-0.517436	-1.188187	0.732071
O	0.030365	-1.465355	1.793859
O	-1.511339	-1.759287	0.276738
C	-0.482902	1.235543	0.744133
H	-1.571804	1.240196	0.833282
H	-0.15983	2.123433	0.201612
H	-0.026448	1.243116	1.734532
Br	3.462645	0.0	0.0
