11

C	0.0	0.0	0.0
C	-0.411921	0.015461	-1.475444
Cl	1.796695	0.0	0.0
H	-1.499447	0.025753	-1.532643
H	0.021434	0.907128	-1.940088
H	0.001373	-0.878852	-1.955879
C	-0.413065	1.192689	0.739689
N	-0.680685	2.128875	1.399655
C	-0.410431	-1.2145	0.707293
N	-0.692407	-2.175764	1.321702
Br	-3.535028	0.0	0.0
