11

C	0.0	0.0	0.0
C	-0.471588	0.004614	-1.451448
Cl	1.796645	0.0	0.0
H	-0.083793	-0.885747	-1.949366
H	-1.564511	0.005154	-1.442243
H	-0.083365	0.898218	-1.943337
C	-0.417336	1.207649	0.721444
N	-0.586123	2.221382	1.290582
C	-0.414073	-1.213973	0.713946
N	-0.57244	-2.231733	1.278891
Br	-3.576498	0.0	0.0
