15
Coordinates from ORCA-job run
  C   -0.41809924149337     -0.53607037483567      0.37965666837935
  C   0.94007199299540      0.18739901318706      0.24254834567136
  Br  -0.12116097303281     -1.95617274029984      1.70260083889622
  H   1.70335753411828     -0.54267268640656     -0.03289156236425
  C   -0.86078949377338     -1.15908187186067     -0.94045860880596
  H   -0.06999472901902     -1.79604413119150     -1.34072131804957
  H   -1.09578056714923     -0.37573780348316     -1.66510430952460
  H   -1.75598576394950     -1.75922398380107     -0.77749337544256
  C   -1.44303841176514      0.35626743300649      0.90963366203931
  N   -2.29937682473882      1.05568228941381      1.31006670495456
  C   1.32097651959900      0.91856373848528      1.44232943465587
  N   1.64544883331405      1.50246535786555      2.40867309768690
  N   0.85164560248551      1.14912383225450     -0.92686001696379
  O   1.38054109855911      0.77194702488845     -1.96742282084673
  O   0.22118442384992      2.18355490277733     -0.74455674028611
