15
Coordinates from ORCA-job run
  C   -0.38826963176828     -0.55487870348242      0.05479346749037
  C   0.61624836336853      0.61987597101486      0.09638073726362
  Br  0.38167742058525     -2.02988757609148     -0.97402728519758
  H   0.22225428506403      1.37709577375431      0.78258865836174
  C   -1.69083921681811     -0.10549400442487     -0.60804567856107
  H   -2.11374799937211      0.73756630647762     -0.05389901630756
  H   -2.40658931966500     -0.92752864003017     -0.59583952066438
  H   -1.50833866685159      0.19038534443029     -1.64149544170528
  C   -0.66426238941290     -1.03649896641351      1.40562749640992
  N   -0.97356843925156     -1.41567249466646      2.47482761707284
  C   0.83021166819774      1.19622450141948     -1.22313768232249
  N   0.94884727184060      1.69460714547487     -2.28016851316373
  N   1.94039907401699      0.19173943308493      0.70134285458728
  O   2.88808890459134      0.02818345059800     -0.05487071590044
  O   1.91888867547506      0.03628245885457      1.91692302263676
