15
Coordinates from ORCA-job run
  C   -0.38858504394308     -0.60611356429675      0.34450782438506
  C   0.74450180545295      0.44292997925669      0.49674930394013
  Br  0.39059130082510     -2.37971225612689      0.63804275029520
  H   1.17640166042277      0.37142649668087      1.49705113595257
  C   -1.11382291986701     -0.57939480365970     -0.99734922426789
  H   -1.53598428188840      0.41389275665842     -1.16870735633518
  H   -1.92313115804902     -1.30972683890153     -0.97601392567352
  H   -0.43043099047307     -0.82292434535272     -1.80819077516065
  C   -1.32693073298095     -0.35190022690745      1.43565355641294
  N   -2.09406880302518     -0.12340215663016      2.29743486278710
  C   0.23178378334090      1.78493514048573      0.24540085169925
  N   -0.20593910679943      2.85863751795130      0.05564944427570
  N   1.88549694596020      0.16803457762741     -0.45932036489087
  O   2.93187864094433     -0.21448344788071      0.04900024250243
  O   1.66023890007987      0.34680117109549     -1.65090832592226
