15
Coordinates from ORCA-job run
  C   -0.30693061872215     -0.60297405757179      0.05508300025394
  C   0.52282916347931      0.70101876183880      0.09553231654742
  Br  0.67037704440867     -1.96208941931349     -0.95678406512804
  H   0.01868382858359      1.40092509852646      0.77043607315857
  C   -1.65387265288954     -0.34414751685255     -0.62073075920070
  H   -2.24846547291692     -1.25775972430620     -0.60687761400173
  H   -1.50598285550775     -0.03282763389504     -1.65526477734907
  H   -2.19438028698032      0.43570947688994     -0.07611923101800
  C   -0.52529157805971     -1.11087693425962      1.40683470671897
  N   -0.79073131013783     -1.52724678337971      2.47404255061769
  C   0.66871790434208      1.29115828462921     -1.22708336858480
  N   0.72782108632546      1.79210780744162     -2.28790754893115
  N   1.88655059714647      0.46717426074437      0.71856546541025
  O   2.85640874712939      0.42932303064498     -0.02605179943446
  O   1.87226640379924      0.32050534886302      1.93532505094113
