17
Coordinates from ORCA-job run
  C   0.37116337034700      0.48847475600747     -0.47981274719899
  C   -0.89346206332701     -0.19439114738799      0.03762742450682
  F   0.20166144814766      0.72020712659952     -1.83086237557794
  H   -1.71291141070246      0.50680276556193     -0.16263365882851
  C   1.65379936555686     -0.25241680259402     -0.25146141890500
  H   1.84242075410011     -0.36649349545951      0.81380256828420
  H   1.56999821021195     -1.23204136381563     -0.72035859805128
  H   2.48178080131762      0.30204946168866     -0.69285504002267
  N   0.41092983944428      1.87025569569275      0.15738452589638
  O   1.36496631764077      2.15496893327240      0.87222445618095
  O   -0.53851626928829      2.60227951371157     -0.10560190521028
  N   -0.77143641541946     -0.34701560995280      1.46764376539335
  H   -0.30952431407365     -1.22471510821637      1.67489090471413
  H   -1.67592324033286     -0.34040810012409      1.91769638608199
  N   -1.02579259773577     -1.47035717926755     -0.65887600621956
  H   -1.07256909718939     -1.31077679889052     -1.65969664193107
  H   -1.89758469869736     -1.90542264682582     -0.37911163911252
