17
Coordinates from ORCA-job run
  C   0.53631596335599      0.16429152147010     -0.41442382469520
  C   -0.64977526643237     -0.34478415539601      0.41147188056220
  F   0.65060875121063     -0.59010568399630     -1.54236691289950
  H   -0.59267946014682      0.13837532226484      1.39437143092316
  C   1.85104182379407      0.18490005259794      0.32019574422999
  H   2.05519706525534     -0.82459785783952      0.67450272274649
  H   1.80459415011914      0.87039307700949      1.16653450100281
  H   2.64094387641268      0.50220089410082     -0.36325288128327
  N   0.22542585548324      1.57967147773793     -0.86491105298093
  O   0.40073508715964      1.87443208250533     -2.03676515381476
  O   -0.15495499393107      2.33495745314562      0.02993377753667
  N   -0.43105475109479     -1.75950323249847      0.59881877378184
  H   -1.04527631229342     -2.12438204227805      1.31475665201236
  H   -0.61622908423443     -2.24092372540977     -0.27344224686686
  N   -1.88743394335176     -0.05125621211012     -0.30846566121659
  H   -2.62843020204901     -0.63100203362694      0.06504365512430
  H   -2.15802855925704      0.91633306232312     -0.17200140416271
