17
Coordinates from ORCA-job run
  C   0.49739221708248      0.24843847914375     -0.37891543965974
  C   -0.67801624501390     -0.27473354580887      0.44152579241975
  F   0.44375489303849     -0.35788681281456     -1.61146185370348
  H   -0.64963680405343      0.23560094107118      1.40665910535611
  C   1.86469311589906      0.05919214937678      0.21774848571857
  H   1.92653876007997      0.56700240812837      1.17919258701418
  H   2.61500191638731      0.47260171945267     -0.45941099418505
  H   2.03854846828929     -1.00563308303491      0.35864641507608
  N   0.26048271986645      1.73023859798524     -0.60220499246763
  O   0.25744335021724      2.40537518324331      0.42206546835383
  O   0.11165239557278      2.13197710822672     -1.74559415539576
  N   -0.44202256821366     -1.69249131622420      0.67819462658013
  H   -0.55062245395316     -2.20419385544008     -0.19040209975305
  H   -1.12188920766652     -2.04964603239212      1.33787828008514
  N   -1.89246560004180      0.13988518953368     -0.23743121331923
  H   -1.97341851604457     -0.32264629982591     -1.13511394880304
  H   -2.70843644144604     -0.08208083062105      0.31762393668320
