15

C	0.0	0.0	0.0
C	-0.535417	0.005351	-1.438887
Cl	1.792841	0.0	0.0
H	-1.639429	-0.113034	-1.334268
N	-0.480352	1.208063	0.606938
H	-1.507975	1.148785	0.58578
H	-0.184278	1.232292	1.576923
C	-0.373295	-1.217976	0.751466
N	-0.594283	-2.098151	1.499449
N	-0.037359	-1.155036	-2.256973
O	0.275176	-0.938527	-3.423653
O	-0.032373	-2.248401	-1.70346
C	-0.221036	1.257796	-2.11007
N	-0.007276	2.266626	-2.672221
Br	-3.57966	0.0	0.0
