15

C	0.0	0.0	0.0
C	-0.537247	0.106954	-1.434632
Cl	1.790756	0.0	0.0
H	-1.641313	-0.016774	-1.32561
N	-0.479967	1.162402	0.691306
H	-1.508124	1.10922	0.666078
H	-0.188124	1.109984	1.661652
C	-0.3793	-1.267269	0.664253
N	-0.603188	-2.198388	1.34686
N	-0.048292	-0.994209	-2.33796
O	0.040227	-2.111117	-1.842995
O	0.173028	-0.706373	-3.509285
C	-0.224456	1.40046	-2.02143
N	-0.006888	2.43501	-2.534191
Br	-3.574214	0.0	0.0
