13
Coordinates from ORCA-job run
  C   0.53352474264404      0.62650575177153      0.16440286210220
  C   -0.24460735947652     -0.43772997246134     -0.19663181069116
  N   0.79818385916363      0.98534622462009      1.51704891566212
  H   0.81572697539284      0.16513885401928      2.10892790130116
  H   0.15010091491421      1.66758792737264      1.88867965288575
  C   1.19854692050068      1.35758611127346     -0.86245881692421
  N   1.70674742265397      1.94895750103791     -1.74599087692845
  N   -0.97499101379802     -1.13976290040421      0.74971495775980
  H   -1.49397966498604     -1.92707790589061      0.39744445861216
  H   -1.47341999752900     -0.57682342554566      1.41944360652690
  N   -0.24137813538652     -1.00800971364417     -1.46559400172114
  H   0.38828492993725     -0.54720990840490     -2.10812160033878
  H   -1.16373959403052     -1.11350854374400     -1.86586524824634
