13
Coordinates from ORCA-job run
  C   0.50299656105061      0.62624352770930      0.15181126832049
  C   -0.30003194911829     -0.41309646039312     -0.23521956345469
  N   0.63133453588157      1.09376164389636      1.49086941377762
  H   -0.22671627208313      1.43915564679885      1.89517793025275
  H   1.10563779710667      0.45772280299069      2.11460329930550
  C   1.25388199920901      1.29609417652658     -0.85984514389314
  N   1.84820243440282      1.81013472049590     -1.73794598713677
  N   -0.94055275361099     -1.23891575575000      0.67120141746059
  H   -0.88088708663805     -0.91187414134602      1.62239041837153
  H   -1.88299396974805     -1.47780121169295      0.39873320355269
  N   -0.56471656324436     -0.74207112651385     -1.55430175974796
  H   -0.51221743398247     -1.73493973790968     -1.73326073330935
  H   -0.03293729922535     -0.20441408481206     -2.22421376349927
