13
Coordinates from ORCA-job run
  C   0.36724442506415      0.58987286247528      0.23555372752187
  C   -0.37346138545741     -0.43089249888656     -0.30683335845107
  N   1.74924211029403      0.34096441850366      0.52712591367470
  H   2.35627326575693      0.90051175494368     -0.06041613577087
  H   1.96281656648927      0.56127451148116      1.49227249245511
  C   -0.24576859044500      1.84595374772236      0.48195892237598
  N   -0.77512237566927      2.87734300090580      0.70124429644720
  N   0.23271692782273     -1.61932500488487     -0.64228049428903
  H   -0.32790191892028     -2.44961183311788     -0.52890428415233
  H   1.15477167128718     -1.67739915406807     -0.23016413497531
  N   -1.68983284526442     -0.28381498403984     -0.68117514916404
  H   -2.23120929478716     -1.12928953396801     -0.75492148505625
  H   -2.18076855617074      0.47541271293328     -0.23446031061597
