13
Coordinates from ORCA-job run
  C   0.33316663579347      0.60581760451365      0.24239401147000
  C   -0.34573560389565     -0.44910037184235     -0.31480536496162
  N   1.71432083616861      0.41783469012160      0.58005867981794
  H   2.31610568280465      0.99653917343167      0.00582989564559
  H   1.88710856156048      0.65640615725918      1.54900430245493
  C   -0.33779081710662      1.83781963758451      0.45791041737338
  N   -0.91097186631543      2.85049660696840      0.65283956626277
  N   0.32092504875974     -1.61336895855512     -0.62053581390350
  H   1.23022559310322     -1.62847913732630     -0.17734244065294
  H   -0.20785874633669     -2.46534568684493     -0.51495394301093
  N   -1.65393387696089     -0.36096460316322     -0.73357991082844
  H   -2.19071630314491      0.38161184793893     -0.31256901466830
  H   -2.15684514442997     -1.22926696008603     -0.81425038499888
