13
Coordinates from ORCA-job run
  C   0.44092011237661      0.53578479263421      0.18274313228059
  C   -0.36540832676691     -0.48764340255939     -0.23778806915213
  N   0.36019446060950      0.95035984730993      1.55320373319605
  H   1.26278302094186      0.88242183809098      2.00813875466170
  H   0.04861344772772      1.91153254279178      1.62569283419407
  C   1.31639596663699      1.16635156232604     -0.74380156858164
  N   2.04293271880745      1.68203937720973     -1.51669493135636
  N   -0.27321944907639     -1.08809879215164     -1.47941372548998
  H   0.36867461758754     -0.63216526910213     -2.11208701667631
  H   -1.17195232078277     -1.26457842032072     -1.90451175690888
  N   -1.34814822269854     -1.00264938324825      0.57752043493721
  H   -1.42967048719728     -2.00765754900885      0.52685485368012
  H   -1.25111553816580     -0.64769714397169      1.52014332521557
