13
Coordinates from ORCA-job run
  C   0.45787206372246      0.67976625507135      0.17993978237832
  C   -0.19925883858466     -0.45107720816179     -0.21741227499102
  N   0.78796703916618      0.96352323655597      1.53596802667033
  H   0.08643392080009      1.51181143358287      2.01641069089239
  H   0.97139063007132      0.10988841068929      2.04680265107670
  C   0.92513582198095      1.57827013925156     -0.82304017486762
  N   1.26672259242824      2.30892375007993     -1.68229696242759
  N   -0.74296822347957     -1.32313155163883      0.71266013794173
  H   -1.25011486856481     -0.89336630924125      1.46891413577975
  H   -1.17872992019591     -2.14628516767676      0.33087724928182
  N   -0.23133026664421     -0.91096119512172     -1.53026094234378
  H   -1.16328211525404     -1.11342765805887     -1.86608763938524
  H   0.26916216455396     -0.31293413533174     -2.17347468000576
