13
Coordinates from ORCA-job run
  C   0.46244645452769      0.52121893906067      0.17151203964562
  C   -0.38795336061360     -0.47398935241031     -0.22946250557448
  N   0.28895849507466      1.08274904829193      1.47962036035828
  H   1.10511861268338      0.92055352493429      2.05737230845968
  H   0.13898552221017      2.08340764010793      1.42962250683125
  C   1.49602108312178      0.95696203959531     -0.70283617745797
  N   2.34890318404760      1.31636655878614     -1.43396008329028
  N   -0.43415135138392     -0.98481227493897     -1.51282342169874
  H   -0.52253808149687     -1.99034623672707     -1.53881882896709
  H   0.29914271824084     -0.64672683452907     -2.11945835319198
  N   -1.28316850844551     -1.04387434415145      0.64806340077590
  H   -2.18912587226011     -1.22453115067234      0.24061307835922
  H   -1.32163889570612     -0.51597755734706      1.51055567575058
