13
Coordinates from ORCA-job run
  C   0.47558791056281      0.53156798456722      0.12669120658341
  C   -0.36577245458692     -0.48916109670970     -0.23690139754670
  N   0.52842045802400      0.89313330159792      1.51817398784386
  H   -0.01886603593897      1.74790749320429      1.67241022755707
  H   1.48089264204361      1.05421262982305      1.83271819467859
  C   1.19597728159488      1.26758401619403     -0.83674045026305
  N   1.77717494176211      1.99015221363557     -1.57365132752008
  N   -0.36348280883676     -1.06541606679872     -1.48042986237697
  H   -1.21883024556436     -1.55396761706970     -1.75536055765766
  H   -0.05015565904839     -0.43649416101847     -2.20166485904397
  N   -1.21470490686053     -1.01257018237295      0.72519642883353
  H   -1.50594268528148     -1.96678263813077      0.58769016442426
  H   -0.72029843787001     -0.96116587692177      1.62186824448774
