13
Coordinates from ORCA-job run
  C   0.55223895132996      0.62689142656447      0.09649741623362
  C   -0.32131862653688     -0.38193194410412     -0.17901648856444
  N   0.58091674926752      1.31825694514353      1.34056830867687
  H   -0.31891309812151      1.25149728015714      1.79935080725830
  H   1.31019790840022      0.99489693267861      1.96195587336107
  C   1.40874100465107      1.11130433078522     -0.93245855231575
  N   2.05765053038380      1.52839503622341     -1.82361399586849
  N   -0.38395679964568     -1.05248268437441     -1.40374869646140
  H   -1.33945069290859     -1.24042970324258     -1.69092748550386
  H   0.06973079409075     -0.53262776981143     -2.14840493425624
  N   -1.17304279439377     -0.84592325838727      0.84000595543256
  H   -1.79780271033772     -1.57266657370807      0.51575778153056
  H   -0.64699121617916     -1.20518001792451      1.62503401047718
