13
Coordinates from ORCA-job run
  C   0.60307924405016      0.56649948705979      0.14270053997820
  C   -0.39555709182294     -0.29631771837445     -0.21329790634428
  N   0.66194856077805      1.22586798479281      1.40364831974134
  H   1.20120591774508      0.72416847233158      2.09725805685721
  H   -0.26846920104584      1.41097473269215      1.75489589464450
  C   1.58703340202735      0.90119235612716     -0.83258589254737
  N   2.39303699404868      1.12700403572127     -1.66205532305442
  N   -0.66198495014335     -0.67840095096356     -1.52419832814988
  H   -0.73262309852772     -1.67918545258542     -1.64915573630836
  H   -0.02770426708777     -0.26764096869081     -2.19555528409998
  N   -1.33636199727440     -0.71819494213451      0.71362920727435
  H   -2.05324069872359     -1.32659665797232      0.35405725733904
  H   -0.97036281402372     -0.98937037800368      1.61165919466965
