13
Coordinates from ORCA-job run
  C   0.36307704943395      0.71473616147582      0.25061722509946
  C   -0.30327380736855     -0.37140776892407     -0.24422871761134
  N   1.77603842128837      0.76065437345326      0.42306248368482
  H   2.24150578313045      0.20601190228496     -0.28336531037282
  H   2.08031865936390      0.47418744991706      1.34444225309429
  C   -0.38164061622525      1.89944743873010      0.52088947305391
  N   -1.04235357166828      2.84676695309177      0.75473292521225
  N   0.35323976533357     -1.57462622588087     -0.45404369869190
  H   0.96256318734735     -1.87197874138913      0.29050704029658
  H   -0.20972348503474     -2.30927482486677     -0.85013381381910
  N   -1.60429149210159     -0.32777120948371     -0.73442671158287
  H   -2.21075513746001     -1.03594812340899     -0.34373514231020
  H   -2.02270475603917      0.59020261500058     -0.67431800605308
