13
Coordinates from ORCA-job run
  C   0.46721550583888      0.53700473969925      0.17518853560535
  C   -0.45048007193122     -0.38683552019266     -0.25941135090558
  N   0.49457616963946      0.85612878000487      1.57319076948214
  H   1.42438808566817      0.73521629797243      1.95544037034752
  H   0.21260371116974      1.81525340091454      1.73800102037666
  C   1.34488274177233      1.14746458225891     -0.75818384227521
  N   2.08354487235705      1.63080341728795     -1.54108366768020
  N   -0.60718485553769     -0.71991374804803     -1.58582262989049
  H   0.18783366000486     -0.52244154939519     -2.17393782714978
  H   -1.04140826359996     -1.60801835703659     -1.77591240040100
  N   -1.36977939006870     -0.91095115148139      0.61946491984981
  H   -1.64044780172134     -1.86876110763060      0.45869518130444
  H   -1.10774436359160     -0.70394978435348      1.57437092133635
