13
Coordinates from ORCA-job run
  C   0.32246190177531      0.59073749840316      0.29127371577676
  C   -0.37786442965500     -0.50231203026013     -0.15521052810126
  N   1.74390789250362      0.46400313437824      0.44216465341422
  H   2.22851589763402      1.19511753601242     -0.06406696189001
  H   2.01696670695103      0.52720533096923      1.41592100652270
  C   -0.36896930927270      1.78981408102629      0.60092511934934
  N   -0.95529622733667      2.78697280099355      0.83248597980716
  N   0.26926745039567     -1.69909797901867     -0.36260994520565
  H   1.27181968219755     -1.56417003392669     -0.37210416743623
  H   -0.08429197333406     -2.27129433229180     -1.11390752153150
  N   -1.75036589430395     -0.51597472181790     -0.26886955785222
  H   -2.13739029345921     -1.19487937483672     -0.90436620005076
  H   -2.17976140409561      0.39287809036904     -0.34163559280256
