13
Coordinates from ORCA-job run
  C   0.30966308588066      0.59614567642259      0.25108083426665
  C   -0.34960581866428     -0.50024016743294     -0.23618399148385
  N   1.71249084339345      0.48381290275629      0.52644985919713
  H   1.90410175581807      0.63238894663241      1.51003476191895
  H   2.24238364797667      1.16928903848911      0.00155879383106
  C   -0.40735518047274      1.80224455797633      0.48322700558947
  N   -1.00481246214526      2.80165291597244      0.67087474518432
  N   0.26634794065235     -1.72982794557037     -0.30756259585038
  H   1.25789006693861     -1.64325594131068     -0.12497714119065
  H   0.05088703028001     -2.24184944712084     -1.15059487945155
  N   -1.65350328118401     -0.48197329286535     -0.69375214183112
  H   -2.13569667217792      0.39151503860686     -0.53878217471379
  H   -2.19379095629561     -1.27990228255585     -0.39237307546624
