13
Coordinates from ORCA-job run
  C   0.28530069086653      0.73408713907798      0.21629268856607
  C   -0.31923259337465     -0.43808898960696     -0.15201717714145
  N   1.67810174488798      0.87826473495247      0.47560977908419
  H   2.00064459522307      0.41755163626133      1.31366825538019
  H   2.27254725485366      0.67303614370669     -0.31389195210104
  C   -0.53607880314160      1.89400607675722      0.34090002796391
  N   -1.26318586407301      2.81697343297883      0.42934208714678
  N   0.33995855721728     -1.65412727067634     -0.13758522338745
  H   0.12023049836102     -2.23934090907925     -0.93048048540237
  H   1.33128209769238     -1.56958236950644      0.02220137397390
  N   -1.63230971066830     -0.53393498290064     -0.58223925433774
  H   -2.12933375371915     -1.31038815991449     -0.16918187431798
  H   -2.14892471412519      0.33154351794959     -0.51161824542699
