13
Coordinates from ORCA-job run
  C   0.48517760495554      0.50850802814651      0.20798101102767
  C   -0.44721165725700     -0.36408083006046     -0.29581537556710
  N   0.37302787184969      0.89746915974705      1.58377051722373
  H   0.15126193882413      1.88202572985349      1.67262608031050
  H   1.23817392634635      0.72723088355786      2.08159904142662
  C   1.51556847727907      0.99875769870714     -0.63633404699819
  N   2.37997311325786      1.38020506835736     -1.34314217187466
  N   -0.47282689523106     -0.75303272773723     -1.61592907812754
  H   -0.94653563709394     -1.61817598257166     -1.81753338570354
  H   0.39832298731772     -0.64270702595437     -2.11200154199882
  N   -1.50434433416626     -0.76922441142237      0.48564635172691
  H   -1.83333751186628     -1.70972987829588      0.33195300040173
  H   -1.33924988421581     -0.53724571232744      1.45617959815270
