13
Coordinates from ORCA-job run
  C   0.61122805337742      0.55763389362354      0.14364716604335
  C   -0.28872129613942     -0.42576884709480     -0.15879784835793
  N   0.75738306354710      1.11844314644305      1.44462358501426
  H   0.19759656754744      1.94836834207906      1.59160272526808
  H   0.54954031203859      0.42993847911826      2.15624199031487
  C   1.51689294143262      0.98081459638485     -0.87190811202823
  N   2.22630617741586      1.31825545404579     -1.75029066357411
  N   -0.22146324350028     -1.21608887482154     -1.30187533343988
  H   -1.08932747243916     -1.25603530826620     -1.81915332364751
  H   0.55488220799054     -0.97923845515863     -1.90432867353124
  N   -1.24699424140959     -0.82217092257194      0.76126204827573
  H   -1.72266319063780     -0.07687264731576      1.24298003094693
  H   -1.84365987922334     -1.57727885646569      0.46599640871567
