13
Coordinates from ORCA-job run
  C   0.42242819807423      0.57286724461466      0.16735125838694
  C   -0.30348561026359     -0.53163664432634     -0.18557126112798
  N   0.31852436814892      1.02090306153467      1.52306327108964
  H   0.97702428384372      0.56059605372666      2.14379560675826
  H   0.46723369398995      2.01499006818382      1.59719399629666
  C   1.22812440547140      1.22861589396306     -0.80442893395095
  N   1.85886916098781      1.76750252555599     -1.64426431725746
  N   -1.13497730287763     -1.13769550366417      0.72333948662825
  H   -1.47401071189708     -0.48786495640815      1.41111934499578
  H   -1.79757849691541     -1.79111372749237      0.34228158788398
  N   -0.13174413035185     -1.18624776066209     -1.39695543269385
  H   0.56646100805416     -0.73261717078146     -1.96733485785811
  H   -0.99686886626463     -1.29929908424430     -1.90758974915117
