13
Coordinates from ORCA-job run
  C   0.44098585527906      0.63158088440446      0.10689189011227
  C   -0.36450542674312     -0.41129808167012     -0.22024041371043
  N   0.52242047348584      0.99794852608460      1.49748138496466
  H   1.28196458615123      1.65576838935630      1.62721289143853
  H   0.68128152808738      0.17462345218775      2.06772770820582
  C   1.18911849461980      1.33916687701009     -0.84998725228076
  N   1.81496951544105      1.87120236259967     -1.69609028570936
  N   -0.66526372616173     -0.88271759977353     -1.49217408722662
  H   -0.54495469522333     -1.88074969914062     -1.59299615458878
  H   -0.20750798344972     -0.39890766350317     -2.24791475892942
  N   -0.99646692022894     -1.08097545439247      0.84478585751543
  H   -1.39715235666635     -0.35678991876692      1.44456159912281
  H   -1.75588934459119     -1.66085207439604      0.51074162108587
