13
Coordinates from ORCA-job run
  C   0.46450535811977      0.53859915595813      0.17731134102078
  C   -0.45067525036685     -0.38737233562073     -0.25802698365916
  N   0.52092111467039      0.82469342159905      1.58128781181559
  H   0.23456190665991      1.77691054590525      1.77584727980598
  H   1.45967184095520      0.70307994618791      1.94075016274792
  C   1.30778972839624      1.18693821230667     -0.76223346466007
  N   2.01635396803908      1.70301590770129     -1.55203955900361
  N   -1.34217480550414     -0.94528887851772      0.62898623464653
  H   -1.59904024093413     -1.90445170067617      0.45377867937229
  H   -1.06103563518035     -0.75523643106947      1.58204820767918
  N   -0.63359618839780     -0.69107663680368     -1.58791286645826
  H   0.14468806256148     -0.46953234860278     -2.18948968221407
  H   -1.06396985901879     -1.57827885836773     -1.79030716109312
