13
Coordinates from ORCA-job run
  C   0.38201609333527      0.61043684224492      0.13695651096671
  C   -0.37509100193799     -0.47128195039467     -0.23923238750533
  N   0.24466971282854      1.09900876884002      1.47792407340089
  H   -0.15894150849631      2.02819466721928      1.49283995995315
  H   1.14213540927650      1.14176482331469      1.94453253877122
  C   1.25948059714353      1.21242196856253     -0.80238719065963
  N   1.99997449261875      1.68955829569332     -1.58729430559893
  N   -1.30344158334339     -0.99875267581062      0.62938374638210
  H   -1.42398044738587     -1.99938298734729      0.58978885957336
  H   -1.15886043239914     -0.63549311243332      1.56265575538672
  N   -0.36587113046144     -0.98333736736493     -1.51579584120671
  H   -0.69261238967900     -1.92898181126178     -1.62547659070100
  H   0.45152218850056     -0.76515546126214     -2.06389512876254
