13
Coordinates from ORCA-job run
  C   0.32345523268406      0.62696462988995      0.15720045984065
  C   -0.40636218941091     -0.47075829222654     -0.22463224189064
  N   0.46339224732274      0.89074529603815      1.56008955723288
  H   1.43983877738009      0.93813762250174      1.82155300030478
  H   0.02916498635820      1.76638008400723      1.82782044747894
  C   0.99856430749392      1.40723536340533     -0.81835190173470
  N   1.60198744958604      2.02511517436025     -1.62176384690284
  N   -1.03654174899474     -1.24146502103830      0.71290628271879
  H   -1.25885996889439     -2.19237166184865      0.46288892296141
  H   -0.71966847918914     -1.06643016665640      1.65632819665017
  N   -0.68377435492596     -0.77430814317251     -1.55149625370836
  H   -0.55126376069198     -1.74638061987885     -1.78918533119267
  H   -0.19993249871794     -0.16386426538141     -2.19235729175841
