13
Coordinates from ORCA-job run
  C   0.32167622752721      0.73807163634192      0.23939818682636
  C   -0.27785431581014     -0.39223899507447     -0.24203577394873
  N   1.72447570943924      0.85425984230088      0.45648496370087
  H   2.23875479571363      0.30112071164471     -0.21637799301376
  H   2.00955172954266      0.61183711772174      1.39652595112535
  C   -0.48450798074315      1.89517457970972      0.44552249594353
  N   -1.19592364217791      2.81706444853948      0.62621570958879
  N   0.43781646632849     -1.56990946183815     -0.39062308414497
  H   -0.07559279660558     -2.34187766430378     -0.78277693921094
  H   1.03815748376672     -1.81490311213087      0.37970685669826
  N   -1.56230330781486     -0.42367034579828     -0.77536699206970
  H   -2.02461725584105      0.47505838323655     -0.75397412832463
  H   -2.14763311332526     -1.14798714034945     -0.38169925317043
