13
Coordinates from ORCA-job run
  C   0.47169216975573      0.50858061936863      0.18537976298510
  C   -0.39466216848510     -0.46181492941807     -0.24124793532361
  N   0.48182138681797      0.85170832028229      1.57779433624080
  H   0.21259034530259      1.81836185548319      1.71708102452730
  H   1.40459039275826      0.72668778333375      1.97674486655847
  C   1.31189455330493      1.16221114303139     -0.75740799448896
  N   2.00621697312420      1.69773296768806     -1.54645853515661
  N   -0.39292538858385     -0.99769647813784     -1.51545263388177
  H   -1.31986504942229     -1.12102430974718     -1.89664552820907
  H   0.22852729131890     -0.52983060891974     -2.15977879925203
  N   -1.34921392259951     -0.98653368685125      0.60088275980475
  H   -1.18908322442106     -0.68545802564429      1.55371345834993
  H   -1.47158335887077     -1.98392465046892      0.50339521784572
