13
Coordinates from ORCA-job run
  C   0.56369884460010      0.51149741617444      0.15126990426222
  C   -0.32707463025348     -0.45282138367141     -0.20781298033179
  N   0.63742067826766      0.88056221429279      1.53648943653124
  H   -0.12851904321535      1.50930172096178      1.76492559795377
  H   1.50616069556875      1.36261658059686      1.72724011348199
  C   1.39324702862658      1.13885811627796     -0.82048712733062
  N   2.08595256530373      1.65219963216572     -1.62367337375592
  N   -0.54578691374738     -0.78123767347574     -1.54154932374416
  H   -0.84432615735329     -0.02817347939985     -2.13740075397582
  H   -1.01842145484562     -1.65070126207838     -1.71273609376232
  N   -1.09491247923852     -1.06783405076551      0.77167842470615
  H   -1.64586590392973     -1.85056169886105      0.46321822851665
  H   -0.58157322978345     -1.22470613221762      1.62983794744862
