13
Coordinates from ORCA-job run
  C   0.34929399523915      0.66442803934509      0.15606412876767
  C   -0.34474735252371     -0.47827875569412     -0.10153060930568
  N   1.77789459621972      0.60488094799261      0.25356624425309
  H   2.15063767648286      1.49350572819097      0.55977617609010
  H   2.03399395515276     -0.10138387393086      0.93830299428668
  C   -0.32587630777391      1.90788355285318      0.21573610021042
  N   -0.90392236841315      2.93491285435394      0.25558134458104
  N   -1.73353325099402     -0.59939380167468     -0.03862905081333
  H   -2.14011344384726     -0.96413990784148     -0.89030582342698
  H   -2.18857602456888      0.25972496062456      0.23856447333818
  N   0.35424062833077     -1.65679342858441     -0.29383431605784
  H   1.16955152588615     -1.57890225054100     -0.88239882392783
  H   -0.19884362919048     -2.48844406509379     -0.41189283799552
