13
Coordinates from ORCA-job run
  C   0.40810043522305      0.56597059511107      0.16690482306755
  C   -0.35485691231438     -0.49980429383867     -0.22841238181162
  N   0.42855216449863      0.91408285904449      1.55762418596914
  H   0.13266797179014      1.87273612793894      1.69695012040094
  H   1.35972865382537      0.81812016622629      1.94499591955084
  C   1.16547434433231      1.28394779166267     -0.79941489619235
  N   1.78829329889282      1.87803770199526     -1.60578669676289
  N   -0.95752809540102     -1.32566689447693      0.69387818988795
  H   -1.89057808753903     -1.61048508340358      0.43315722975805
  H   -0.89627910650727     -0.92600045081416      1.62167752022913
  N   -0.59085190927973     -0.83789858913867     -1.54760973319162
  H   -0.53769230028418     -1.83152869131510     -1.71981371456432
  H   -0.05303045723671     -0.30251123899161     -2.21415056634081
