13
Coordinates from ORCA-job run
  C   0.33253065200782      0.68624570570095      0.29381506581802
  C   -0.34399593943271     -0.39286885054904     -0.20886399607057
  N   1.71257795557982      0.68264342904190      0.64621424648895
  H   2.34609071396481      0.61512055252787     -0.13652968600852
  H   1.95355473577716      0.02846620856290      1.37627039378317
  C   -0.39807663370059      1.89648679958905      0.48752860131622
  N   -1.05160578832678      2.86727597537161      0.62506896173731
  N   0.29268881666377     -1.55812996891314     -0.59687389668204
  H   1.26556621703822     -1.58847440886742     -0.33624921877389
  H   -0.20823544812880     -2.39502325676741     -0.33599988177881
  N   -1.71845830853180     -0.44157263872694     -0.37319194746118
  H   -1.99745580903158     -0.83277153001978     -1.26185632183024
  H   -2.18418116387934      0.43360198304945     -0.17833232053842
