13
Coordinates from ORCA-job run
  C   0.35113427521779      0.75191658510808      0.12246855534180
  C   -0.33262654086410     -0.42406245870098     -0.01286578066300
  N   1.70015984462504      0.83114808294992      0.57064184499299
  H   2.37779695857975      0.82793959346693     -0.18012163031085
  H   1.90521566619871      0.09111494725482      1.22922873718125
  C   -0.35177029411482      1.97146416268881     -0.10117281386541
  N   -0.96764565054549      2.95127999436855     -0.32306745968904
  N   0.31416626442045     -1.64272023594591      0.11806492787270
  H   1.20137057466221     -1.71771243939361     -0.35208046135706
  H   -0.27367461730926     -2.45568359544041      0.03586975055572
  N   -1.71780871574912     -0.51077117588390     -0.11277278521760
  H   -2.03313851558692     -1.06647569315469     -0.89652205043029
  H   -2.17317924953425      0.39156223268241     -0.09667083441122
