13
Coordinates from ORCA-job run
  C   0.40853783235253      0.70191540451032      0.09041798066906
  C   -0.23047486972618     -0.47561127625033     -0.19260258909617
  N   0.36371850886864      1.36304431873646      1.35122382255360
  H   0.74361151827447      0.82556004648271      2.11660445221330
  H   -0.53404453959175      1.75991582810798      1.58593377061008
  C   1.18186715292433      1.30370435793866     -0.94675293245012
  N   1.80405224746415      1.75429739802418     -1.84024265715724
  N   -1.13920587815642     -1.05798984891685      0.67258822485944
  H   -1.16818462736973     -0.61767340147485      1.57847419171982
  H   -1.05347868775103     -2.06241468872985      0.72841904265459
  N   -0.03519075539704     -1.20730688344909     -1.35241082537842
  H   -0.89736814898132     -1.53846853145786     -1.76179404235645
  H   0.55716024708935     -0.74797272352148     -2.02985843884148
