13
Coordinates from ORCA-job run
  C   0.52160661797978      0.49511782028296      0.15493326750717
  C   -0.47118182551228     -0.36211663651498     -0.22200956909488
  N   0.64345002966045      0.79672544469726      1.55333543916406
  H   1.53627107885644      1.22047489253855      1.75949867126963
  H   -0.08688360253188      1.43675525429361      1.84857928816556
  C   1.48245027632920      0.94169299712719     -0.78669835160091
  N   2.33928373800062      1.23502911588230     -1.54288950370626
  N   -1.28117844484723     -0.92829970143590      0.72983443087731
  H   -0.84722409061950     -1.00785784790032      1.63732581631806
  H   -1.86838818338426     -1.69116802827574      0.43876814322657
  N   -0.84337389787112     -0.58390139334619     -1.54880114025657
  H   -0.33281574674776      0.00338935488235     -2.19383479635680
  H   -0.79201594931248     -1.55584127223108     -1.82704169551295
