15

C	-0.444934	-0.010388	-1.464426
C	0.0	0.0	0.0
Br	0.503251	1.297336	-2.466388
H	1.095681	0.0	0.0
N	-0.184195	-1.384284	-2.094834
O	-0.937631	-1.705191	-3.007623
O	0.778309	-1.99717	-1.660864
N	-1.968948	0.178246	-1.594581
O	-2.611078	-0.53926	-0.835857
O	-2.409388	0.96839	-2.411923
C	-0.436587	-1.173927	0.755189
N	-0.724661	-2.118474	1.39157
C	-0.467624	1.229979	0.633389
N	-0.841387	2.22329	1.137581
Br	3.246198	0.0	0.0
