16

C	-0.541705	-0.018284	-1.424164
C	0.0	0.0	0.0
Cl	0.096032	1.39123	-2.365346
H	1.093425	0.0	0.0
H	-0.309106	-0.949798	0.457896
C	-0.096842	-1.233102	-2.118227
N	0.143813	-2.238786	-2.676139
C	-2.065662	0.045187	-1.505718
H	-2.402036	-0.017243	-2.542789
H	-2.493917	-0.786805	-0.938615
H	-2.417058	0.98521	-1.079763
C	-0.487835	1.170545	0.843244
H	0.088169	1.177312	1.772321
H	-0.289065	2.119711	0.340176
H	-1.551317	1.123127	1.098499
H	2.953346	0.0	0.0
