17

C	-0.454638	0.046803	-1.424758
C	0.0	0.0	0.0
Cl	-2.205386	-0.095222	-1.670533
H	1.09399	0.0	0.0
N	0.041829	1.359698	-2.038447
O	-0.748385	2.291117	-2.116946
O	1.22879	1.368198	-2.329656
N	0.175822	-1.049743	-2.290272
O	0.081233	-0.885244	-3.500944
O	0.676655	-1.999214	-1.711289
C	-0.534898	-1.16435	0.672149
N	-0.981891	-2.065043	1.282941
C	-0.356443	1.279853	0.762286
H	-0.069272	1.131904	1.804112
H	-1.416358	1.545269	0.713673
H	0.250449	2.101225	0.379084
F	2.477887	0.0	0.0
