17

C	-0.450116	0.036669	-1.426779
C	0.0	0.0	0.0
Cl	-2.198632	-0.12547	-1.679229
H	1.094038	0.0	0.0
N	0.0349	1.352036	-2.044462
O	1.222991	1.371713	-2.331689
O	-0.764448	2.275132	-2.128793
N	0.194919	-1.05857	-2.284398
O	0.109575	-0.898578	-3.496256
O	0.695812	-2.003717	-1.697923
C	-0.532567	-1.162742	0.677067
N	-0.982576	-2.061264	1.288798
C	-0.362814	1.282636	0.754377
H	-1.424431	1.542263	0.702607
H	-0.076293	1.141982	1.797559
H	0.240249	2.105489	0.367399
F	2.478424	0.0	0.0
