17

C	-0.390558	0.005501	-1.445413
C	0.0	0.0	0.0
Cl	0.343266	-1.31476	-2.320332
H	1.096567	0.0	0.0
N	-1.908842	-0.04499	-1.740731
O	-2.66618	-0.098073	-0.780106
O	-2.233069	-0.016829	-2.921204
N	0.019783	1.350086	-2.06537
O	-0.80565	2.248308	-1.921384
O	1.119228	1.439575	-2.577528
C	-0.462582	-1.217678	0.632898
N	-0.794181	-2.197346	1.193294
C	-0.354836	1.250992	0.803848
H	0.243197	2.087785	0.441945
H	-1.413929	1.510839	0.786937
H	-0.043417	1.064901	1.833291
F	2.4807	0.0	0.0
