17

C	-0.418266	0.010518	-1.439586
C	0.0	0.0	0.0
Cl	0.438914	1.224489	-2.357882
H	1.094174	0.0	0.0
N	-0.18729	-1.325253	-2.157592
O	0.461967	-2.177696	-1.573293
O	-0.662779	-1.401589	-3.284702
N	-1.933206	0.229024	-1.568024
O	-2.61217	-0.76673	-1.331057
O	-2.347056	1.362296	-1.775202
C	-0.5419	-1.1242	0.734855
N	-0.954087	-1.984728	1.422918
C	-0.360537	1.308038	0.713101
H	-1.437957	1.465232	0.826083
H	0.101047	1.271785	1.701078
H	0.075891	2.151043	0.178246
F	2.479152	0.0	0.0
