17

C	-0.429674	0.023411	-1.437833
C	0.0	0.0	0.0
Cl	-2.164758	0.286851	-1.700034
H	1.093947	0.0	0.0
N	0.285634	1.095038	-2.273008
O	0.927308	1.951671	-1.686355
O	0.125356	0.998344	-3.48464
N	-0.000679	-1.291925	-2.111281
O	1.190609	-1.351641	-2.376388
O	-0.844877	-2.160939	-2.269692
C	-0.468282	-1.233029	0.604664
N	-0.859872	-2.204606	1.140955
C	-0.47119	1.194189	0.830155
H	-0.132395	2.121316	0.373392
H	0.003556	1.115177	1.810005
H	-1.557105	1.216667	0.959059
F	2.478454	0.0	0.0
