17

C	-0.44108	0.041502	-1.433968
C	0.0	0.0	0.0
Cl	-2.175404	0.337016	-1.677329
H	1.093823	0.0	0.0
N	0.28196	1.108967	-2.267356
O	0.920343	1.965833	-1.678211
O	0.125999	1.013739	-3.479102
N	-0.042708	-1.276112	-2.120472
O	1.1467	-1.357774	-2.392116
O	-0.904215	-2.128266	-2.2797
C	-0.471099	-1.234321	0.598
N	-0.869929	-2.207903	1.125381
C	-0.451906	1.188072	0.850503
H	-0.108842	2.118274	0.403258
H	-1.536037	1.218882	0.993721
H	0.03521	1.090945	1.823203
F	2.475962	0.0	0.0
