17

C	-0.452019	0.028913	-1.425876
C	0.0	0.0	0.0
Cl	-2.20107	-0.130943	-1.674365
H	1.093985	0.0	0.0
N	0.032728	1.341537	-2.04899
O	-0.767932	2.262291	-2.14265
O	1.221887	1.36252	-2.329344
N	0.189678	-1.070612	-2.2806
O	0.685915	-2.016516	-1.69182
O	0.106352	-0.913453	-3.49292
C	-0.534778	-1.156676	0.685415
N	-0.984062	-2.049582	1.305838
C	-0.357512	1.289169	0.746046
H	0.254095	2.103999	0.356618
H	-1.416448	1.556676	0.688679
H	-0.076561	1.152364	1.791153
F	2.478008	0.0	0.0
