12

C	-0.396239	-0.032176	-1.478741
C	0.0	0.0	0.0
F	0.006511	1.141095	-2.079892
H	1.096625	0.0	0.0
H	-1.482431	-0.103278	-1.604735
C	0.212289	-1.179275	-2.181472
N	0.566467	-2.109137	-2.804614
C	-0.481221	-1.190158	0.674404
N	-0.866014	-2.157634	1.221609
C	-0.501338	1.204505	0.631156
N	-0.861051	2.198111	1.148728
H	2.47601	0.0	0.0
