12

C	-0.391053	-0.042637	-1.480595
C	0.0	0.0	0.0
F	-0.004788	1.13456	-2.083952
H	1.096647	0.0	0.0
H	-1.474614	-0.132031	-1.611012
C	0.238771	-1.182515	-2.176218
N	0.61506	-2.107354	-2.793845
C	-0.472091	-1.190641	0.678229
N	-0.804233	-2.182284	1.218278
C	-0.507177	1.205665	0.623598
N	-0.865697	2.2044	1.132313
H	2.469547	0.0	0.0
