12

C	-0.265607	-0.087321	-1.491199
C	0.0	0.0	0.0
F	-1.58887	-0.379874	-1.802447
H	1.100847	0.0	0.0
H	0.360359	-0.896741	-1.881846
C	0.093951	1.163873	-2.175964
N	0.333523	2.143801	-2.776086
C	-0.443455	-1.208584	0.666735
N	-0.731807	-2.214271	1.204189
C	-0.530122	1.191697	0.62655
N	-0.897305	2.179657	1.150197
H	2.459539	0.0	0.0
