12

C	-0.404912	-0.023222	-1.477158
C	0.0	0.0	0.0
F	0.0003	1.151054	-2.075249
H	1.098107	0.0	0.0
H	-1.491896	-0.086364	-1.59616
C	0.19163	-1.171907	-2.184501
N	0.549837	-2.130195	-2.76018
C	-0.478494	-1.192632	0.670711
N	-0.818231	-2.187032	1.200692
C	-0.498507	1.202747	0.637576
N	-0.8492	2.198362	1.157582
H	2.471291	0.0	0.0
