12

C	-0.273195	-0.023822	-1.504796
C	0.0	0.0	0.0
F	-0.003479	-1.285861	-1.989659
H	1.096942	0.0	0.0
H	0.434221	0.676062	-1.967487
C	-1.656641	0.323698	-1.872007
N	-2.753684	0.603012	-2.185462
C	-0.552248	-1.148285	0.685053
N	-0.941974	-2.098958	1.258369
C	-0.436933	1.253547	0.581172
N	-0.720656	2.300562	1.036671
H	2.4655	0.0	0.0
