12

C	-0.265297	-0.06612	-1.493372
C	0.0	0.0	0.0
F	-1.585378	-0.364461	-1.80947
H	1.0975	0.0	0.0
H	0.367469	-0.864247	-1.895312
C	0.085135	1.200993	-2.152257
N	0.326364	2.222185	-2.678422
C	-0.449716	-1.219017	0.644849
N	-0.792177	-2.227212	1.144028
C	-0.534634	1.180522	0.64388
N	-0.911094	2.158694	1.178837
H	2.468384	0.0	0.0
