12
Coordinates from ORCA-job run
  C   -0.72431132688985      0.78086473433762      0.00007598692058
  C   0.43047934103154     -0.13222488777304     -0.44089602575218
  F   -0.92385804269173      1.70560911933189     -0.99495689867276
  H   0.15994562911105     -0.67469001480455     -1.34853573565205
  H   -0.45311755488149      1.30059888773855      0.92105767512710
  C   -1.94259269638296     -0.01197923316374      0.20225210188595
  N   -2.90572174524088     -0.66387410649491      0.36252556691400
  N   0.64713248416327     -1.16300843460774      0.64352519747598
  O   0.53978287278449     -2.33749563677485      0.31649764438568
  O   0.89056564542417     -0.71376348324674      1.75837469948831
  C   1.65124313628700      0.63976562946527     -0.63112856104256
  N   2.63045225728538      1.26819742599225     -0.78879165107803
