12
Coordinates from ORCA-job run
  C   -0.71222234755476      0.77851998071845      0.13993527883812
  C   0.41862312353713     -0.06679265875084     -0.46706084131541
  F   -0.91863547488663      1.85203272665060     -0.69080143904089
  H   0.11933095819050     -0.45836519151283     -1.44076430427067
  H   -0.41345919176642      1.14190689694428      1.12525060103870
  C   -1.93817248416495     -0.02177045724644      0.24304898099222
  N   -2.90837935302161     -0.67812830118080      0.32171369062845
  N   0.64482441680650     -1.25682750748158      0.43774050581052
  O   0.92278263363992     -0.99038830076705      1.60195257695983
  O   0.51109662424511     -2.36464018554260     -0.06500101584477
  C   1.64538293611823      0.71266968568770     -0.56439178767916
  N   2.62782815885696      1.35078331248112     -0.64362224611693
