12
Coordinates from ORCA-job run
  C   -1.02299727584853     -0.02385731491663      0.05676041906505
  C   0.46466658809042      0.00309929465147     -0.29624378912839
  F   -1.15302896716308     -0.41616471983257      1.36580782243502
  H   0.58850519323983      0.28518451729703     -1.34666558599153
  H   -1.52272759206805     -0.75980177984766     -0.57719238708609
  C   -1.61187766225541      1.30471659913621     -0.13956204290613
  N   -2.07875165692776      2.36590938339511     -0.32377197852694
  N   0.98646466708665     -1.42686100592053     -0.19954794737536
  O   0.34724517139480     -2.24369724621392     -0.85050186749358
  O   1.98222281466661     -1.63106227821520      0.47679845475748
  C   1.21979628548014      0.89181056464844      0.57438304883872
  N   1.80048243430439      1.64872398581823      1.25873585341174
