12
Coordinates from ORCA-job run
  C   -1.02125813318562     -0.02011578158678     -0.09082337420327
  C   0.50090522099206      0.03919336414301     -0.22234083192205
  F   -1.33304265336876     -0.58957454507022      1.11849109482254
  H   0.76965479945696      0.46669050799187     -1.19363489157395
  H   -1.41977261428013     -0.65417309227483     -0.88612170322323
  C   -1.58684067561086      1.32992922700256     -0.18205386842646
  N   -2.03133764242826      2.41171031469037     -0.28307043191487
  N   1.01773663328439     -1.39530454493569     -0.25884754494626
  O   0.48549088009296     -2.10363900075570     -1.10404409416239
  O   1.90984281159246     -1.70498276992313      0.51514531956317
  C   1.11833474551259      0.78662758619093      0.86297073214408
  N   1.59028662794219      1.43263873452763      1.72232959384269
