11
Coordinates from ORCA-job run
  C   0.93617402106644     -0.17852100121234      0.14319394211893
  C   -0.61036053679269     -0.11316829114923      0.20692451451135
  H   1.24530646009323     -0.61378852766859     -0.81032740694163
  H   -0.90887185422282      0.35354483483598      1.15283808651263
  H   1.29753962640103     -0.82916960930625      0.94388288640664
  C   1.51655054798691      1.15331288520476      0.29387073833452
  N   1.96475501173845      2.22941981284762      0.42843240266566
  C   -1.16383504185129     -1.47171866512059      0.16677722364462
  N   -1.56906424410534     -2.57317177329712      0.14714486904149
  C   -1.14828690815982      0.69441315454120     -0.89385129266298
  N   -1.55790708215409      1.34784718032454     -1.77888596363124
