11
Coordinates from ORCA-job run
  C   0.66924576613198      0.32992965111461      0.74169308240408
  C   -0.73890319373301     -0.06247288343636      0.23328748895770
  H   0.93482732231374     -0.31611869761908      1.58279544907723
  H   -1.44424648004864      0.05271457436159      1.06501671610346
  H   0.64177227436390      1.36214236768306      1.10105292355369
  C   1.67647066046796      0.20455228677580     -0.30871759891157
  N   2.48096896093018      0.10201825500037     -1.15680409546288
  C   -0.76885889120995     -1.46556219645564     -0.19592441057490
  N   -0.77560213854650     -2.59760961179555     -0.50652133386008
  C   -1.17048581095975      0.82455689315608     -0.85333117159703
  N   -1.50518846970991      1.56384936121513     -1.70154704968971
