18

C	0.0	0.0	0.0
C	-0.237944	0.002214	-1.572194
Cl	1.798507	0.0	0.0
H	0.499225	-0.743841	-1.89142
N	-0.394018	1.182808	0.828584
O	-0.488458	0.991692	2.042847
O	-0.37227	2.296429	0.29624
C	-0.587585	-1.197142	0.568733
N	-0.644138	-2.322281	0.941401
C	0.130136	1.311716	-2.271438
H	1.07853	1.719186	-1.926377
H	0.210019	1.110068	-3.346893
H	-0.641959	2.06323	-2.115278
C	-1.567664	-0.496301	-2.134105
H	-2.364991	0.236427	-2.010801
H	-1.410903	-0.680973	-3.210463
H	-1.885753	-1.426623	-1.664116
H	-1.939882	0.0	0.0
