18

C	0.0	0.0	0.0
C	-0.360597	0.111974	-1.523998
Cl	1.779327	0.0	0.0
H	-1.350432	0.562434	-1.527981
N	-0.41972	1.240652	0.764131
O	-0.477542	2.297689	0.130372
O	-0.441207	1.152565	1.991612
C	-0.587789	-1.151263	0.663359
N	-0.606429	-2.209357	1.202216
C	-0.469655	-1.28892	-2.113569
H	0.453173	-1.857544	-1.961454
H	-0.652968	-1.218972	-3.190908
H	-1.29524	-1.830622	-1.650331
C	0.56904	0.978061	-2.376784
H	1.50841	0.477937	-2.625935
H	0.043234	1.189875	-3.314887
H	0.791659	1.92782	-1.892159
H	-2.154912	0.0	0.0
