18

C	0.0	0.0	0.0
C	-0.270734	-0.03237	-1.556216
Cl	1.772071	0.0	0.0
H	0.497512	0.639215	-1.951347
N	-0.524783	1.228026	0.643494
O	-0.492432	2.258406	-0.061426
O	-0.588609	1.237888	1.886302
C	-0.468979	-1.166885	0.728204
N	-0.571333	-2.203279	1.286577
C	-1.591733	0.46568	-2.146711
H	-1.380176	0.7186	-3.196334
H	-2.368208	-0.299519	-2.121796
H	-1.950412	1.359456	-1.645937
C	0.003291	-1.447053	-2.075451
H	0.983991	-1.823043	-1.782258
H	-0.052324	-1.452508	-3.169215
H	-0.752048	-2.137447	-1.687291
H	-1.960851	0.0	0.0
