14
Coordinates from ORCA-job run
  C   -0.56422728842890      0.37822300821410     -0.11637118714027
  C   0.62336603563357     -0.39457794690578     -0.72714379637351
  H   -1.11806356411711      0.86731887410297     -0.92074912620956
  H   0.22824425625591     -1.15426584246012     -1.40980979762036
  N   -0.14863650154740      1.30321432173210      0.85441712458568
  H   -0.89436388365586      1.92417353208719      1.13543575829110
  H   0.23796386236808      0.85356731605155      1.67535126511397
  N   -1.53833492239808     -0.71341603150560      0.39229918192834
  O   -1.95560774364937     -1.49372838374185     -0.45797390115241
  O   -1.81626147114485     -0.71135959663557      1.58537368193183
  C   1.37475065308135     -1.06227732805404      0.34139822287955
  N   1.93864470544486     -1.57565049364941      1.23429348654414
  C   1.48244547115694      0.52431917343181     -1.47697517746524
  N   2.15108039100086      1.25345939733264     -2.10854573531325
