14
Coordinates from ORCA-job run
  C   -0.67924286064273      0.28318637357429     -0.10465742515635
  C   0.60432822610130     -0.39718434580935     -0.68511705095396
  H   -1.25757691959561      0.66924359806574     -0.94593882543155
  H   0.30042114462630     -1.18339388218961     -1.38584324229842
  N   -0.51134712736151      1.28068740028572      0.87970239539422
  H   0.06445795212650      0.98829954316808      1.65786489573871
  H   -0.19066210634162      2.15496621351739      0.48886028670886
  N   -1.49461203582464     -0.86865398689560      0.45230223921009
  O   -1.96468931096177     -1.63076495043373     -0.38858847546760
  O   -1.57280611117020     -0.97708143781498      1.66868687024588
  C   1.38920434752709     -0.98626232624678      0.40186847730881
  N   1.98263747010889     -1.43323287302162      1.31147352385249
  C   1.38017566338399      0.62042634518729     -1.39549510936332
  N   1.95071166802401      1.48076432861315     -1.95511855978788
