14
Coordinates from ORCA-job run
  C   -0.53831351847919      0.14193238525986      0.02333859582990
  C   0.92675885543552     -0.26462592859065     -0.20135700289640
  H   -1.13321843150228     -0.06595583419813     -0.87611065309438
  H   1.43062155818632     -0.24287838074599      0.77021926886396
  N   -0.61490833769704      1.47983525004153      0.54656017671540
  H   -0.23615047200215      2.14344556466003     -0.11931278830459
  H   -1.58644193146749      1.71776192027411      0.71221806819236
  N   -1.13960837773588     -0.74714693180211      1.08925996975107
  O   -2.35141776369701     -0.61780087887550      1.22901911634794
  O   -0.40221559272807     -1.47998139617461      1.73880901271380
  C   1.55557705937375      0.70918192871582     -1.09874414716995
  N   2.01635889399761      1.52697208618465     -1.80416366694823
  C   1.01364452638527     -1.61374778355374     -0.76732218596703
  N   1.06031353193065     -2.68599200119526     -1.24241376403384
