13
Coordinates from ORCA-job run
  C   -1.14838985917286     -0.63700490522415      0.43005396991280
  C   -0.05036023034383     -0.00237637617625     -0.40904977765042
  Cl  -1.17522434723146     -2.39618997901789      0.15546213302418
  H   -0.18964619981128     -0.24852096300101     -1.46216751153830
  H   -2.12513729661854     -0.24585167722210      0.14530090180249
  H   -0.97760620247573     -0.45892510987169      1.48971606523380
  C   1.35567476007790     -0.33297823792556      0.05709169680600
  H   1.48690732374226     -0.02963286793997      1.09742693119068
  H   1.53228186446866     -1.40543577041672     -0.02569269537409
  H   2.09064561289298      0.18703131062107     -0.56027283676390
  N   -0.22996792988501      1.48547440514045     -0.33022343413182
  O   -0.35146483277596      1.96723523744952      0.79534877776888
  O   -0.21771266286713      2.11617493358429     -1.38399422028030
