13
Coordinates from ORCA-job run
  C   -1.15798078739198     -0.64481944528986      0.38985821314233
  C   -0.03565467141958     -0.00246341019747     -0.41040318986038
  Cl  -1.16532214261991     -2.40358428609858      0.11084023122055
  H   -0.13568424741310     -0.25039045127619     -1.46754774994488
  H   -1.02429462596682     -0.46846517211593      1.45511803873775
  H   -2.12679239381261     -0.25847773547935      0.07327647982796
  C   1.35522597689248     -0.32336132526581      0.10543731527401
  H   2.10828435716199      0.19909583728265     -0.48756250852344
  H   1.44806713622173     -0.01611401176559      1.14877711828426
  H   1.54068745536052     -1.39502792600673      0.03233041543671
  N   -0.22839461159707      1.48395497097429     -0.33906425841158
  O   -0.39647068164014      1.96501769669793      0.78079991075696
  O   -0.18067076377550      2.11463525854065     -1.39186001594025
