17

C	-0.238842	0.061936	-1.507423
C	0.0	0.0	0.0
F	-1.58887	0.318796	-1.823846
H	1.097102	0.0	0.0
C	0.656708	1.120893	-2.122695
H	0.61666	1.088981	-3.213256
H	1.663637	0.921775	-1.736139
H	0.322891	2.102073	-1.775792
C	0.060787	-1.255306	-2.106571
N	0.265564	-2.288421	-2.625487
C	-0.572886	-1.232157	0.690315
H	-1.643499	-1.356013	0.49702
H	-0.421246	-1.153811	1.768731
H	-0.040249	-2.120296	0.345038
C	-0.487439	1.228216	0.604051
N	-0.882782	2.208395	1.120472
F	2.594044	0.0	0.0
