17

C	-0.224711	-0.002008	-1.507974
C	0.0	0.0	0.0
F	-1.584117	0.155324	-1.849862
H	1.101986	0.0	0.0
C	0.608485	1.090567	-2.150873
H	0.215121	2.060701	-1.838255
H	1.622963	0.95915	-1.758285
H	0.57789	1.02216	-3.239992
C	0.172673	-1.316005	-2.056526
N	0.453413	-2.350166	-2.536911
C	-0.552359	-1.22004	0.729766
H	-0.391582	-1.107811	1.804137
H	-0.008259	-2.10944	0.406279
H	-1.622367	-1.365761	0.549548
C	-0.513762	1.235781	0.560434
N	-0.936679	2.221955	1.043046
F	2.582206	0.0	0.0
