17

C	-0.259466	0.03339	-1.511672
C	0.0	0.0	0.0
F	-0.044496	1.338896	-1.960424
H	1.107235	0.0	0.0
C	0.739416	-0.863637	-2.226004
H	0.734603	-0.629725	-3.293081
H	1.711763	-0.655055	-1.757877
H	0.484024	-1.917187	-2.093738
C	-1.657895	-0.298432	-1.865594
N	-2.758382	-0.605768	-2.141539
C	-0.439516	-1.312655	0.64761
H	0.13918	-2.135422	0.222774
H	-0.208239	-1.276314	1.714207
H	-1.509148	-1.517618	0.527957
C	-0.592338	1.145804	0.660879
N	-1.075056	2.052681	1.233418
F	2.606866	0.0	0.0
