17

C	-0.583183	0.057885	-1.405498
C	0.0	0.0	0.0
Br	0.315101	-1.395011	-2.543416
H	1.093683	0.0	0.0
N	-2.001264	-0.096971	-1.435455
H	-2.351203	-0.03783	-2.383974
H	-2.246354	-1.002748	-1.055238
C	-0.233079	1.306015	-2.088665
N	-0.004492	2.266581	-2.724515
C	-0.457137	-1.229377	0.773185
H	-0.278314	-2.152422	0.21556
H	0.144657	-1.280297	1.68317
H	-1.516725	-1.183988	1.065538
N	-0.376464	1.262384	0.637537
H	0.415311	1.563615	1.191087
H	-1.197457	1.172014	1.222951
F	2.621316	0.0	0.0
