17

C	-0.004118	-0.04562	-1.545017
C	0.0	0.0	0.0
Br	-0.305156	2.185688	-2.332207
H	1.103976	0.0	0.0
N	1.189203	-0.495217	-1.949684
H	1.332997	-0.669706	-2.932409
H	2.033466	-0.294331	-1.265023
C	-1.172256	-0.532803	-2.255167
N	-2.094788	-1.048382	-2.772924
C	-0.526587	-1.326649	0.527747
H	-0.006842	-2.163759	0.055373
H	-0.336847	-1.38201	1.605529
H	-1.605631	-1.414445	0.361308
N	-0.731518	1.093576	0.611531
H	-0.473121	1.097165	1.594248
H	-0.394658	1.963304	0.212325
F	2.809551	0.0	0.0
