17

C	-0.588292	-0.003545	-1.404458
C	0.0	0.0	0.0
Br	0.317075	-1.497113	-2.480383
H	1.097314	0.0	0.0
N	-2.003217	-0.168148	-1.422323
H	-2.359544	-0.163524	-2.37066
H	-2.2418	-1.051004	-0.989116
C	-0.243789	1.21318	-2.144385
N	-0.001685	2.154416	-2.804622
C	-0.452797	-1.194996	0.827701
H	0.156496	-1.207805	1.734736
H	-0.281224	-2.142335	0.309339
H	-1.510688	-1.135381	1.126685
N	-0.369436	1.289411	0.589627
H	-1.161696	1.211848	1.217958
H	0.44213	1.617451	1.103895
F	2.621169	0.0	0.0
