17

C	-0.569359	0.03056	-1.424484
C	0.0	0.0	0.0
Br	-0.044239	-1.594265	-2.414522
H	1.09939	0.0	0.0
N	-2.021256	0.151452	-1.530584
H	-2.421994	-0.696132	-1.14072
H	-2.240995	0.914846	-0.890303
C	0.022894	1.159789	-2.155487
N	0.446805	2.091891	-2.731334
C	-0.523019	-1.1522	0.833283
H	-0.33708	-2.114834	0.355688
H	0.022053	-1.149394	1.78086
H	-1.597373	-1.066988	1.05217
N	-0.44108	1.29818	0.576433
H	0.400549	1.862578	0.64743
H	-0.771125	1.151586	1.5237
F	2.634831	0.0	0.0
