13

C	0.0	0.0	0.0
C	-0.57927	-0.144024	-1.372433
Cl	1.854955	0.0	0.0
H	-0.353259	-1.156371	-1.750647
H	-0.301312	0.957256	0.415658
H	-1.675734	-0.076668	-1.093413
N	-0.409276	-1.072289	0.835879
H	0.135843	-1.90443	0.660834
H	-0.385368	-0.831647	1.814066
N	-0.144998	0.940952	-2.25124
H	-0.799383	1.018111	-3.01932
H	0.768545	0.732895	-2.640462
F	-2.955265	0.0	0.0
