13

C	0.0	0.0	0.0
C	-0.261476	0.535348	-1.453206
Cl	1.839586	0.0	0.0
H	-0.039542	1.608337	-1.429537
H	-0.261894	0.742732	0.759701
H	0.506643	0.075823	-2.078244
N	-0.600967	-1.278195	0.175739
H	-1.61756	-1.011539	0.113929
H	-0.451273	-1.577563	1.134803
N	-1.539793	0.299686	-2.089392
H	-1.561998	-0.686633	-2.31569
H	-2.27769	0.38907	-1.362264
F	-2.990945	0.0	0.0
