13

C	0.0	0.0	0.0
C	-0.483244	0.029925	-1.443988
Cl	1.784718	0.0	0.0
H	0.014854	0.854039	-1.967023
H	-0.270766	0.959538	0.453316
H	-1.556466	0.218315	-1.32699
N	-0.587	-1.129503	0.662149
H	-0.382031	-1.067262	1.654375
H	-1.613682	-0.8876	0.522873
N	-0.186385	-1.245674	-2.124498
H	-0.986934	-1.460824	-2.708384
H	-0.198697	-1.945318	-1.386508
F	-2.878813	0.0	0.0
