13

C	0.0	0.0	0.0
C	-0.214924	0.184787	-1.544609
Cl	1.788199	0.0	0.0
H	0.437794	1.02118	-1.841847
H	-0.320734	0.902627	0.523327
H	0.243959	-0.714115	-1.986991
N	-0.621916	-1.118716	0.620687
H	-1.642271	-0.863447	0.554959
H	-0.46876	-1.939455	0.035133
N	-1.560531	0.409163	-2.026283
H	-1.778087	-0.286953	-2.730168
H	-2.255384	0.303856	-1.25669
F	-3.034243	0.0	0.0
