13

C	0.0	0.0	0.0
C	-0.552238	-0.038346	-1.396348
Cl	1.872897	0.0	0.0
H	-0.204746	0.849699	-1.9451
H	-0.250071	0.937697	0.490664
H	-1.654788	0.005344	-1.160715
N	-0.433953	-1.107784	0.736492
H	0.081245	-1.266306	1.586816
H	-0.474261	-1.920975	0.139714
N	-0.180088	-1.304135	-2.039707
H	-0.806309	-1.482285	-2.812726
H	0.765272	-1.244256	-2.40139
F	-2.961227	0.0	0.0
