12

C	0.0	0.0	0.0
C	-0.532341	-0.097044	-1.414105
Br	1.949741	0.0	0.0
H	-0.178221	-0.982331	-1.937934
H	-0.338774	0.925031	0.463522
H	-1.634492	-0.077888	-1.327306
C	-0.408289	-1.158275	0.789725
N	-0.595543	-2.119106	1.438931
N	-0.121123	1.077252	-2.220839
O	0.07771	0.887696	-3.420409
O	-0.05416	2.167062	-1.656527
Cl	-3.390726	0.0	0.0
