12

C	0.0	0.0	0.0
C	-0.539095	0.035364	-1.415484
Br	1.947583	0.0	0.0
H	-1.635684	-0.067203	-1.332426
H	-0.33242	0.913817	0.493886
H	-0.272832	0.968592	-1.907743
C	-0.411967	-1.143777	0.813232
N	-0.609109	-2.054128	1.528574
N	-0.020501	-1.052708	-2.278671
O	0.128675	-2.164638	-1.779877
O	0.182666	-0.772112	-3.460286
Cl	-3.396242	0.0	0.0
