12

C	0.0	0.0	0.0
C	-0.540776	-0.053524	-1.413555
Br	1.949534	0.0	0.0
H	-1.638106	-0.144539	-1.321938
H	-0.330646	0.943476	0.436008
H	-0.271957	0.844462	-1.966251
C	-0.410662	-1.089081	0.885526
N	-0.605016	-1.938107	1.673356
N	-0.031241	-1.198286	-2.205905
O	0.133096	-2.271487	-1.631821
O	0.148664	-1.001108	-3.408209
Cl	-3.398974	0.0	0.0
