12

C	0.0	0.0	0.0
C	-0.537579	0.293688	-1.384064
Br	1.948624	0.0	0.0
H	-0.184356	-0.411908	-2.133292
H	-0.332957	0.765344	0.69922
H	-1.639659	0.284497	-1.289984
C	-0.411297	-1.327751	0.446144
N	-0.599186	-2.432314	0.798831
N	-0.134196	1.646643	-1.840221
O	-0.047939	2.537742	-0.998302
O	0.039533	1.795111	-3.049279
Cl	-3.402767	0.0	0.0
