12

C	0.0	0.0	0.0
C	-0.546607	0.171589	-1.40163
Br	1.951558	0.0	0.0
H	-1.643956	0.068733	-1.322036
H	-0.330041	0.862327	0.580406
H	-0.278849	1.145861	-1.806833
C	-0.412658	-1.215064	0.700009
N	-0.627527	-2.184356	1.327367
N	-0.041875	-0.833336	-2.368295
O	0.110207	-0.452299	-3.529515
O	0.147458	-1.97874	-1.969199
Cl	-3.408962	0.0	0.0
