12

C	0.0	0.0	0.0
C	-0.537272	0.022099	-1.416609
Br	1.948762	0.0	0.0
H	-0.264933	0.947122	-1.919756
H	-0.327969	0.920488	0.484709
H	-1.634674	-0.073432	-1.33036
C	-0.412558	-1.132562	0.828112
N	-0.595938	-2.014859	1.581278
N	-0.023618	-1.082333	-2.262103
O	0.230448	-0.809885	-3.435951
O	0.072866	-2.196846	-1.756301
Cl	-3.400758	0.0	0.0
