12

C	0.0	0.0	0.0
C	-0.548638	0.148042	-1.401165
Br	1.948958	0.0	0.0
H	-0.280872	1.112437	-1.829104
H	-0.331048	0.870493	0.56738
H	-1.646192	0.048704	-1.311436
C	-0.410224	-1.204233	0.720285
N	-0.651943	-2.167595	1.34681
N	-0.051217	-0.876419	-2.352011
O	0.095396	-0.515704	-3.520228
O	0.138096	-2.014596	-1.933721
Cl	-3.409699	0.0	0.0
