12

C	-0.409615	0.03578	-1.452602
C	0.0	0.0	0.0
Br	-2.337154	0.079293	-1.725047
H	1.095267	0.0	0.0
H	0.010873	0.882048	-1.989895
H	-0.353984	-0.918592	0.470017
N	0.096047	-1.193834	-2.161804
O	0.518711	-1.02411	-3.301117
O	0.013632	-2.260589	-1.565616
C	-0.498087	1.166008	0.71311
N	-0.913888	2.104279	1.283038
Br	3.414714	0.0	0.0
