12

C	-0.408367	0.043254	-1.45357
C	0.0	0.0	0.0
Br	-2.335812	0.094118	-1.73001
H	1.095532	0.0	0.0
H	0.014757	0.891824	-1.985722
H	-0.355527	-0.920747	0.464855
N	0.095819	-1.184045	-2.168519
O	0.532852	-1.007701	-3.300795
O	-0.001824	-2.255749	-1.583257
C	-0.498022	1.162737	0.718935
N	-0.914388	2.097468	1.294251
Br	3.415393	0.0	0.0
