12

C	-0.450694	-0.095889	-1.445953
C	0.0	0.0	0.0
Br	-0.015817	1.461031	-2.475686
H	1.092501	0.0	0.0
H	0.025288	-0.953871	-1.915532
H	-0.311377	-0.919055	0.507972
N	-1.937936	-0.388661	-1.487723
O	-2.215533	-1.559699	-1.228404
O	-2.740572	0.509598	-1.699047
C	-0.559313	1.148662	0.697891
N	-1.031702	2.052692	1.278793
Br	3.437452	0.0	0.0
