12

C	-0.547044	0.049117	-1.420939
C	0.0	0.0	0.0
Br	0.033652	-1.427837	-2.49619
H	1.095296	0.0	0.0
H	-1.636878	0.056692	-1.438612
H	-0.331208	0.90615	0.515705
N	-0.160765	1.388241	-2.034539
O	0.57077	1.442411	-3.008148
O	-0.678992	2.343182	-1.457581
C	-0.527427	-1.159197	0.706263
N	-0.989161	-2.075785	1.276551
Br	3.452074	0.0	0.0
