12

C	-0.407121	0.094363	-1.451881
C	0.0	0.0	0.0
Br	-2.334024	0.162371	-1.727929
H	1.095745	0.0	0.0
H	0.020168	0.959036	-1.954398
H	-0.356808	-0.93606	0.432332
N	0.093053	-1.109966	-2.207294
O	-0.012293	-2.200911	-1.660205
O	0.53416	-0.896537	-3.331802
C	-0.497319	1.137657	0.758569
N	-0.906731	2.052726	1.369211
Br	3.415607	0.0	0.0
