12

C	-0.451665	0.024172	-1.443042
C	0.0	0.0	0.0
Br	0.076354	1.664244	-2.311626
H	1.092547	0.0	0.0
H	-0.04292	-0.800841	-2.022284
H	-0.362029	0.884529	0.52602
N	-1.951409	-0.086454	-1.559165
O	-2.627572	0.588643	-0.790557
O	-2.381562	-0.847337	-2.423232
C	-0.503269	-1.205864	0.650335
N	-0.92013	-2.186891	1.143044
Br	3.446324	0.0	0.0
