12

C	-0.406405	0.209802	-1.439991
C	0.0	0.0	0.0
Br	-2.331882	0.317047	-1.706465
H	1.097849	0.0	0.0
H	0.028357	1.106878	-1.873146
H	-0.358782	-0.966219	0.356387
N	0.084128	-0.935155	-2.283431
O	-0.070249	-2.066639	-1.839283
O	0.575852	-0.636561	-3.36759
C	-0.490488	1.077268	0.845342
N	-0.885745	1.950898	1.52316
Br	3.410876	0.0	0.0
