12

C	-0.589993	-0.104115	-1.391246
C	0.0	0.0	0.0
Br	0.122264	-1.634002	-2.33216
H	1.091012	0.0	0.0
H	-1.674173	-0.212064	-1.393886
H	-0.300818	-0.901916	0.543808
N	-0.333327	1.129833	-2.225681
O	0.568372	1.880364	-1.87765
O	-1.075266	1.274384	-3.194876
C	-0.556595	1.156936	0.694341
N	-1.061344	2.064497	1.241602
Br	3.481694	0.0	0.0
