12

C	-0.408924	-0.037142	-1.451129
C	0.0	0.0	0.0
Br	-2.334604	0.080605	-1.721839
H	1.098962	0.0	0.0
H	0.038568	0.792102	-1.993561
H	-0.299708	0.976175	0.393895
N	0.060756	-1.275267	-2.168835
O	0.001847	-2.338338	-1.564297
O	0.436628	-1.111449	-3.325606
C	-0.572797	-1.031384	0.851433
N	-1.055017	-1.802121	1.59305
Br	3.414879	0.0	0.0
