12

C	-0.411697	0.072205	-1.448051
C	0.0	0.0	0.0
Br	-2.337128	0.195644	-1.709065
H	1.096277	0.0	0.0
H	0.031519	0.941977	-1.926437
H	-0.29837	0.943896	0.467511
N	0.063524	-1.1055	-2.257121
O	0.423051	-0.852481	-3.403031
O	0.025601	-2.209503	-1.730235
C	-0.573537	-1.091997	0.771725
N	-1.061195	-1.915868	1.451211
Br	3.416606	0.0	0.0
