14
Coordinates from ORCA-job run
  C   -0.42814185375502      0.31359590408930     -0.21986310240818
  C   0.90583415450511      0.18021138125155      0.46474662499821
  F   -0.35950748289431      1.00584822555566     -1.34739306870786
  H   0.83472333131181     -0.49171408670825      1.31683750868809
  H   1.27229782701262      1.15648111983914      0.77880093638071
  N   -1.42042478752819      1.01003255019503      0.71110611470353
  O   -2.30023215569492      1.65546608262961      0.16160678817165
  O   -1.25089794872444      0.82337397804637      1.91006498111027
  N   -1.08386829037275     -1.03967096099980     -0.50062521082921
  O   -1.03532315929406     -1.83000732644205      0.43167864202290
  O   -1.61655439116750     -1.17128545441201     -1.58762276091564
  N   1.91199190852956     -0.38892997668214     -0.48443086107249
  O   3.06780944995797     -0.01412294896583     -0.33604426755483
  O   1.50329339811412     -1.21127848739660     -1.29886232458714
