14
Coordinates from ORCA-job run
  C   -0.47234992301394      0.21901571035143     -0.24459557146993
  C   0.90481758633150      0.35888334175559      0.34675266469563
  F   -0.54526539471892      0.66811786744859     -1.48878760610363
  H   1.17888629029825      1.40974373064974      0.42867636159660
  H   0.95590720794912     -0.12494222556985      1.31929298935095
  N   -1.48026031104285      0.99373700034618      0.60486652725513
  O   -1.22845456780593      1.06239418395007      1.80196163936692
  O   -2.44897445862142      1.43763008412613      0.00746551869520
  N   -0.98978575932125     -1.21987351121228     -0.19895866293310
  O   -0.79271770440697     -1.79728859044934      0.86116881967806
  O   -1.57406164615420     -1.61911872818818     -1.18995597915027
  N   1.91294002413228     -0.29554585017548     -0.54368751383886
  O   1.54916041445261     -1.29727512645557     -1.15253686270213
  O   3.03015824192171      0.20452211342295     -0.55266232444059
