14
Coordinates from ORCA-job run
  C   -0.46926691758354      0.02988674631568      0.33038439965043
  C   0.93591062070546      0.43802413991312     -0.02349866917052
  F   -0.56761811873752     -0.46524383397648      1.55522642860496
  H   0.99963754999306      0.72426893947897     -1.07067817636514
  H   1.26817176540032      1.25430460493645      0.61626478853652
  N   -1.05989816508451     -0.97079878409286     -0.66460144703531
  O   -0.85933614481652     -0.69609497182008     -1.83960406256224
  O   -1.69567799185222     -1.89629654262747     -0.19353288980417
  N   -1.40028600690321      1.23777045347462      0.22533352992899
  O   -1.09305811366911      2.07891639865395     -0.61090683187825
  O   -2.37278061864567      1.22432793687503      0.96469020735311
  N   1.87110796799465     -0.70836419870422      0.19597989635165
  O   1.43342570146369     -1.83255652905447     -0.03055997550109
  O   3.00866847173513     -0.41914435937225      0.54350280189107
