14
Coordinates from ORCA-job run
  C   -0.52136131339554     -0.02090223407732      0.54878114217775
  C   0.98737276206615     -0.04107708194284      0.55520954674329
  F   -0.94677239958440      0.00980795324427      1.81928063035049
  H   1.33903755722077     -0.95192562780512      1.03686137100683
  H   1.32277756423778      0.83970343315290      1.10574057057131
  N   -1.12947068445927     -1.23208722918778     -0.12433456286105
  O   -2.23277211616109     -1.57069649593735      0.27373399634963
  O   -0.45173414676425     -1.73931459206193     -1.01035597812667
  N   -1.09359643954775      1.21684437468957     -0.13591582238304
  O   -1.83732708438296      1.05125062334993     -1.08908076543633
  O   -0.75009684110234      2.26235675777010      0.39383082644382
  N   1.60789441984787      0.02732193626616     -0.79993528409104
  O   1.10084216553846      0.80921881429437     -1.59638535807299
  O   2.60320655648657     -0.66150063175496     -0.97643031267201
