14

C	-0.530241	0.015276	-1.421693
C	0.0	0.0	0.0
Br	0.590605	-1.157875	-2.620952
H	1.093074	0.0	0.0
H	-0.306749	1.002025	-1.825245
N	-1.922341	-0.251238	-1.528429
H	-2.101698	-1.204464	-1.238517
H	-2.231032	-0.138523	-2.485273
N	-0.408512	-1.186869	0.779893
O	-0.32359	-1.115232	2.003798
O	-0.742963	-2.204506	0.16336
C	-0.455781	1.193224	0.687737
N	-0.796736	2.201225	1.187423
F	2.443493	0.0	0.0
