14

C	-0.138625	0.05076	-1.50977
C	0.0	0.0	0.0
Br	-1.998704	0.433452	-2.125286
H	1.09836	0.0	0.0
H	0.035412	-0.954974	-1.892881
N	0.756295	1.069958	-1.969214
H	0.906577	0.967317	-2.965086
H	1.63894	0.904189	-1.462146
N	-0.494717	-1.255697	0.595774
O	-0.914905	-1.22105	1.751037
O	-0.393957	-2.280979	-0.078167
C	-0.513606	1.160817	0.691318
N	-0.893915	2.122788	1.250479
F	2.519429	0.0	0.0
