14

C	-0.406589	0.154735	-1.455489
C	0.0	0.0	0.0
Br	0.245082	-1.509269	-2.430993
H	1.106367	0.0	0.0
H	0.255337	0.913669	-1.872957
N	-1.76196	0.45396	-1.703229
H	-2.355963	-0.26397	-1.309603
H	-1.942966	0.561179	-2.692498
N	-0.55697	-1.241136	0.621844
O	-1.697585	-1.594761	0.291664
O	0.13424	-1.821706	1.450604
C	-0.487258	1.122415	0.779607
N	-0.848632	2.046287	1.411419
F	2.476566	0.0	0.0
