14

C	-0.510576	0.096007	-1.424593
C	0.0	0.0	0.0
Br	0.564497	-1.099452	-2.645999
H	1.096201	0.0	0.0
H	-0.220958	1.081451	-1.787129
N	-1.912188	-0.085913	-1.563402
H	-2.19541	0.068535	-2.522069
H	-2.151509	-1.033633	-1.300476
N	-0.424868	-1.219253	0.718574
O	-0.858695	-2.171964	0.062216
O	-0.261885	-1.235741	1.935969
C	-0.447588	1.160405	0.747255
N	-0.779476	2.141713	1.303487
F	2.442414	0.0	0.0
