14

C	-0.202267	-0.238979	-1.500304
C	0.0	0.0	0.0
Br	-0.174407	1.632021	-2.425998
H	1.107916	0.0	0.0
H	-1.189812	-0.581876	-1.796226
N	0.837662	-1.076107	-1.877198
H	0.891298	-1.271877	-2.864449
H	1.730244	-0.785882	-1.435215
N	-0.479253	-1.228658	0.729783
O	0.18239	-1.600299	1.692151
O	-1.52003	-1.761194	0.335944
C	-0.645281	1.141594	0.60102
N	-1.144088	2.050568	1.154588
F	2.569786	0.0	0.0
