15

C	0.0	0.0	0.0
C	-0.579632	-0.035382	-1.399094
Cl	1.797386	0.0	0.0
H	-0.48014	-1.04414	-1.798982
H	-1.652991	0.203179	-1.312422
N	-0.414445	1.268376	0.75223
O	-0.185071	1.253102	1.956187
O	-0.929936	2.17165	0.117646
N	-0.533699	-1.061607	0.728838
H	-0.310575	-1.021925	1.709972
H	-0.394506	-1.967085	0.31331
N	0.055492	0.845302	-2.42023
O	0.684746	1.838984	-2.073971
O	-0.138518	0.503056	-3.586483
Cl	-3.714404	0.0	0.0
