15

C	0.0	0.0	0.0
C	-0.500643	-0.17303	-1.438244
Cl	1.75496	0.0	0.0
H	-1.59666	-0.240775	-1.385629
H	-0.171826	0.63632	-2.079266
N	-0.383429	1.457103	0.402987
O	-0.275585	2.306703	-0.475425
O	-0.690164	1.654231	1.565665
N	-0.506839	-0.858542	0.99582
H	-1.524156	-0.71236	1.013381
H	-0.338543	-1.810661	0.69272
N	0.020613	-1.422131	-2.046988
O	-0.05112	-2.468987	-1.402706
O	0.474728	-1.339585	-3.188266
Cl	-3.495984	0.0	0.0
