15

C	0.0	0.0	0.0
C	-0.534077	0.167777	-1.411767
Cl	1.776894	0.0	0.0
H	-0.170361	1.091648	-1.845388
H	-1.628657	0.131027	-1.353007
N	-0.315855	1.360974	0.752975
O	-0.446402	1.264813	1.9653
O	-0.348401	2.396324	0.101592
N	-0.521873	-1.104091	0.657098
H	-0.272822	-1.079235	1.63851
H	-1.544596	-1.074612	0.554463
N	-0.0626	-0.934831	-2.289748
O	-0.582101	-2.039031	-2.158091
O	0.811396	-0.654766	-3.115264
Cl	-3.533222	0.0	0.0
