15

C	0.0	0.0	0.0
C	-0.516873	-0.077135	-1.421775
Cl	1.826559	0.0	0.0
H	-0.13686	0.750199	-2.008603
H	-1.613345	-0.086283	-1.365651
N	-0.28661	1.474895	0.499878
O	-0.41261	1.597442	1.710134
O	-0.307968	2.378363	-0.324877
N	-0.516362	-0.96171	0.845221
H	-0.284914	-0.749317	1.807417
H	-1.536581	-0.969725	0.721659
N	-0.063959	-1.322167	-2.09504
O	0.738634	-1.189755	-3.024493
O	-0.536758	-2.39005	-1.715333
Cl	-3.507058	0.0	0.0
