15

C	0.0	0.0	0.0
C	-0.534095	0.139654	-1.415048
Cl	1.776593	0.0	0.0
H	-0.170809	1.054685	-1.867551
H	-1.628618	0.103105	-1.357492
N	-0.318957	1.3728	0.72699
O	-0.451311	1.299897	1.940761
O	-0.352107	2.395879	0.05617
N	-0.523656	-1.092581	0.675345
H	-0.281021	-1.048232	1.657515
H	-1.545667	-1.068827	0.565802
N	-0.059653	-0.979378	-2.27005
O	-0.585358	-2.078756	-2.124095
O	0.823471	-0.717784	-3.091703
Cl	-3.529584	0.0	0.0
