15

C	0.0	0.0	0.0
C	-0.405594	0.06831	-1.484009
Br	1.945273	0.0	0.0
H	0.117021	0.911682	-1.965658
H	-1.511442	0.244673	-1.435455
N	-0.493653	1.261242	0.682893
O	-0.60397	1.23017	1.908399
O	-0.621523	2.256346	-0.026377
C	-0.352811	-1.258216	0.777089
H	0.079554	-2.098606	0.241006
H	0.109684	-1.196711	1.772296
H	-1.446395	-1.328803	0.819001
C	-0.09454	-1.174242	-2.171488
N	0.169589	-2.18305	-2.708121
H	-2.657252	0.0	0.0
