15

C	0.0	0.0	0.0
C	-0.510466	-0.050552	-1.428091
Br	1.94534	0.0	0.0
H	-1.628282	0.01347	-1.270627
H	-0.132744	0.800972	-1.995588
N	-0.429997	1.308851	0.629817
O	-0.546814	2.269006	-0.123215
O	-0.529333	1.339189	1.849787
C	-0.428598	-1.181847	0.837707
H	-0.058848	-2.090336	0.357526
H	-0.001779	-1.110437	1.837218
H	-1.52571	-1.159506	0.856274
C	-0.13318	-1.288961	-2.086469
N	0.143913	-2.289484	-2.638451
H	-2.918135	0.0	0.0
