13

C	-0.392957	0.054866	-1.485153
C	0.0	0.0	0.0
F	-0.112094	-1.215075	-2.020461
H	1.097607	0.0	0.0
H	-1.469651	0.193413	-1.624005
N	0.330485	1.099666	-2.090042
H	0.145974	1.152404	-3.082832
H	1.327227	0.991189	-1.915125
C	-0.511045	-1.202833	0.65169
N	-0.946085	-2.157763	1.177861
C	-0.48805	1.192941	0.688783
N	-0.911501	2.1389	1.240498
Cl	3.218619	0.0	0.0
