13

C	-0.429901	0.007494	-1.475531
C	0.0	0.0	0.0
F	-0.097694	1.232127	-2.012999
H	1.096023	0.0	0.0
H	0.186774	-0.731984	-2.003164
N	-1.850213	-0.154987	-1.618037
H	-2.170197	-0.963807	-1.100706
H	-2.082346	-0.284824	-2.594931
C	-0.456683	-1.237925	0.6288
N	-0.849047	-2.255655	1.065385
C	-0.527322	1.161875	0.711139
N	-0.946688	2.095685	1.285278
Cl	3.199359	0.0	0.0
