13

C	-0.45445	-0.035262	-1.465066
C	0.0	0.0	0.0
F	0.073627	1.107261	-2.073642
H	1.095282	0.0	0.0
H	0.006377	-0.894413	-1.95671
N	-1.866692	-0.098006	-1.585822
H	-2.288335	0.725121	-1.170386
H	-2.133463	-0.142566	-2.56123
C	-0.470472	-1.194476	0.700883
N	-0.835153	-2.162747	1.255288
C	-0.515104	1.205168	0.648657
N	-0.961204	2.183998	1.119782
Cl	3.208828	0.0	0.0
