13

C	-0.352851	0.068452	-1.497859
C	0.0	0.0	0.0
F	-0.132272	-1.220163	-2.019813
H	1.09751	0.0	0.0
H	-1.414663	0.26924	-1.670468
N	0.452737	1.063838	-2.081047
H	1.433916	0.908658	-1.854595
H	0.320461	1.110778	-3.081962
C	-0.531314	-1.200651	0.636641
N	-0.986132	-2.152249	1.151908
C	-0.487108	1.196683	0.682205
N	-0.914089	2.144372	1.228161
Cl	3.221328	0.0	0.0
