13

C	-0.357084	-0.120918	-1.509877
C	0.0	0.0	0.0
F	-0.17602	-1.449145	-1.844839
H	1.095674	0.0	0.0
H	-1.409735	0.123607	-1.684694
N	0.471287	0.693834	-2.328392
H	1.433747	0.667337	-1.991992
H	0.143035	1.650071	-2.327237
C	-0.559423	-1.070441	0.815137
N	-1.041158	-1.928203	1.456327
C	-0.460537	1.304357	0.468578
N	-0.864637	2.362514	0.777676
Cl	3.208798	0.0	0.0
