13

C	-0.430885	0.003329	-1.474896
C	0.0	0.0	0.0
F	-0.087865	1.220306	-2.021127
H	1.095996	0.0	0.0
H	0.176128	-0.746375	-1.99848
N	-1.853241	-0.144218	-1.614549
H	-2.088494	-0.266098	-2.591844
H	-2.178249	-0.954094	-1.102116
C	-0.457439	-1.236022	0.631443
N	-0.843919	-2.254286	1.071848
C	-0.525893	1.164202	0.70783
N	-0.94229	2.100234	1.280311
Cl	3.207076	0.0	0.0
