13

C	-0.430164	0.010337	-1.475356
C	0.0	0.0	0.0
F	-0.099201	1.235601	-2.010893
H	1.096101	0.0	0.0
H	0.186295	-0.728314	-2.004349
N	-1.850908	-0.151401	-1.618043
H	-2.083211	-0.26124	-2.597486
H	-2.166624	-0.972946	-1.11862
C	-0.456393	-1.239419	0.625836
N	-0.837231	-2.261894	1.061438
C	-0.527356	1.160665	0.712979
N	-0.946432	2.093638	1.288605
Cl	3.199961	0.0	0.0
