13

C	-0.454257	-0.034356	-1.465285
C	0.0	0.0	0.0
F	0.066286	1.11303	-2.070875
H	1.094601	0.0	0.0
H	0.013705	-0.888351	-1.95866
N	-1.865526	-0.107943	-1.588048
H	-2.295011	0.70899	-1.169015
H	-2.131423	-0.151483	-2.563788
C	-0.469253	-1.195897	0.699625
N	-0.834022	-2.164492	1.253213
C	-0.515861	1.20348	0.651097
N	-0.954636	2.184169	1.124895
Cl	3.205865	0.0	0.0
