18

C	-0.51441	-0.019764	-1.442575
C	0.0	0.0	0.0
Br	0.432201	1.430509	-2.502896
H	1.094349	0.0	0.0
C	-0.149516	-1.253596	-2.147524
N	0.107401	-2.253119	-2.710676
N	-1.930977	0.137387	-1.512026
H	-2.251379	0.132673	-2.473235
H	-2.192252	1.018676	-1.08543
C	-0.455895	-1.264637	0.72924
H	-0.036426	-2.160422	0.2653
H	-0.078948	-1.226071	1.754704
H	-1.545584	-1.351813	0.752618
C	-0.462472	1.245944	0.748386
H	0.098618	1.311329	1.683017
H	-1.529278	1.20974	1.002465
H	-0.253669	2.159155	0.186029
Cl	3.449184	0.0	0.0
