18

C	-0.524958	0.020739	-1.445878
C	0.0	0.0	0.0
Br	0.298815	1.520402	-2.431595
H	1.095793	0.0	0.0
C	-0.137778	-1.199842	-2.164602
N	0.090159	-2.211686	-2.716947
N	-1.967106	0.17053	-1.61463
H	-2.253813	1.027199	-1.154181
H	-2.423468	-0.608267	-1.149731
C	-0.440539	-1.286882	0.702237
H	-0.068835	-2.175224	0.187758
H	-1.530746	-1.360919	0.802815
H	-0.013167	-1.294201	1.707521
C	-0.461626	1.217671	0.794911
H	-1.538617	1.1986	1.001825
H	0.061825	1.219356	1.753548
H	-0.210483	2.151114	0.288551
Cl	3.446185	0.0	0.0
