18

C	-0.240384	-0.060811	-1.511306
C	0.0	0.0	0.0
Br	-2.15196	-0.573893	-1.943291
H	1.101653	0.0	0.0
C	-0.123306	1.264313	-2.142112
N	0.011428	2.309315	-2.664956
N	0.626286	-1.044568	-2.083996
H	0.681141	-0.951389	-3.090445
H	1.558072	-0.930123	-1.674645
C	-0.447913	-1.277378	0.700387
H	-1.52935	-1.284969	0.865414
H	0.056184	-1.338894	1.668412
H	-0.173532	-2.15745	0.117511
C	-0.551234	1.245141	0.668983
H	-1.64018	1.301769	0.560814
H	-0.107759	2.155536	0.261571
H	-0.314926	1.211371	1.735694
Cl	3.395846	0.0	0.0
