18

C	-0.490452	-0.002982	-1.450175
C	0.0	0.0	0.0
Br	0.197581	1.555182	-2.443062
H	1.096043	0.0	0.0
C	0.023247	-1.175479	-2.183084
N	0.299137	-2.150752	-2.781324
N	-1.942093	0.071975	-1.524534
H	-2.233826	0.023142	-2.495239
H	-2.323097	-0.736589	-1.042121
C	-0.440369	-1.286602	0.707323
H	-1.520418	-1.314572	0.899355
H	0.067157	-1.332955	1.6735
H	-0.15002	-2.181401	0.151307
C	-0.480588	1.225071	0.769197
H	-0.089784	1.167938	1.78879
H	-0.098091	2.144278	0.324134
H	-1.571997	1.280033	0.807518
Cl	3.456094	0.0	0.0
