17

C	-0.54986	-0.007747	-1.440677
C	0.008545	-0.074978	-0.03116
Br	0.374864	1.344326	-2.512726
H	1.100627	-0.066485	-0.015505
N	-0.181466	-1.339437	-2.185378
O	0.900316	-1.852053	-1.946155
O	-1.017021	-1.763191	-2.984422
N	-1.938112	0.237797	-1.497973
H	-2.410812	-0.393178	-0.858291
H	-2.286776	0.085164	-2.436221
C	-0.562672	-1.256592	0.597953
N	-1.066194	-2.198722	1.093758
C	-0.303974	1.181217	0.784831
H	0.197533	2.017818	0.304617
H	0.176306	1.057485	1.754152
H	-1.374933	1.373111	0.89644
F	2.38847	0.658609	0.349629
