17

C	-0.552755	0.049769	-1.437195
C	0.00082	-0.054921	-0.028626
Br	0.434211	1.365646	-2.498835
H	1.097307	-0.095121	-0.013337
N	-0.24729	-1.291792	-2.192904
O	-1.099695	-1.666522	-2.998643
O	0.804583	-1.86218	-1.951058
N	-1.928198	0.360796	-1.493284
H	-2.281726	0.233371	-2.433513
H	-2.430529	-0.253897	-0.860294
C	-0.626497	-1.211849	0.592049
N	-1.180435	-2.125851	1.086907
C	-0.251738	1.208305	0.797704
H	0.21663	1.051952	1.768321
H	-1.312123	1.452804	0.90713
H	0.29377	2.022445	0.326838
F	2.414584	0.562014	0.337575
