17

C	-0.527073	0.002325	-1.456183
C	0.014018	-0.05561	-0.043539
Br	0.639395	1.258899	-2.539273
H	1.106103	-0.086071	0.006373
N	-0.318954	-1.317619	-2.203182
O	0.592749	-2.041774	-1.832844
O	-1.074193	-1.53383	-3.148519
N	-1.891221	0.309797	-1.541139
H	-2.088335	1.168783	-1.047126
H	-2.208842	0.356958	-2.500035
C	-0.58945	-1.193856	0.637163
N	-1.07425	-2.093609	1.219297
C	-0.26542	1.233679	0.73837
H	-1.31468	1.349111	1.03547
H	0.390938	1.197346	1.604288
H	0.071949	2.084531	0.146494
F	2.398869	0.576653	0.534365
