13

C	-0.564647	0.04871	-1.42143
C	0.0	0.0	0.0
Br	0.227275	1.525494	-2.441562
H	1.09415	0.0	0.0
H	-1.629848	0.287835	-1.388401
C	-0.374127	-1.188152	-2.170364
N	-0.247575	-2.167963	-2.80561
C	-0.476916	-1.207442	0.659822
N	-0.87823	-2.160356	1.223302
N	-0.375078	1.217403	0.71981
H	-1.021179	1.018808	1.471568
H	0.485751	1.58023	1.121162
H	2.627755	0.0	0.0
