13

C	-0.412691	0.0559	-1.454427
C	0.0	0.0	0.0
Br	-2.377543	-0.07216	-1.716759
H	1.096747	0.0	0.0
H	-0.000909	-0.80003	-1.99523
C	0.023846	1.293286	-2.08833
N	0.38036	2.281832	-2.613106
C	-0.437383	-1.248753	0.611803
N	-0.78756	-2.240252	1.140109
N	-0.387859	1.19395	0.72723
H	-1.194233	1.039929	1.316432
H	0.405251	1.467041	1.300396
H	2.610441	0.0	0.0
