13

C	-0.558035	-0.011911	-1.424426
C	0.0	0.0	0.0
Br	0.232612	1.425881	-2.49986
H	1.100682	0.0	0.0
H	-1.628079	0.216057	-1.410042
C	-0.354202	-1.277851	-2.123635
N	-0.260563	-2.298407	-2.698898
C	-0.473072	-1.180179	0.706142
N	-0.856559	-2.108956	1.320173
N	-0.381065	1.243326	0.667046
H	-1.008415	1.074821	1.439949
H	0.481244	1.633267	1.036052
H	2.616394	0.0	0.0
