13

C	-0.562571	0.057384	-1.422555
C	0.0	0.0	0.0
Br	0.224537	1.54634	-2.425977
H	1.094126	0.0	0.0
H	-1.630105	0.287652	-1.392291
C	-0.36239	-1.172681	-2.180766
N	-0.258959	-2.165722	-2.800611
C	-0.477953	-1.212186	0.649918
N	-0.879795	-2.168363	1.207682
N	-0.377433	1.210745	0.728951
H	-1.024275	1.004415	1.478543
H	0.483773	1.572163	1.13492
H	2.628822	0.0	0.0
