18

C	-0.530877	0.042355	-1.425518
C	0.0	0.0	0.0
Br	0.243221	-1.351642	-2.55447
H	1.102571	0.0	0.0
C	-1.983773	-0.111836	-1.48942
N	-3.147313	-0.287536	-1.483334
N	-0.199969	1.408039	-2.0629
O	0.875639	1.551188	-2.614753
O	-1.055838	2.274512	-1.890069
C	-0.452437	-1.273688	0.703606
H	0.075002	-1.326723	1.659774
H	-1.531995	-1.288899	0.893028
H	-0.178362	-2.165866	0.137794
C	-0.420141	1.233713	0.795706
H	-0.04257	1.100739	1.8126
H	-1.505121	1.376751	0.837086
H	0.04454	2.140902	0.405584
H	2.780077	0.0	0.0
