18

C	-0.434956	0.117682	-1.439154
C	0.0	0.0	0.0
Br	0.345738	1.684771	-2.332718
H	1.097267	0.0	0.0
C	-0.073406	-1.043912	-2.246796
N	0.2264	-1.964849	-2.913592
N	-1.959589	0.252805	-1.496096
O	-2.582945	-0.809597	-1.567148
O	-2.456166	1.362405	-1.335176
C	-0.402954	-1.340687	0.60453
H	0.080973	-1.412301	1.583185
H	-0.037053	-2.177175	0.005461
H	-1.485466	-1.44763	0.735753
C	-0.454299	1.160307	0.870833
H	-1.525304	1.127285	1.101089
H	-0.228241	2.124096	0.412646
H	0.108027	1.102712	1.807496
H	2.670128	0.0	0.0
