18

C	-0.400227	-0.015349	-1.457091
C	0.0	0.0	0.0
Br	0.422178	1.453423	-2.472361
H	1.096367	0.0	0.0
C	-0.026773	-1.251097	-2.139643
N	0.273998	-2.243852	-2.693232
N	-1.919611	0.126651	-1.573366
O	-2.553905	-0.931465	-1.56436
O	-2.406759	1.251231	-1.535027
C	-0.423228	-1.276934	0.715948
H	0.012412	-1.24831	1.719261
H	-0.026149	-2.164546	0.218883
H	-1.510385	-1.379739	0.806655
C	-0.465387	1.240746	0.743671
H	-1.545105	1.245647	0.932091
H	0.057492	1.261144	1.704372
H	-0.202794	2.154481	0.208687
H	2.677364	0.0	0.0
