18

C	-0.453658	0.145053	-1.426027
C	0.0	0.0	0.0
Br	0.409489	1.659498	-2.342626
H	1.104628	0.0	0.0
C	-0.200929	-1.039309	-2.241002
N	0.018097	-1.981746	-2.90872
N	-1.967481	0.387313	-1.448919
O	-2.389137	1.534266	-1.369319
O	-2.656084	-0.636315	-1.395218
C	-0.398045	-1.342018	0.603079
H	-0.049075	-2.177273	-0.008125
H	0.108263	-1.420225	1.570227
H	-1.478378	-1.442514	0.756511
C	-0.43244	1.15533	0.889861
H	-0.213605	2.122248	0.434557
H	-1.499121	1.121668	1.142874
H	0.1482	1.089917	1.814139
H	2.642988	0.0	0.0
