16

C	0.0	0.0	0.0
C	-0.525449	-0.212377	-1.42786
Br	1.957482	0.0	0.0
H	-1.605758	-0.334838	-1.271199
N	-0.517847	1.234538	0.524363
H	-0.259396	1.328462	1.500711
H	-1.543312	1.14491	0.478151
C	-0.323891	-1.185739	0.818228
N	-0.544714	-2.08212	1.546006
N	-0.001908	-1.443139	-1.978012
H	-0.690253	-1.856797	-2.593044
H	0.823547	-1.215367	-2.520419
N	-0.200541	0.961805	-2.237433
H	-0.952127	1.086593	-2.907544
H	-0.218905	1.774124	-1.626587
Br	-3.779793	0.0	0.0
