15

C	-0.39303	-0.03692	-1.449898
C	0.0	0.0	0.0
F	-1.784107	-0.018375	-1.619912
H	1.094257	0.0	0.0
H	0.009618	0.841017	-1.955652
C	0.102173	-1.256751	-2.107281
N	0.429952	-2.232793	-2.670771
C	-0.487081	-1.160587	0.833063
H	-0.146566	-2.091642	0.373151
H	-0.046812	-1.097017	1.827533
H	-1.57581	-1.17741	0.925254
N	-0.378485	1.290373	0.559456
O	-0.646995	1.349757	1.768982
O	-0.286187	2.289727	-0.170784
H	2.543419	0.0	0.0
