15

C	-0.506309	0.041785	-1.434622
C	0.0	0.0	0.0
F	-0.476894	-1.244965	-1.973324
H	1.090983	0.0	0.0
H	-1.546563	0.380875	-1.468901
C	0.27429	0.909049	-2.337823
N	0.801478	1.563922	-3.156928
C	-0.389841	-1.2501	0.754773
H	-1.47478	-1.389326	0.815369
H	0.021422	-1.179428	1.760656
H	0.060643	-2.110184	0.259319
N	-0.416031	1.200777	0.667594
O	-0.361126	1.2457	1.908384
O	-0.686456	2.193081	-0.045974
H	2.479886	0.0	0.0
