15

C	-0.49307	0.119168	-1.435593
C	0.0	0.0	0.0
F	-0.420726	-1.130983	-2.051577
H	1.090965	0.0	0.0
H	-1.54141	0.430972	-1.464046
C	0.277325	1.056778	-2.273943
N	0.80871	1.760029	-3.048661
C	-0.380679	-1.299238	0.671016
H	0.109255	-2.115478	0.141154
H	-1.461992	-1.470544	0.687262
H	-0.00073	-1.278831	1.691465
N	-0.438213	1.152596	0.733196
O	-0.731061	2.178562	0.077899
O	-0.389224	1.125239	1.974592
H	2.478507	0.0	0.0
