15

C	-0.437212	-0.054989	-1.442434
C	0.0	0.0	0.0
F	-0.016022	1.031242	-2.179156
H	1.091084	0.0	0.0
H	0.058753	-0.935089	-1.867892
C	-1.897251	-0.217587	-1.610506
N	-3.044689	-0.412517	-1.765346
C	-0.370273	-1.260741	0.759215
H	-1.450418	-1.428545	0.819904
H	0.10837	-2.113802	0.269823
H	0.041504	-1.188547	1.764169
N	-0.510468	1.18164	0.692445
O	-1.153237	2.023595	0.048229
O	-0.220437	1.297633	1.88989
H	2.601212	0.0	0.0
