15

C	-0.419338	-0.123079	-1.445104
C	0.0	0.0	0.0
F	0.007235	0.928084	-2.229474
H	1.091075	0.0	0.0
H	0.084017	-1.021058	-1.823158
C	-1.873498	-0.302813	-1.624235
N	-3.017485	-0.53787	-1.747769
C	-0.36865	-1.232607	0.804775
H	0.045914	-1.123763	1.806003
H	-1.449361	-1.39459	0.869358
H	0.106729	-2.104153	0.345769
N	-0.521077	1.202849	0.639063
O	-0.262896	1.35158	1.839245
O	-1.140521	2.0323	-0.04398
H	2.593493	0.0	0.0
