14

C	0.0	0.0	0.0
C	-0.488119	0.058687	-1.450917
Br	1.949385	0.0	0.0
H	-1.567089	0.222124	-1.302125
H	-0.34648	0.899438	0.507673
C	-0.428574	-1.184098	0.741479
N	-0.585449	-2.159296	1.382718
N	-0.177971	-1.201839	-2.139448
H	-0.61501	-1.956512	-1.615388
H	-0.669223	-1.17044	-3.028846
N	0.102653	1.201388	-2.115934
H	-0.493447	1.478889	-2.885336
H	1.006658	0.930717	-2.489891
H	-2.879444	0.0	0.0
