14

C	0.0	0.0	0.0
C	-0.295725	0.062172	-1.551223
Br	1.956144	0.0	0.0
H	0.616451	0.456121	-2.006804
H	-0.306642	0.927104	0.473498
C	-0.562016	-1.143758	0.697192
N	-0.586312	-2.137294	1.343575
N	-1.319192	1.024747	-1.913874
H	-1.492222	0.920641	-2.912167
H	-2.141126	0.720174	-1.378404
N	-0.552429	-1.302078	-2.048836
H	0.032756	-1.966808	-1.550354
H	-0.264331	-1.333017	-3.021779
H	-2.273116	0.0	0.0
