14

C	0.0	0.0	0.0
C	-0.285481	-0.109211	-1.573534
Br	1.954649	0.0	0.0
H	0.484232	0.537058	-2.021851
H	-0.35547	0.940833	0.416552
C	-0.431703	-1.15534	0.76377
N	-0.392742	-2.152158	1.399643
N	-1.552428	0.325048	-2.081358
H	-2.239383	0.139649	-1.293399
H	-1.514771	1.334758	-2.166078
N	-0.110398	-1.513149	-1.922034
H	-0.37681	-1.611436	-2.891821
H	0.853344	-1.801119	-1.800206
H	-2.735781	0.0	0.0
