14

C	0.0	0.0	0.0
C	-0.482187	0.062947	-1.482146
Br	1.946933	0.0	0.0
H	0.407733	0.036325	-2.115183
H	-0.319258	0.893406	0.53025
C	-0.39543	-1.19409	0.742313
N	-0.546226	-2.164299	1.388877
N	-1.101474	1.378619	-1.657754
H	-1.98912	1.295645	-1.147787
H	-1.322148	1.48094	-2.644546
N	-1.270154	-1.119112	-1.799842
H	-2.130299	-1.001017	-1.241181
H	-1.522001	-1.060145	-2.782795
H	-2.924821	0.0	0.0
