14

C	0.0	0.0	0.0
C	-0.451445	-0.028825	-1.500449
Br	1.958379	0.0	0.0
H	0.227628	-0.745967	-1.989024
H	-0.357572	0.90764	0.48375
C	-0.394483	-1.202291	0.722418
N	-0.623987	-2.210249	1.281451
N	-0.273177	1.336737	-1.999336
H	-0.910416	1.415922	-2.782783
H	0.674814	1.471345	-2.330037
N	-1.795916	-0.443119	-1.743094
H	-2.516564	-0.098361	-1.030381
H	-1.856099	-1.453335	-1.671828
H	-3.629073	0.0	0.0
