14
Coordinates from ORCA-job run
  C   -0.43129267718744     -0.34453341253145      0.08958447402975
  C   0.91858199027289      0.27726761376347      0.44162823146266
  F   -0.20631284899453     -1.66074251756403     -0.31737139852989
  H   0.77312310769008      1.26661835359694      0.86826096840142
  H   1.46269963637714     -0.37624837205408      1.12362420281914
  N   -1.24687325752375     -0.30737486971367      1.26378186674945
  H   -0.83927065189070     -0.86988998044545      2.00267455816241
  H   -2.16507241359579     -0.67943063860402      1.05061271474176
  N   -1.00834502246366      0.30740693020278     -1.04426888264814
  H   -1.75002404595130     -0.26139357724744     -1.43184144431859
  H   -1.36524520582124      1.21872081693413     -0.79010169114862
  N   1.75017072536090      0.43720765455295     -0.77849044673966
  O   1.78830803699429      1.55828218320442     -1.27908384110760
  O   2.31955262673312     -0.56489018409455     -1.20000931187409
