14
Coordinates from ORCA-job run
  C   -0.42373203034387     -0.35383852185015      0.09307765178318
  C   0.89963648888288      0.32006324453543      0.44923785605887
  F   -0.15170140179913     -1.67670254364066     -0.26127628696750
  H   0.71744359229899      1.32041469969190      0.83406697635928
  H   1.44559555972154     -0.29185551172345      1.16730924683019
  N   -1.26352325652441     -0.30062498085366      1.24958381880206
  H   -0.85555236549697     -0.82752727295114      2.01410666121167
  H   -2.16685093590084     -0.70495676754166      1.03167307733669
  N   -0.99522395212008      0.23921081802329     -1.07481749079064
  H   -1.72467938949027     -0.35564627260436     -1.44621503878973
  H   -1.36654260586045      1.15637340986731     -0.86652481752470
  N   1.75356323106362      0.45773128815009     -0.75823405309111
  O   2.36699620446892     -0.54010409222835     -1.12442082861787
  O   1.76357086110006      1.55746250312541     -1.30556677260040
