14
Coordinates from ORCA-job run
  C   -0.49720204356974     -0.41040608354504      0.17259685973220
  C   0.90405535939677      0.18015923933134      0.41914941272940
  F   -0.30345001149164     -1.76689138980458     -0.11095155616204
  H   1.53404877968219     -0.53680474362320      0.94755916345743
  H   0.82444616060157      1.11855272847711      0.96188544512026
  N   -1.26743132565987     -0.20553441016007      1.34696337009690
  H   -2.16575628159097     -0.65734476621892      1.22481252457799
  H   -0.80568239612557     -0.59153767414743      2.16112911923443
  N   -1.23629106430384      0.11150910627754     -0.93064461501294
  H   -0.75542708421986     -0.04033215961422     -1.80667882601797
  H   -1.44723376674051      1.09011594226230     -0.79453947017410
  N   1.57780936830782      0.49014633568588     -0.86795297488044
  O   1.74591216676901     -0.44255452312146     -1.64990859854954
  O   1.89020213894464      1.66192239820075     -1.07241985415157
