14
Coordinates from ORCA-job run
  C   -0.57359426977166      0.01298781523728      0.25764037213236
  C   0.91619022743765     -0.29471354273304      0.06678436598859
  F   -0.58458337371539      1.27334821809555      0.89075595368769
  H   1.39312559829196     -0.43759877197859      1.03365491965627
  H   1.04004860484862     -1.17087739784394     -0.57013015530975
  N   -1.27681604238619     -0.00984389182550     -0.96208599699944
  H   -0.83426819962206      0.57944083062050     -1.65418199585548
  H   -2.23413989262715      0.27478867831801     -0.79968521625525
  N   -1.23716785708198     -0.87056870885542      1.16466122222195
  H   -1.31953796825673     -1.79585360954480      0.76831860451589
  H   -0.77910881195147     -0.90117067942666      2.06518712994409
  N   1.64657243612030      0.83133490080397     -0.58562153123353
  O   1.25769022617328      1.17933645508498     -1.70030895400828
  O   2.58558932254083      1.32838970404766      0.02701128151489
