14
Coordinates from ORCA-job run
  C   -0.56420337710964      0.05012221356700      0.33133949656038
  C   0.84506534458634      0.64119079854627      0.38693513486654
  F   -1.15740364816521      0.55815980025394      1.51690814657491
  H   1.24913449114087      0.44238393357959      1.37514858683013
  H   0.84971001594234      1.70904571810869      0.16344074465033
  N   -1.26882745198540      0.43800175404876     -0.82383469102204
  H   -1.19125320344528      1.42453557081311     -1.02572408500556
  H   -2.24068621686475      0.16420193080552     -0.75768704783911
  N   -0.52873062809929     -1.37639330704086      0.47887039611608
  H   -1.10106879444718     -1.67215685950502      1.25553930671987
  H   -0.80884066576612     -1.83342362630524     -0.37630384536110
  N   1.74604209340359     -0.01924681186933     -0.59342131248975
  O   2.64341415238006     -0.72866278017422     -0.14656167314275
  O   1.52764788842966      0.20224166517180     -1.78264915745791
