14
Coordinates from ORCA-job run
  C   -0.55621783972816      0.04459489173769      0.41009561058493
  C   0.97965733788647     -0.02853237592082      0.34919082857058
  F   -0.88094980062782      1.25587314741001      0.98312837426899
  H   1.31684777738985     -1.04473446516112      0.15132199718778
  H   1.39365050561250      0.35881131049335      1.27733932271948
  N   -1.25309735561028      0.03648380821502     -0.84928622288965
  H   -1.08416586430268      0.89439426860805     -1.36121892086786
  H   -0.96579336523116     -0.74630152482341     -1.42275005373983
  N   -0.98211828620907     -0.98430275293081      1.30891828598716
  H   -1.99477112458660     -0.95318373016008      1.35704185641440
  H   -0.70882459807234     -1.89793994100576      0.96942635433383
  N   1.47492512246366      0.80882014801633     -0.76828930535022
  O   1.66472337227456      0.24270242440025     -1.84591830581881
  O   1.59613411874107      2.01331479112130     -0.55899982140080
