14
Coordinates from ORCA-job run
  C   -0.65068358841646      0.05746765848931      0.34949978386372
  C   0.79954852830003      0.55993700408111      0.44425139977648
  F   -1.24010479551079      0.64123862417830      1.49169447463287
  H   1.24401795150676      0.27823997823413      1.39710018013544
  H   0.82646250860007      1.64018567530029      0.30845692678053
  N   -1.43786439198719      0.50566428870735     -0.75317176997523
  H   -0.99332277288169      0.24152094501416     -1.62279977653957
  H   -1.53792308077122      1.51184460156488     -0.72423108166829
  N   -0.66432649757205     -1.34905382365827      0.35759927811858
  H   -1.61515618102313     -1.68758842898077      0.29820270817409
  H   -0.18501842254530     -1.74357219695669      1.15511253053834
  N   1.61916282356633     -0.05802430391858     -0.62699979168132
  O   1.40034311476823      0.31935711702604     -1.77776459643581
  O   2.43286480396641     -0.91621713908124     -0.29695026571985
