14
Coordinates from ORCA-job run
  C   -0.61283317264016      0.10496430081245      0.21531403277761
  C   0.71431540298418      0.50128786866110     -0.45474183740600
  F   -0.57458579748336      0.70850048102262      1.46470052485979
  H   0.72784357652417      1.57318228861784     -0.63775254193253
  H   0.87712391683680     -0.06808020052638     -1.37110852087753
  N   -1.66749325425210      0.68670862621752     -0.54586057322006
  H   -1.51411056934061      0.63399447615981     -1.54291314033312
  H   -2.54334766786918      0.24152551509322     -0.30249784844737
  N   -0.84128168833349     -1.28513249735868      0.48199402608376
  H   -0.09160113357560     -1.67385736043004      1.04103833977536
  H   -0.89978835735757     -1.80360530114075     -0.38466717390677
  N   1.85671497268806      0.20572941167880      0.44889810460760
  O   2.48702672716902      1.15571626449437      0.90044059148332
  O   2.08101704464983     -0.98193387330188      0.68515601653594
