14
Coordinates from ORCA-job run
  C   -0.59379833736974      0.03074122373763      0.28124079340153
  C   0.93706964114846     -0.12399014443956      0.27434704266210
  F   -0.81978709909195      1.31236731949675      0.76345411241711
  H   1.31165930001160     -0.11540027389880      1.29526593865022
  H   1.23818508048870     -1.02636662222218     -0.25990275291684
  N   -1.27867820794852     -0.01819658060619     -0.97746092818308
  H   -1.17923626702805     -0.93394053592714     -1.39562496197652
  H   -0.90634198360728      0.67180936737751     -1.61851996471086
  N   -1.11553786317799     -0.91143982532399      1.21428305373867
  H   -0.65215602561343     -1.80821270617675      1.17478902012223
  H   -2.10931749865750     -1.02398942912869      1.05828177306095
  N   1.56821669825328      1.02594850957926     -0.42408654937450
  O   2.24287040194719      1.79969593813754      0.24655561673394
  O   1.35685216064523      1.12097375939460     -1.63362219362497
