14
Coordinates from ORCA-job run
  C   -0.50913465043776     -0.16476244324700      0.18724766095699
  C   1.00362605536855     -0.26432895892686      0.02532949974924
  F   -0.71135433907675      0.95453315146936      1.05292310275836
  H   1.45557814845942     -0.58836813755200      0.95907415226277
  H   1.23743051043936     -0.95223755221604     -0.78590857053034
  N   -1.17664967969480      0.01360573315256     -1.04456999620369
  H   -2.13598592593262      0.29220036691905     -0.87630349695654
  H   -0.71482641167532      0.72850948130374     -1.59202507561336
  N   -0.95882461158351     -1.35092464660557      0.83416998448089
  H   -0.87986238924128     -1.25747264158168      1.83806575401519
  H   -1.91178648263932     -1.56920784263136      0.57878248132807
  N   1.61323847254830      1.05415341496067     -0.30420784962426
  O   2.44114108736673      1.51206344988608      0.47579532380515
  O   1.24541021609898      1.59223662506906     -1.34937297042847
