14
Coordinates from ORCA-job run
  C   -0.59967541319463      0.00742977059999      0.18798013122276
  C   0.69334180069317      0.41423989403945     -0.52796998741860
  F   -0.50894388327189      0.64025474504221      1.44518787799573
  H   0.68820845875612      1.48390906958592     -0.72420665003212
  H   0.80848441046314     -0.15832177560406     -1.44856109787278
  N   -1.78514926709627      0.53185011522034     -0.41445678921677
  H   -1.75017887923692      1.53766586641299     -0.50732766837320
  H   -1.96055828182089      0.09072775116955     -1.30579127992736
  N   -0.73930947409200     -1.39134030972768      0.27158634066441
  H   0.08454656019179     -1.82199101710811      0.66882220954657
  H   -1.56340754014072     -1.61015678191200      0.81648713440197
  N   1.90520577575681      0.15898230960797      0.30509239792678
  O   2.62554654898515      1.11657181049190      0.56639810472660
  O   2.10088918400713     -1.00082144781847      0.66775927635604
