14
Coordinates from ORCA-job run
  C   -0.52210246368318     -0.31717023555799      0.10879983952740
  C   0.84816864182809      0.32172917080747      0.38457759956285
  F   -0.21577001064798     -1.57450096692328     -0.43950470226174
  H   0.72840846163796      1.37988201757279      0.61340052286105
  H   1.36786677921540     -0.19724033708179      1.18804288012549
  N   -1.21338211136890     -0.40694898390851      1.34149610774584
  H   -0.72383567954097     -1.00458289493464      1.99451301353956
  H   -2.13788785665931     -0.78261292202616      1.16710060435552
  N   -1.38015073341227      0.32364269236449     -0.83231551334576
  H   -0.89450893636980      0.47088436144807     -1.70737512196779
  H   -1.68277066285407      1.21640306833794     -0.46580705464132
  N   1.72496339732323      0.21508893111020     -0.81202138387273
  O   2.74415691120563     -0.46057948038304     -0.71583013775452
  O   1.35584426332617      0.81300557917445     -1.82307665387384
