14
Coordinates from ORCA-job run
  C   -0.52220862619355      0.00883367703601      0.39978234323232
  C   0.94237988874205     -0.28936166937301      0.03282000031893
  F   -0.46332317490761      1.11522284054251      1.23407891727121
  H   1.00290566158065     -1.03395469690751     -0.76223496369692
  H   1.48563113088312     -0.60253812522710      0.92129270234811
  N   -1.41387941067700      0.38747244751727     -0.65772519718680
  H   -1.05681595811144      1.19020643363146     -1.16173779239645
  H   -1.52804102640035     -0.37700310366092     -1.31039889756390
  N   -1.01166608904164     -1.10345171319015      1.14541501693549
  H   -2.02237958484261     -1.05871470089664      1.18535257979585
  H   -0.71988060476939     -1.99230300592789      0.76351714821535
  N   1.60712272564855      0.94072558873972     -0.46809839104901
  O   2.48643503167202      1.43733236264210      0.22756140100152
  O   1.21372003641720      1.37953366507414     -1.54962486722571
