14
Coordinates from ORCA-job run
  C   -0.65079963564411      0.05160267883722      0.35042957234544
  C   0.78905994779513      0.58511687623058      0.42926176844683
  F   -1.24878351448272      0.64825310468601      1.48139679791249
  H   0.79434524392711      1.66231939173071      0.26867477065979
  H   1.24164563702894      0.33421483451593      1.38689079059901
  N   -1.45045689689196      0.45954725401522     -0.75916265758375
  H   -1.57396531824795      1.46353356897117     -0.74888109765439
  H   -1.00041862556012      0.18988224531451     -1.62433135194011
  N   -0.63562430970814     -1.35419783793512      0.38915960004268
  H   -0.14551832990072     -1.72254987067896      1.19255039992718
  H   -1.57896304973646     -1.71427826448834      0.33869500531528
  N   1.61859467941852     -0.03959664650050     -0.63074950833221
  O   1.38714322890495      0.30620665406258     -1.78883591067052
  O   2.45274094309751     -0.87105398876098     -0.28409817906773
