14
Coordinates from ORCA-job run
  C   -0.65877909134746      0.06339045522679      0.33297363733367
  C   0.79169391043944      0.55723546510323      0.46061608903741
  F   -1.29422011638452      0.73578906965164      1.39916094381212
  H   1.22968076113094      0.18520411987846      1.38578665430797
  H   0.83404156405893      1.64422560755533      0.42190505264724
  N   -1.16261844696409      0.40277294316677     -0.93547760698008
  H   -1.08576141654839      1.38933885891309     -1.14067099740495
  H   -2.11704164959131      0.08253737507820     -1.02830477314138
  N   -0.91039918937126     -1.32346975641950      0.55741907274437
  H   -0.66145079998252     -1.57351400521066      1.50549646390712
  H   -0.36360747599738     -1.88028597496227     -0.08658832355278
  N   1.60295269275927      0.04110560454138     -0.66964269975134
  O   1.94759402730241      0.84151354630705     -1.53443577251021
  O   1.84791523049592     -1.16484330882951     -0.66823774044917
