14
Coordinates from ORCA-job run
  C   -0.56392823392797      0.18186506275245      0.44289710062829
  C   0.91169820387288      0.56548187181949      0.42406986275616
  F   -1.04241677573846      0.67071103298398      1.64906862305836
  H   1.35261806098439      0.29696616836419      1.38017009994874
  H   1.03171674425678      1.63097706152892      0.22277511049042
  N   -1.28431530743989      0.87016188269078     -0.58654826157307
  H   -2.25331003127929      0.57361954655810     -0.58491323779717
  H   -0.87304394555731      0.65126371013628     -1.48500449188211
  N   -0.68343959355603     -1.25748535424152      0.55462394255377
  H   -1.55888307835281     -1.47737456457519      1.01430458680067
  H   -0.67854095145921     -1.67812404731356     -0.36546420690960
  N   1.68200864875839     -0.16790283087984     -0.61913161934601
  O   2.86199007466491     -0.39521425675257     -0.38423083404288
  O   1.09684618477362     -0.46394528307151     -1.66361667468556
