14
Coordinates from ORCA-job run
  C   -0.65755288463760      0.22103969223409      0.42976600852256
  C   0.83656396341755      0.59107084419257      0.41757670617976
  F   -1.09852294665083      0.79736501447225      1.62189855171269
  H   0.96175817459444      1.64980058627458      0.19402261699408
  H   1.27991553228120      0.32930281809004      1.37484455445508
  N   -1.32466160117533      0.81499746559848     -0.66470252105936
  H   -2.19199664109494      0.33583389959497     -0.86235962440510
  H   -0.74591568407071      0.89637953878401     -1.48761672504476
  N   -0.95944239866513     -1.17430798405329      0.56052416544947
  H   -0.51862213000981     -1.58401181165665      1.37425187721025
  H   -0.69758827671918     -1.69089065076616     -0.26784413768988
  N   1.54203316743706     -0.18886992855976     -0.62678476470157
  O   2.19977608430623     -1.16299409756674     -0.26665399059106
  O   1.37525564098706      0.16528461336163     -1.79592271703218
