14
Coordinates from ORCA-job run
  C   -0.69349568483101      0.13335018854165      0.40912604305019
  C   0.76350858060916      0.61992222571392      0.50664840371978
  F   -1.23762807680943      0.57492601672079      1.61588578497666
  H   1.18060019320523      0.31689762045955      1.46354688918627
  H   0.81059076601965      1.69993017885001      0.37278456237405
  N   -1.35465566070606      0.75911161942494     -0.67130642213303
  H   -0.74573162960418      0.94989531802279     -1.45343203075828
  H   -2.16852258274469      0.22975589020284     -0.95136769796680
  N   -0.88396464377626     -1.28762194384284      0.41600108749458
  H   -0.54192848782318     -1.71299181596793     -0.43468897821657
  H   -0.44934339196998     -1.72607660786919      1.21798195910655
  N   1.58061374571840     -0.01473473985992     -0.55455896962658
  O   1.44140655129540      0.41882829822638     -1.70033646687938
  O   2.29855032141695     -0.96019224862297     -0.23528416432743
