14
Coordinates from ORCA-job run
  C   -0.53356538798089      0.01383877425565     -0.16717989959732
  C   0.78671040273380      0.65827758494877      0.24970556143452
  F   -0.69744682505148      0.21463262724028     -1.53891749065970
  H   0.83276668995012      1.68364177864668     -0.11741890087170
  H   0.89684553555652      0.61657908022072      1.33051609281954
  N   -0.47973258637416     -1.40443728321273      0.00231985360183
  H   -0.53309940411066     -1.65096414049339      0.98148002071664
  H   -1.23300855013558     -1.84511938742603     -0.50965732208101
  N   -1.58059690122345      0.65228325918529      0.56878886669488
  H   -1.63639401505714      1.63715749757620      0.33326088886942
  H   -2.46807823596471      0.22001677785844      0.33959761252343
  N   1.93306289861425     -0.07762753525222     -0.34232054151279
  O   2.19236904311983      0.14905862671011     -1.52023037594724
  O   2.52116733592354     -0.86833766025777      0.39105563400951
