14
Coordinates from ORCA-job run
  C   -0.59179924072987      0.01296145443351      0.25484855862943
  C   0.81538984294346      0.56541523726711      0.44748960711943
  F   -1.29300986704709      0.61712454945232      1.36315200481644
  H   0.79747641577445      1.65186115732483      0.38355438973927
  H   1.20892459843710      0.24573956065222      1.41066882716670
  N   -1.14906701174249      0.43106004306509     -0.97163782937828
  H   -2.08079337169542      0.05838866155801     -1.10207437195937
  H   -1.18252163537086      1.43936501613844     -1.03008047327118
  N   -0.61521836866932     -1.39340449392127      0.36063416820835
  H   -0.26432611511926     -1.69569418413555      1.25880244704737
  H   -1.54887589238198     -1.76002034731078      0.22685940283577
  N   1.73767366167731      0.06667338652250     -0.60472949660859
  O   2.33432661197749     -0.98117676691129     -0.36997322308388
  O   1.83082037194646      0.74070672586487     -1.62751401126144
