14
Coordinates from ORCA-job run
  C   -0.49921424341259     -0.22199279219070      0.15020722188392
  C   0.89468562334510      0.34216364340442      0.40073243689733
  F   -0.27427250509039     -1.49927105634615     -0.45044396966229
  H   0.81805499543309      1.39764456947054      0.65791465630850
  H   1.38568929992749     -0.22038697489395      1.19046192065423
  N   -1.13344635227939     -0.39741652038643      1.41314004787123
  H   -2.13792324425646     -0.32298118893630      1.33221836845285
  H   -0.88166896439892     -1.29135904575076      1.81354388298017
  N   -1.27888772878652      0.60678009041307     -0.68673691388207
  H   -2.09705326434252      0.09961278755268     -1.00254640262500
  H   -0.73878863334448      0.89799516537430     -1.49149118890519
  N   1.76361129981955      0.22734247043387     -0.80352295312765
  O   2.78910795692425     -0.43801408897966     -0.70723957692757
  O   1.39110576046180      0.81988294083504     -1.81723752991847
