14
Coordinates from ORCA-job run
  C   -0.50564980966479     -0.19520133786350      0.16620559868951
  C   0.98128097206813      0.10290911911488      0.32261846053164
  F   -1.14207939599835      1.08403294953954      0.21383535691465
  H   1.18720977929458      0.44289425313997      1.33413276541339
  H   1.55722807383382     -0.78935079085970      0.08123528607903
  N   -0.80073638113478     -0.86898775182746     -1.03944337367550
  H   -0.32722191841760     -0.42187851663045     -1.81409077590847
  H   -1.79979082464290     -0.85016960689046     -1.20633430933930
  N   -0.91643282571038     -0.97051299328578      1.28794259956324
  H   -1.70378059529015     -1.56030437269811      1.05668377812497
  H   -1.15092123590565     -0.36758293663883      2.06545086047934
  N   1.42668401228704      1.19314233353710     -0.58926100748726
  O   1.89702437133842      2.20588664996377     -0.08287054275066
  O   1.29718577794262      0.99512300139904     -1.79810469663458
