14
Coordinates from ORCA-job run
  C   -0.61704456712021     -0.01716923575753      0.11952807947131
  C   0.74107884415353      0.47945734723363     -0.38997558959827
  F   -0.67436219896628      0.44499224777677      1.45042625679287
  H   0.96481425394829      0.03101164046290     -1.35816232219494
  H   0.74236354948222      1.56554303130875     -0.44614006437881
  N   -1.73709603225675      0.58202881549601     -0.53651067116617
  H   -1.70734886702634      1.59123085739682     -0.48837679425610
  H   -1.80365933049243      0.26642448846979     -1.49355827333534
  N   -0.74381605804883     -1.41486571830573      0.00332673498707
  H   0.03955762466986     -1.89316951131292      0.42720013546108
  H   -1.61794631842669     -1.70545432257838      0.42206125803320
  N   1.85673123586738      0.11817842092304      0.53299569137097
  O   2.52456615723361      1.03425730163736      1.00083727456740
  O   2.03216170698264     -1.07946536275051      0.75634828424573
