14
Coordinates from ORCA-job run
  C   -0.58331021951761     -0.11123728212441      0.18036353087358
  C   0.94392561733279      0.02983116276462      0.28043908922968
  F   -1.06908847662090      1.18763007112988      0.40643128220910
  H   1.42755442758000     -0.87337685778730     -0.08933540534567
  H   1.25207640474994      0.24926918953320      1.30117713926419
  N   -1.13420654064375     -0.52525866997931     -1.06805516411029
  H   -0.85986896665402     -1.47915149834848     -1.26250229796688
  H   -0.80349735187126      0.07382333014588     -1.81306292132478
  N   -0.99764388993014     -1.03533015287510      1.16993035437674
  H   -0.78427433648147     -0.69928362790702      2.09980653083174
  H   -1.99660838908188     -1.17825780380954      1.08195520252888
  N   1.41918000224222      1.16867818067348     -0.54924896992084
  O   1.94158591128214      2.11719363589864      0.02686073523982
  O   1.24517580761393      1.07747032268546     -1.76475910588527
