14
Coordinates from ORCA-job run
  C   -0.51449610769481     -0.39351305186184      0.11593644259530
  C   0.90170424065227      0.15577665729621      0.36160784627574
  F   -0.31784474150618     -1.61877339725454     -0.50580488281219
  H   0.86869295555695      1.19947253222167      0.67783209786100
  H   1.41751749167126     -0.46949412223741      1.08663403495387
  N   -1.11567872345489     -0.61295675877779      1.38893039816537
  H   -0.91193403543969      0.11733012437549      2.05643266312400
  H   -2.11640419094990     -0.71403519205959      1.27542868604392
  N   -1.37361512726700      0.33749602288555     -0.76904499303104
  H   -0.93712309127107      0.46379354164758     -1.67412936804490
  H   -1.58327919068071      1.24816497185571     -0.38169898515417
  N   1.69813837129883      0.10655084183518     -0.89204127610867
  O   2.64772629977704     -0.66813966645859     -0.93425391524240
  O   1.33559584930791      0.84832749653237     -1.80582874862583
