14
Coordinates from ORCA-job run
  C   -0.65931621856687      0.07221076604737      0.32974574440965
  C   0.79778669920953      0.54387642311939      0.46692509375729
  F   -1.29015292195729      0.75095796202078      1.39503311847283
  H   0.85625549183698      1.63024251001371      0.43133273063996
  H   1.22450979087276      0.16319790725655      1.39379039938529
  N   -1.15170682073742      0.42332067572164     -0.94001504335338
  H   -1.05865038507891      1.40935843366487     -1.14103586508508
  H   -2.11075342360295      0.11864683960588     -1.03777605899732
  N   -0.93272352899299     -1.31130800917990      0.54828185021124
  H   -0.68774746883586     -1.56986585964137      1.49508916183454
  H   -0.39515496377812     -1.87385888837655     -0.09847385972568
  N   1.60687783778474      0.01884773323299     -0.66021962006528
  O   1.96598770269977      0.81577990869782     -1.52254154616039
  O   1.83578820914663     -1.19040640218319     -0.66013610532367
