14
Coordinates from ORCA-job run
  C   -0.55988833378222      0.14334189678294      0.46139083443816
  C   0.89404367055174      0.59904091524993      0.41181133385050
  F   -1.14349892205970      0.92729142497021      1.44466034424908
  H   1.44389066335300      0.22921541565148      1.27845722431691
  H   0.91687995242099      1.68480349803869      0.37203236746212
  N   -1.22652013509865      0.53152542241236     -0.76444933891767
  H   -2.21590847645515      0.64100507368459     -0.57595734603253
  H   -1.10219689040086     -0.18603182651581     -1.46684050390194
  N   -0.65589075198197     -1.21183636988490      0.91873586738109
  H   -0.13514891300485     -1.81221346346690      0.29201601271527
  H   -1.62650375992545     -1.50338671126568      0.92456080214495
  N   1.61261675959698      0.11443376123755     -0.80022795193159
  O   1.25789216842597     -0.96033311825215     -1.29008098768463
  O   2.54023296836016      0.80214408135767     -1.20710865808973
