14
Coordinates from ORCA-job run
  C   -0.62114664915267      0.09502270402384      0.52131951694171
  C   0.84585261742053      0.55544452498579      0.44755733870583
  F   -1.12977307143197      0.87986685460770      1.55653094265352
  H   0.88101708326390      1.64120431134219      0.41111227620302
  H   1.40763375814106      0.16434734460451      1.29488701266783
  N   -1.43674395095481      0.40859375745997     -0.61546631654734
  H   -1.41719173421121      1.39601205954588     -0.83683050223639
  H   -1.16597367776810     -0.12985910219536     -1.42688466249123
  N   -0.69514823261330     -1.27087325955123      0.87590067898939
  H   -1.58794362643726     -1.66369763357511      0.61184604090125
  H   0.07364354676706     -1.81629006644903      0.51467492481027
  N   1.47219397070723      0.04924083621246     -0.79683935233324
  O   1.77334262878660     -1.14606526523365     -0.82335105464965
  O   1.60023733748296      0.83505293422205     -1.73345684361497
