15

C	0.0	0.0	0.0
C	-0.569479	-0.015053	-1.402603
Cl	1.776712	0.0	0.0
H	-1.672559	0.035428	-1.234998
H	-0.177228	0.790151	-2.0085
N	-0.278674	1.490381	0.541277
O	-0.744844	2.340065	-0.214656
O	0.02189	1.679873	1.707672
N	-0.605696	-0.942817	0.795549
H	-1.660543	-0.761076	0.635851
H	-0.353403	-0.80629	1.771603
N	-0.25256	-1.285714	-2.086934
O	-0.958608	-2.264913	-1.850268
O	0.693733	-1.277606	-2.885773
H	-2.869547	0.0	0.0
