15

C	0.0	0.0	0.0
C	-0.326852	0.001026	-1.493482
Cl	1.826226	0.0	0.0
H	-1.419366	-0.07715	-1.55843
H	0.040937	0.917528	-1.939567
N	-0.674118	1.182797	0.602571
O	-0.631637	1.196895	1.869872
O	-0.617494	2.240885	-0.093816
N	-0.409917	-1.151581	0.725038
H	0.113818	-1.959239	0.423426
H	-0.262142	-0.939616	1.706146
N	0.256857	-1.120698	-2.258761
O	0.756693	-0.851197	-3.352776
O	0.161194	-2.264791	-1.81096
H	-2.225688	0.0	0.0
