13
Coordinates from ORCA-job run
  C   -0.81231894656474      0.42427021143340     -0.10504596559437
  C   0.57341678459360     -0.10404900907666     -0.53703281901434
  H   -0.69082942530085      1.41913451189863      0.34168150808104
  H   0.43658806115471     -1.08187883452967     -1.00649669358812
  H   0.95498910087059      0.57482384255162     -1.30493418886489
  C   -1.41734249099604     -0.44797645916480      0.90944678364610
  N   -1.85986802687068     -1.16044196180834      1.73067270657349
  C   -1.71008414745238      0.55673886193959     -1.25865128369140
  N   -2.39112851447363      0.66635749706212     -2.20831073612079
  C   1.53963426021628     -0.19386574003110      0.63717228992704
  H   1.67463860733650      0.78067533055804      1.11362668443919
  H   2.51806430817791     -0.53623611408189      0.29526318703917
  H   1.18424042930872     -0.89755213675096      1.39260852716788
