13
Coordinates from ORCA-job run
  C   -0.86268086409870     -0.03344268967205     -0.31812105175534
  C   0.51366549801074     -0.59637287495842      0.09955703658334
  H   -0.80500095131536      0.31108355200386     -1.35835432698176
  H   0.71553594755809     -1.46511614847002     -0.53351225200630
  H   0.44000728252794     -0.95464807729912      1.12984282300854
  C   -1.23592160949216      1.11929533060758      0.51137269873186
  N   -1.49309914991618      2.04886494949745      1.18038228187066
  C   -1.90247502539748     -1.06718925539418     -0.24717434231126
  N   -2.70414316135012     -1.92300543513687     -0.20289143779261
  C   1.61789194237239      0.44379764499223     -0.03910387804745
  H   1.44037721872828      1.30290373854366      0.61100047014925
  H   2.58164864223249      0.01066169055779      0.23469237038659
  H   1.69419423014007      0.80316757472807     -1.06869039183551
