13
Coordinates from ORCA-job run
  C   -0.86909903920316     -0.09174407609115      0.29467721410150
  C   0.45771306516126     -0.53964375655641     -0.35751435843352
  H   -0.80174257196584     -0.24531768125845      1.37909160199551
  H   0.36892233561955     -0.41148350109872     -1.43948355918742
  H   0.56841866605671     -1.61039889848602     -0.16463478575417
  C   -1.99712032983135     -0.88808197215719     -0.20275906965891
  N   -2.87044531988149     -1.55835094868270     -0.60987480983375
  C   -1.11628802037033      1.33698137435465      0.06325586207105
  N   -1.26941314486481      2.48519042785576     -0.12626166299355
  C   1.65024116931691      0.23550168862632      0.18779211082742
  H   1.56543261234337      1.30233030367290     -0.02901278404461
  H   2.57465203100379     -0.12589144933761     -0.26659797640357
  H   1.73972854661540      0.11190848915862      1.27032221731402
