13
Coordinates from ORCA-job run
  C   -0.80655779681615      0.43926389845050     -0.08587432257017
  C   0.47980149202157     -0.26339790993772     -0.57369987204699
  H   -0.58811905113008      1.50066833013179      0.08662589858937
  H   0.24388819359897     -1.31209596065424     -0.77268539098095
  H   0.75744768024357      0.19438381540682     -1.52730956834739
  C   -1.27097360817004     -0.13052363165962      1.18519558759773
  N   -1.59979933777916     -0.59855935515897      2.21017533707196
  C   -1.86852318307850      0.35726997371289     -1.09560272855239
  N   -2.68640683715057      0.28760286030563     -1.93462194884691
  C   1.61322609390625     -0.14106945140975      0.43663188279489
  H   2.51655548068351     -0.61610374991544      0.04949303409999
  H   1.35910334179008     -0.62526937795706      1.38172613803868
  H   1.84835753188054      0.90683055868518      0.64094595315216
