13
Coordinates from ORCA-job run
  C   -0.92609555520321     -0.19058796562906     -0.46626320840197
  C   0.59198973865915     -0.46459333600618     -0.56005175224040
  H   -1.43616584496656     -0.68916568257988     -1.29904708239336
  H   0.72902688350918     -1.54989900248796     -0.54772517288291
  H   0.92902378448146     -0.10349564183039     -1.53618519158362
  C   -1.20983460302196      1.24695640003609     -0.56659176585305
  N   -1.42509795320865      2.39518684032802     -0.68074074083934
  C   -1.48279963789795     -0.72713271333447      0.78245937494225
  N   -1.92067241645108     -1.18909111409178      1.76863030637800
  C   1.38188276170845      0.19372251011150      0.56307192150453
  H   2.44540061387501     -0.02728493474934      0.45493664786642
  H   1.06117404531703     -0.17387869868471      1.54031217259529
  H   1.26216818319913      1.27926333891817      0.54719449090814
