16

C	0.0	0.0	0.0
C	-0.498327	0.080161	-1.443248
Br	2.031119	0.0	0.0
H	-1.560178	-0.208472	-1.386466
H	-0.223551	0.942467	0.495936
N	-0.532298	-1.062636	0.701807
H	-0.339918	-1.078977	1.688797
H	-0.461549	-1.955583	0.243472
N	0.180244	-0.97042	-2.271237
O	0.811299	-0.631763	-3.268565
O	0.056123	-2.137079	-1.89403
C	-0.352795	1.45395	-2.050893
H	-0.671576	1.448135	-3.092833
H	-1.012484	2.124496	-1.497203
H	0.676911	1.810782	-2.001376
Br	-3.831327	0.0	0.0
