16

C	0.0	0.0	0.0
C	-0.235697	0.185234	-1.497471
Br	2.012833	0.0	0.0
H	0.320718	-0.635786	-1.959377
H	-0.331546	0.822891	0.622771
N	-0.476856	-1.221092	0.432273
H	-0.085504	-2.024458	-0.035602
H	-0.472214	-1.353823	1.433334
N	0.481582	1.417543	-1.998466
O	0.305552	2.462813	-1.377557
O	1.127856	1.304838	-3.042196
C	-1.5874	0.27775	-2.185601
H	-2.005524	1.288418	-2.158567
H	-2.332714	-0.418369	-1.820409
H	-1.307505	0.028713	-3.22592
Br	-3.95877	0.0	0.0
