16

C	0.0	0.0	0.0
C	-0.463978	0.036369	-1.479562
Br	1.972349	0.0	0.0
H	-1.529948	-0.218679	-1.450796
H	-0.296728	0.955557	0.433039
N	-0.492594	-1.047683	0.825397
H	-1.494497	-0.866101	0.930123
H	-0.395368	-1.927329	0.331121
N	0.186635	-1.064643	-2.255717
O	0.896812	-0.784582	-3.220019
O	-0.024547	-2.215396	-1.866792
C	-0.26526	1.376518	-2.148496
H	-0.607267	1.343802	-3.183386
H	-0.874588	2.105521	-1.610748
H	0.780059	1.685264	-2.137321
Br	-3.670002	0.0	0.0
