17

C	-0.38497	-0.017172	-1.488379
C	0.0	0.0	0.0
F	-0.018291	1.213669	-2.029381
H	1.096991	0.0	0.0
C	0.353993	-1.103937	-2.244321
H	1.421911	-0.97326	-2.049118
H	0.147988	-1.012499	-3.312814
H	0.041969	-2.09147	-1.898951
C	-1.85108	-0.122909	-1.662927
N	-3.014075	-0.206979	-1.80764
C	-0.472442	-1.233788	0.621101
N	-0.890584	-2.210871	1.122556
C	-0.523955	1.228625	0.739798
H	-0.130193	2.125398	0.262305
H	-1.617359	1.265118	0.742007
H	-0.167689	1.207039	1.770976
Cl	3.326908	0.0	0.0
