17

C	-0.3994	0.122375	-1.476737
C	0.0	0.0	0.0
F	-1.768844	0.422458	-1.573433
H	1.096741	0.0	0.0
C	0.39028	1.208979	-2.182537
H	0.138142	1.218931	-3.244526
H	0.136325	2.178626	-1.753333
H	1.458742	1.023897	-2.044078
C	-0.218243	-1.160465	-2.181664
N	-0.102206	-2.181031	-2.7504
C	-0.523521	-1.228379	0.590435
N	-0.966581	-2.18821	1.103368
C	-0.45389	1.208205	0.826949
H	-1.538104	1.328923	0.80287
H	0.025432	2.116419	0.460584
H	-0.131261	1.065099	1.859259
Cl	3.302727	0.0	0.0
