17

C	-0.387835	-0.01014	-1.486633
C	0.0	0.0	0.0
F	0.034138	1.198767	-2.035441
H	1.09698	0.0	0.0
C	0.295299	-1.134864	-2.238984
H	-0.06884	-2.103906	-1.893039
H	1.368195	-1.058163	-2.043834
H	0.095961	-1.034157	-3.307846
C	-1.857923	-0.046457	-1.656364
N	-3.02462	-0.072222	-1.790733
C	-0.480652	-1.229465	0.622103
N	-0.897927	-2.207663	1.122244
C	-0.511706	1.233405	0.741733
H	-0.140689	1.216237	1.76776
H	-0.12159	2.126776	0.254445
H	-1.604788	1.273346	0.758717
Cl	3.326116	0.0	0.0
