11

C	0.0	0.0	0.0
C	-0.577387	-0.321692	-1.368938
Br	1.947469	0.0	0.0
H	-1.712921	-0.274011	-1.041054
H	-0.329233	-0.75097	0.713956
H	-0.325581	0.459831	-2.089621
C	-0.4338	1.314358	0.472467
N	-0.627864	2.405083	0.864678
C	-0.154171	-1.61595	-1.853309
N	0.156697	-2.677396	-2.255539
F	-2.65305	0.0	0.0
