11

C	0.0	0.0	0.0
C	-0.409094	0.425086	-1.439476
Br	1.949387	0.0	0.0
H	0.446606	0.308817	-2.110487
H	-0.329335	-1.002223	0.244945
H	-0.662987	1.485732	-1.40968
C	-0.431314	0.940843	1.025438
N	-0.617405	1.641097	1.950762
C	-1.546201	-0.270122	-2.049546
N	-2.300573	-0.685325	-2.8486
F	-2.313613	0.0	0.0
