16

C	-0.40928	0.00857	-1.462382
C	0.0	0.0	0.0
F	-0.03788	-1.16822	-2.098391
H	1.097026	0.0	0.0
H	0.091775	0.830337	-1.983811
C	-1.872104	0.153112	-1.632516
N	-3.033654	0.278312	-1.750012
C	-0.516987	-1.237838	0.717448
H	-1.61254	-1.252677	0.762783
H	-0.172749	-2.144599	0.218291
H	-0.129174	-1.254145	1.738765
C	-0.459377	1.2912	0.67082
H	-0.043409	1.338032	1.679615
H	-0.092576	2.170028	0.131803
H	-1.550857	1.3539	0.742155
Br	3.622697	0.0	0.0
