16

C	-0.409133	0.008251	-1.462882
C	0.0	0.0	0.0
F	-0.069518	-1.182437	-2.09074
H	1.097024	0.0	0.0
H	0.114863	0.812422	-1.989142
C	-1.867185	0.192587	-1.63496
N	-3.024929	0.350634	-1.750586
C	-0.522786	-1.233003	0.721054
H	-0.176197	-2.143228	0.230108
H	-1.6187	-1.246274	0.758859
H	-0.142428	-1.242888	1.745289
C	-0.453207	1.295505	0.667537
H	-0.028495	1.347496	1.672444
H	-1.543968	1.359841	0.747052
H	-0.090076	2.171238	0.120845
Br	3.619623	0.0	0.0
