16

C	-0.409011	0.007803	-1.462905
C	0.0	0.0	0.0
F	-0.071137	-1.183844	-2.08992
H	1.097016	0.0	0.0
H	0.116325	0.810716	-1.989626
C	-1.866649	0.194303	-1.635367
N	-3.024115	0.353938	-1.751078
C	-0.523374	-1.232289	0.721679
H	-1.619333	-1.245488	0.758473
H	-0.144049	-1.24123	1.746309
H	-0.176407	-2.142983	0.231913
C	-0.452657	1.296128	0.666823
H	-1.543292	1.360551	0.747352
H	-0.026807	1.34902	1.67114
H	-0.090125	2.171353	0.118951
Br	3.619339	0.0	0.0
