18

C	0.0	0.0	0.0
C	-0.500001	-0.143675	-1.440168
F	1.416601	0.0	0.0
H	-1.60449	-0.216281	-1.309718
N	-0.495885	1.247616	0.502977
H	-1.526815	1.139414	0.415364
H	-0.303402	1.274415	1.501024
C	-0.398347	-1.201792	0.839496
H	-0.031232	-1.054805	1.860698
H	0.032318	-2.124863	0.442714
H	-1.492924	-1.246445	0.842201
C	-0.001866	-1.374873	-2.046219
N	0.396204	-2.345998	-2.575607
C	-0.143464	1.057328	-2.31813
H	-0.507067	0.904451	-3.337492
H	0.938847	1.202318	-2.344975
H	-0.603381	1.951714	-1.901821
H	-3.090044	0.0	0.0
