18

C	0.0	0.0	0.0
C	-0.552083	-0.046695	-1.423909
F	1.416332	0.0	0.0
H	-1.654797	-0.126331	-1.235758
N	-0.410023	1.241392	0.591659
H	0.264975	1.959111	0.354854
H	-0.469249	1.153384	1.597821
C	-0.504266	-1.168204	0.805492
H	-1.602052	-1.08538	0.81377
H	-0.099559	-1.117512	1.821502
H	-0.192434	-2.110011	0.350596
C	-0.064755	-1.222183	-2.136705
N	0.331743	-2.148749	-2.743421
C	-0.274574	1.222229	-2.227792
H	0.794124	1.453915	-2.248665
H	-0.620639	1.105582	-3.256746
H	-0.82621	2.043935	-1.77081
H	-3.330203	0.0	0.0
