14

C	-0.069303	-0.00224	-0.00658
C	-0.458713	-0.190076	-1.46771
F	1.343831	0.052387	0.042876
H	-1.514457	-0.455288	-1.486543
H	0.140808	-1.036663	-1.820281
C	-0.514078	1.273353	0.581004
N	-0.563868	2.35954	1.028195
C	-0.442405	-1.160798	0.822456
N	-0.516526	-2.146329	1.457337
C	-0.193747	1.061509	-2.292853
H	0.827911	1.424186	-2.15614
H	-0.341866	0.846946	-3.354203
H	-0.889859	1.852519	-2.008034
Cl	-3.227727	0.10291	0.186462
