14

C	-0.078981	0.012878	-0.014852
C	-0.460399	-0.0817	-1.486915
F	1.333974	-0.023643	0.0515
H	-1.519692	0.159553	-1.558883
H	0.129322	0.692971	-1.989402
C	-0.461958	1.305252	0.57825
N	-0.540987	2.394114	1.01192
C	-0.522218	-1.131523	0.80033
N	-0.571778	-2.11502	1.442588
C	-0.171622	-1.461302	-2.062273
H	-0.856393	-2.196874	-1.636235
H	0.854807	-1.775278	-1.857917
H	-0.317713	-1.45169	-3.145324
Cl	-3.237722	-0.058373	0.185376
