14

C	-0.058967	-0.003203	-0.005897
C	-0.446285	0.048045	-1.478638
F	1.354509	0.033754	0.053257
H	0.138061	-0.744135	-1.959648
H	-1.506754	-0.191367	-1.538633
C	-0.497614	1.165569	0.776115
N	-0.543628	2.169224	1.38668
C	-0.440104	-1.277176	0.626869
N	-0.514794	-2.351594	1.095931
C	-0.15425	1.407942	-2.097556
H	0.875355	1.721967	-1.909997
H	-0.831674	2.160324	-1.689494
H	-0.308165	1.366085	-3.178752
Cl	-3.214974	0.071104	0.210008
