14

C	-0.072726	-0.023177	-0.006762
C	-0.460252	-0.105794	-1.47829
F	1.341203	-0.025524	0.050498
H	-1.524861	-0.330096	-1.517913
H	0.109934	-0.950575	-1.880323
C	-0.472091	1.23007	0.656326
N	-0.48255	2.289683	1.16566
C	-0.493553	-1.21619	0.747017
N	-0.61132	-2.238536	1.313358
C	-0.144347	1.183532	-2.223522
H	-0.295815	1.040347	-3.296379
H	-0.811131	1.981541	-1.892012
H	0.889738	1.497657	-2.062299
Cl	-3.223691	0.19209	0.184731
