14

C	-0.072587	0.008731	-0.005938
C	-0.459093	0.160734	-1.471741
F	1.340979	-0.022863	0.050003
H	0.105677	1.027158	-1.833171
H	-1.525011	0.38177	-1.498654
C	-0.46561	1.177416	0.799333
N	-0.544184	2.175263	1.414353
C	-0.500951	-1.262929	0.601874
N	-0.540243	-2.344345	1.061399
C	-0.135269	-1.088698	-2.279302
H	-0.295336	-0.896142	-3.343113
H	-0.790895	-1.909819	-1.983442
H	0.902838	-1.399454	-2.139785
Cl	-3.227122	-0.107703	0.205051
