13

C	-0.531588	-0.02523	-1.425768
C	0.0	0.0	0.0
F	-1.929183	0.054463	-1.386221
H	1.092746	0.0	0.0
H	-0.342156	0.947678	0.434453
C	-0.066867	1.128695	-2.216821
N	0.246482	2.056263	-2.863484
C	-0.195494	-1.278732	-2.121225
N	0.021759	-2.281486	-2.689969
N	-0.486835	-1.182258	0.693721
H	-1.242395	-0.962196	1.326355
H	0.278011	-1.587185	1.216398
Br	3.508558	0.0	0.0
