13

C	-0.496758	0.001464	-1.438773
C	0.0	0.0	0.0
F	-0.037827	-1.133948	-2.083313
H	1.098954	0.0	0.0
H	-0.354604	0.917739	0.47868
C	-1.975762	-0.023919	-1.484914
N	-3.148385	0.004959	-1.524828
C	-0.033568	1.185927	-2.186591
N	0.320808	2.121618	-2.79928
N	-0.566405	-1.176931	0.659555
H	-0.643308	-0.989456	1.650474
H	0.102478	-1.932613	0.559847
Br	3.555005	0.0	0.0
