13

C	-0.527893	-0.010109	-1.425723
C	0.0	0.0	0.0
F	-1.926646	-0.058904	-1.385663
H	1.092679	0.0	0.0
H	-0.340211	-0.937261	0.459703
C	-0.162638	1.211703	-2.161426
N	0.087442	2.19216	-2.755094
C	-0.085104	-1.199164	-2.176073
N	0.254646	-2.141549	-2.787644
N	-0.482728	1.201436	0.659562
H	0.266975	1.59688	1.209923
H	-1.272603	1.011201	1.258095
Br	3.52051	0.0	0.0
