13

C	-0.49235	0.031094	-1.442143
C	0.0	0.0	0.0
F	-0.017274	1.169986	-2.06615
H	1.098027	0.0	0.0
H	-0.351429	-0.930666	0.45585
C	-0.047508	-1.150216	-2.207983
N	0.255541	-2.105831	-2.8189
C	-1.970933	0.07867	-1.489193
N	-3.143868	0.07896	-1.532117
N	-0.554795	1.167901	0.682074
H	-0.772574	0.93002	1.639922
H	0.162014	1.880785	0.709042
Br	3.544732	0.0	0.0
