13

C	-0.531448	0.002771	-1.426348
C	0.0	0.0	0.0
F	-1.928962	-0.06904	-1.386599
H	1.092746	0.0	0.0
H	-0.342209	-0.940366	0.450071
C	-0.183984	1.240587	-2.142712
N	0.07907	2.229226	-2.716725
C	-0.068464	-1.169047	-2.191688
N	0.289902	-2.106546	-2.800386
N	-0.48756	1.193078	0.673168
H	0.276891	1.61481	1.181389
H	-1.235839	0.982674	1.314847
Br	3.510577	0.0	0.0
