13

C	-0.532439	-0.001892	-1.425965
C	0.0	0.0	0.0
F	-1.929679	0.068438	-1.385355
H	1.092838	0.0	0.0
H	-0.342259	0.939773	0.450962
C	-0.071633	1.170293	-2.191303
N	0.283413	2.107713	-2.801489
C	-0.183538	-1.238791	-2.143813
N	0.079374	-2.227097	-2.718742
N	-0.487239	-1.192952	0.674127
H	-1.226963	-0.979733	1.325334
H	0.280211	-1.619775	1.173124
Br	3.510224	0.0	0.0
