16

C	0.0	0.0	0.0
C	-0.605384	0.032893	-1.384092
Cl	1.760922	0.0	0.0
H	-0.507726	1.034043	-1.802141
H	-1.676808	-0.199689	-1.286124
C	-0.539179	1.156878	0.813347
H	-1.630783	1.077991	0.819271
H	-0.140046	1.10283	1.824784
H	-0.230792	2.0964	0.350495
N	-0.407183	-1.29553	0.727603
O	-1.041431	-2.132974	0.105812
O	-0.060335	-1.374001	1.900058
N	-0.015738	-0.874605	-2.410079
O	0.625742	-1.860281	-2.061382
O	-0.248204	-0.555664	-3.576314
Cl	-3.737651	0.0	0.0
