16

C	0.0	0.0	0.0
C	-0.562547	-0.143497	-1.405274
Cl	1.773925	0.0	0.0
H	-1.654221	-0.0219	-1.329427
H	-0.291225	-1.101584	-1.833107
C	-0.512788	1.183581	0.77796
H	-1.602191	1.106414	0.823949
H	-0.231849	2.095995	0.255839
H	-0.085765	1.180108	1.778563
N	-0.369901	-1.298721	0.75238
O	-0.458908	-1.219818	1.968836
O	-0.471089	-2.32564	0.091772
N	-0.014973	0.887144	-2.325879
O	-0.260071	2.069932	-2.096669
O	0.642502	0.481865	-3.286341
Cl	-3.673776	0.0	0.0
