16

C	0.0	0.0	0.0
C	-0.38425	0.008909	-1.487153
Cl	1.773768	0.0	0.0
H	-1.449837	-0.128449	-1.666699
H	0.207724	-0.7378	-1.997819
C	-0.335669	1.168093	0.929415
H	0.18731	0.979937	1.863368
H	0.086865	2.067781	0.490576
H	-1.388738	1.328696	1.128222
N	-0.404498	-1.33724	0.589982
O	-0.352262	-1.437896	1.808426
O	-0.634809	-2.246485	-0.202343
N	0.003318	1.299907	-2.139653
O	-0.581702	2.324977	-1.797225
O	0.884582	1.248098	-3.00023
Cl	-3.298484	0.0	0.0
