16

C	0.0	0.0	0.0
C	-0.573515	0.036294	-1.407405
Cl	1.762406	0.0	0.0
H	-1.664689	0.137659	-1.301702
H	-0.29927	-0.85517	-1.958935
C	-0.524721	1.068179	0.921875
H	-0.104881	0.936633	1.916957
H	-0.247882	2.043602	0.526668
H	-1.613994	0.976595	0.945099
N	-0.368905	-1.38882	0.580082
O	-0.494842	-2.31645	-0.208477
O	-0.426704	-1.474551	1.798868
N	-0.042648	1.184089	-2.185634
O	0.651229	0.917706	-3.168811
O	-0.334063	2.322633	-1.823167
Cl	-3.680909	0.0	0.0
