16

C	0.0	0.0	0.0
C	-0.613706	-0.216808	-1.363839
Cl	1.760741	0.0	0.0
H	-1.677564	-0.466705	-1.223592
H	-0.544819	0.704375	-1.940956
C	-0.525456	1.286423	0.605766
H	-0.225309	2.12769	-0.022202
H	-1.618741	1.222515	0.651644
H	-0.104518	1.408941	1.602782
N	-0.405689	-1.141004	0.958219
O	-0.036595	-1.009168	2.120688
O	-1.065538	-2.065929	0.510111
N	0.011615	-1.26497	-2.219774
O	-0.123517	-1.102025	-3.434347
O	0.581395	-2.216893	-1.694793
Cl	-3.753103	0.0	0.0
