12
Coordinates from ORCA-job run
  C   -0.64776057407968      0.07778311035096     -0.40588779442202
  C   0.47730940638279     -0.51221071419674      0.44646726711943
  F   -0.40163969816643     -0.25806457465953     -1.72752503886354
  H   0.27358511708802     -0.26957392334011      1.49229852309355
  H   0.41496158433782     -1.60337296615705      0.33133604213141
  C   -0.68667997225865      1.54442124752966     -0.29156088698536
  N   -0.75062225787567      2.71046750782256     -0.17386412651211
  C   -1.95049049913680     -0.48893482978295     -0.01578956104704
  N   -2.96316700758964     -0.96998409476757      0.33303516640511
  N   1.72451848897789      0.08924397244344      0.02851864667594
  H   2.09874416839378     -0.37825150730216     -0.78495577156882
  H   2.41124124392657      0.05947677205950      0.76792753397344
