12
Coordinates from ORCA-job run
  C   -0.69682230077432     -0.01691144724250     -0.32593297151981
  C   0.50706011288754     -0.33876199005655      0.56178826155382
  F   -0.67646759365045     -0.88732066289411     -1.40371298825371
  H   0.36073978223444     -1.36606162205576      0.92375106322130
  H   0.48056562343309      0.33122932672610      1.42457235286209
  C   -0.62741498371130      1.36304511179005     -0.83217144732341
  N   -0.59627926540781      2.47611930790252     -1.20314719941742
  C   -1.95626853970692     -0.21782565254818      0.41158967499402
  N   -2.92997593969283     -0.39655015555980      1.04293862549045
  N   1.71050239632520     -0.11383500201606     -0.20827296534187
  H   1.92800330835103     -0.91435955234107     -0.78477551314899
  H   2.49835739971233      0.08023233829538      0.39237310688353
