13

C	-0.404393	-0.029559	-1.470304
C	0.0	0.0	0.0
Cl	-2.19545	-0.17386	-1.653407
H	1.095916	0.0	0.0
H	0.02245	-0.937788	-1.896842
C	0.042749	1.14395	-2.212746
N	0.374156	2.092273	-2.819119
N	-0.419423	-1.238764	0.636541
H	0.204193	-1.420359	1.416421
H	-1.370043	-1.16725	0.982711
C	-0.502063	1.212713	0.6609
N	-0.914331	2.145839	1.244512
Cl	3.234358	0.0	0.0
