13

C	-0.554034	-0.064483	-1.432461
C	0.0	0.0	0.0
Cl	-0.088418	1.368165	-2.392639
H	1.094129	0.0	0.0
H	-1.646612	-0.071651	-1.385765
C	-0.12345	-1.286953	-2.106013
N	0.203492	-2.271526	-2.654668
N	-0.44636	-1.210049	0.693388
H	-1.138292	-1.008302	1.401675
H	0.360221	-1.634562	1.133747
C	-0.488159	1.216514	0.654589
N	-0.947884	2.139661	1.218107
Cl	3.250947	0.0	0.0
