13

C	-0.335839	-0.044603	-1.501408
C	0.0	0.0	0.0
Cl	-2.083307	-0.389499	-1.794891
H	1.096948	0.0	0.0
H	0.218417	-0.88078	-1.932396
C	0.01178	1.184789	-2.204873
N	0.257984	2.180931	-2.776592
N	-0.387357	-1.184592	0.73962
H	0.346591	-1.876313	0.654551
H	-1.270573	-1.56118	0.421907
C	-0.563824	1.202903	0.61438
N	-1.043787	2.157681	1.101467
Cl	3.221695	0.0	0.0
