13

C	-0.430164	-0.031124	-1.463384
C	0.0	0.0	0.0
Cl	-2.211941	-0.254652	-1.616729
H	1.096313	0.0	0.0
H	0.030875	-0.914538	-1.907598
C	-0.048477	1.167955	-2.202371
N	0.233973	2.136788	-2.803314
N	-0.389984	-1.248078	0.642316
H	-1.284009	-1.162985	1.106906
H	0.320098	-1.484576	1.323692
C	-0.50839	1.199224	0.676622
N	-0.951892	2.122911	1.25196
Cl	3.23262	0.0	0.0
