13

C	-0.487254	-0.041561	-1.465665
C	0.0	0.0	0.0
Cl	0.129785	1.331692	-2.417468
H	1.095174	0.0	0.0
H	-1.579908	0.037143	-1.484632
C	-0.119097	-1.308372	-2.096377
N	0.145776	-2.330302	-2.611003
N	-0.419545	-1.164268	0.761998
H	0.267825	-1.896533	0.641964
H	-1.335057	-1.502913	0.493208
C	-0.526875	1.220143	0.62144
N	-1.00633	2.176127	1.106983
Cl	3.254476	0.0	0.0
