15
Coordinates from ORCA-job run
  C   -0.79063344703843      0.25985916016627     -0.38116432735177
  C   0.48628170680750     -0.56158368328020     -0.22610709721159
  F   -1.24916024566478      0.05763335668284     -1.64562170453960
  H   0.31689648779661     -1.57931489147774     -0.57052652748010
  C   -0.63954568719988      1.68734893338652     -0.12917500092528
  N   -0.51190837152976      2.85254609522093     -0.04137326391346
  N   -1.85656842612277     -0.34232349933993      0.54887658451097
  O   -2.61317925742738      0.42940355255391      1.11303063924384
  O   -1.87251486378969     -1.56695729871347      0.56130427616602
  N   0.96110866323187     -0.60478842167501      1.18698486626038
  O   0.42252837369180      0.16016902377819      1.98288750909508
  O   1.86841727551648     -1.39663642786088      1.40242977882151
  N   1.57667312215441      0.05152175962557     -1.06366138422160
  O   1.64570185407176     -0.36558909121960     -2.21258975427346
  O   2.25490281550227      0.91871143215261     -0.52729459418095
