11

C	-0.520794	-0.003771	-1.42773
C	0.0	0.0	0.0
Cl	-2.344348	-0.002682	-1.416157
H	1.091692	0.0	0.0
H	-0.36962	-0.890274	0.511588
H	-0.36963	0.893024	0.506759
C	-0.11222	1.191061	-2.172199
N	0.199187	2.143354	-2.784905
C	-0.113216	-1.203238	-2.165279
N	0.202152	-2.159416	-2.769907
Cl	3.399096	0.0	0.0
