11

C	-0.531907	-0.071915	-1.427943
C	0.0	0.0	0.0
Cl	0.068506	-1.565344	-2.229354
H	1.090195	0.0	0.0
H	-0.368517	-0.866474	0.55221
H	-0.370207	0.915574	0.468659
C	-2.000937	-0.128706	-1.443455
N	-3.174861	-0.169392	-1.414813
C	-0.118094	1.08495	-2.230129
N	0.149796	2.031173	-2.872286
Cl	3.421247	0.0	0.0
