11

C	-0.531689	-0.067565	-1.428286
C	0.0	0.0	0.0
Cl	0.074325	-1.551786	-2.23777
H	1.090058	0.0	0.0
H	-0.369634	0.914491	0.47153
H	-0.368027	-0.868056	0.550276
C	-2.001479	-0.130111	-1.440621
N	-3.174738	-0.175602	-1.399394
C	-0.125001	1.095637	-2.225102
N	0.157299	2.031235	-2.875383
Cl	3.421894	0.0	0.0
