11

C	-0.534262	0.001735	-1.429314
C	0.0	0.0	0.0
Cl	0.072782	1.447466	-2.30755
H	1.090192	0.0	0.0
H	-0.370386	-0.89101	0.513679
H	-0.367623	0.893266	0.50838
C	-0.126929	-1.198716	-2.169174
N	0.182772	-2.182533	-2.731623
C	-2.003823	0.064591	-1.445707
N	-3.178649	0.090032	-1.438736
Cl	3.418426	0.0	0.0
