16

C	0.0	0.0	0.0
C	-0.457499	0.156871	-1.484878
F	1.41335	0.0	0.0
H	0.474975	0.277636	-2.052318
C	-0.362317	1.214942	0.842887
H	0.061541	2.13339	0.426336
H	0.061484	1.061929	1.8408
H	-1.451236	1.251038	0.875733
N	-0.473325	-1.247259	0.495421
H	-1.508021	-1.079827	0.430927
H	-0.226418	-1.295215	1.480085
C	-1.264805	1.351153	-1.754216
N	-1.76231	2.361239	-2.086418
C	-1.125385	-1.02451	-2.042564
N	-1.558271	-1.945372	-2.626784
F	-2.68609	0.0	0.0
