16

C	0.0	0.0	0.0
C	-0.458243	0.142822	-1.486729
F	1.413439	0.0	0.0
H	0.476161	0.224224	-2.058396
C	-0.363029	1.218396	0.837074
H	0.05713	1.067844	1.836957
H	-1.451873	1.256709	0.866025
H	0.064525	2.134277	0.4189
N	-0.471045	-1.246258	0.500965
H	-0.219152	-1.293688	1.484357
H	-1.506011	-1.079431	0.440365
C	-1.226774	1.358519	-1.771152
N	-1.690877	2.38342	-2.10569
C	-1.165853	-1.023437	-2.024078
N	-1.654433	-1.928256	-2.58939
F	-2.683226	0.0	0.0
