16

C	0.0	0.0	0.0
C	-0.579771	0.093489	-1.423106
F	1.384536	0.0	0.0
H	-1.693021	0.068039	-1.164421
C	-0.420576	1.215324	0.818525
H	-1.510901	1.233997	0.810609
H	-0.046984	1.084626	1.83958
H	-0.001432	2.139139	0.411113
N	-0.479252	-1.255193	0.505209
H	-0.150953	-1.342602	1.460466
H	-1.505292	-1.127528	0.517197
C	-0.180793	-1.045103	-2.241512
N	0.121314	-1.939373	-2.940219
C	-0.234852	1.335969	-2.100406
N	0.042399	2.343496	-2.63702
F	-2.861324	0.0	0.0
