16

C	0.0	0.0	0.0
C	-0.586447	0.124276	-1.417008
F	1.386293	0.0	0.0
H	-1.701624	0.110691	-1.146735
C	-0.405309	1.213427	0.829979
H	0.021204	2.134155	0.423569
H	-0.018872	1.072596	1.844392
H	-1.495256	1.240382	0.835101
N	-0.484092	-1.254144	0.50431
H	-0.201038	-1.326235	1.477126
H	-1.50981	-1.114128	0.484395
C	-0.230644	-1.008731	-2.265028
N	0.036807	-1.889251	-2.995103
C	-0.219643	1.3729	-2.072941
N	0.077737	2.383702	-2.593392
F	-2.853584	0.0	0.0
