16
Coordinates from ORCA-job run
  C   -0.74223204200683      0.28115908485289      0.26287613586332
  C   0.65849108213472     -0.37334282240705      0.35611693769609
  H   -1.47590760532574     -0.51709080670161      0.09623995812905
  H   1.37860910275885      0.40906974276356      0.62531671953509
  C   -0.83956641165681      1.30694409340539     -0.87120985112803
  H   -1.80138627752524      1.82061975205588     -0.83285607887904
  H   -0.75514627475061      0.81978933917730     -1.84295772470138
  H   -0.04946837842359      2.05643825956306     -0.78021506662911
  C   -1.06767618473716      0.92030697505640      1.54150657294730
  N   -1.31209319138032      1.46655750483759      2.55194164194027
  C   1.08944204088529     -1.03193931366435     -0.95861363089616
  H   0.33400669503908     -1.74583883910396     -1.29604807510343
  H   2.02823109699758     -1.57040633255218     -0.82032330719646
  H   1.24092395221381     -0.28283411374027     -1.73611997676877
  C   0.66099523235120     -1.36660653655077      1.43442429428965
  N   0.65177265900866     -2.19082607473623      2.27092267287803
