16
Coordinates from ORCA-job run
  C   0.67014778006413     -0.35063988336365      0.35420221422287
  C   -0.74485533576036      0.27272822516596      0.26348415770594
  H   1.37781804135528      0.45481726839162      0.58601102380149
  H   -1.46420725880243     -0.54401501675771      0.12652397397535
  C   1.09378276479169     -1.04173151773859     -0.94603094418761
  H   2.04435910391269     -1.55871606476103     -0.80601211316495
  H   1.21997199651358     -0.31413505920154     -1.74807347136172
  H   0.34666022422158     -1.77902810081322     -1.25021738648858
  C   0.71170837477301     -1.30676226451994      1.46468606004326
  N   0.73624233648963     -2.09720511894822      2.33290761574617
  C   -0.87658598062795      1.26769631595930     -0.89444673353504
  H   -1.84898912428848      1.76107074361743     -0.85873364890274
  H   -0.10253418685470      2.03634396140379     -0.82970797092983
  H   -0.79093794858002      0.75894567597414     -1.85485982480677
  C   -1.06654259512683      0.93770305446407      1.52995766135986
  N   -1.30703819208081      1.50392778112760      2.53030938652231
