17
Coordinates from ORCA-job run
  C   0.74637058144923     -0.33702818166590      0.50049133750326
  C   -0.72829164535634      0.01588110247652      0.18434391691653
  Br  1.01285573385680     -0.39625533475254      2.45219656054000
  H   -1.32078487332109     -0.81109261666742      0.59269479140868
  C   1.60824170544854      0.71909941696902     -0.02553161447470
  N   2.25578950076047      1.57594446144281     -0.50418903024524
  C   1.15022526253547     -1.69481535143140     -0.06449491612207
  H   1.01829431065845     -1.67863649327192     -1.14551450539523
  H   2.18767459090318     -1.92020624349264      0.18501589729498
  H   0.50892181222185     -2.46754894087057      0.36502750970435
  N   -0.85522646601461     -0.02336113286388     -1.27313951057455
  H   -0.59982307989572      0.87815967575429     -1.66306229695436
  H   -1.81819726375529     -0.20300918568893     -1.52908975496178
  C   -1.19654445360878      1.33323677158321      0.79536158835861
  H   -1.16803905615195      1.32719582405590      1.88481191224014
  H   -0.57663419748350      2.16098226483143      0.43752799523530
  H   -2.22583246224672      1.52245396359201      0.48055011952609
