17
Coordinates from ORCA-job run
  C   0.61589709055961     -0.52209474706466      0.63375944809916
  C   -0.78208717210738      0.10454980154869      0.41620428791779
  Br  0.37203068431811     -2.24585351785380      1.57540093657243
  H   -1.22498386700201      0.21475712808380      1.41790082621864
  C   1.39110483739406      0.32139723039804      1.53944333963368
  N   2.00869243798567      1.04056374801811      2.23486833215410
  C   1.38213995609892     -0.78345262512876     -0.65620196014077
  H   1.62067000757235      0.16757051630827     -1.13843663131185
  H   2.31524804174887     -1.30627207184641     -0.44475648173605
  H   0.76154979270447     -1.37991762136785     -1.32284780813855
  N   -1.55754961658419     -0.75887245946980     -0.46382782689940
  H   -1.87393059313994     -1.58016242050646      0.03737824589398
  H   -2.37691339250015     -0.25918030558560     -0.78740744044409
  C   -0.67039736254471      1.48558930756264     -0.22025113844870
  H   0.00655349929717      2.13748161692545      0.33414773506124
  H   -0.33146840952855      1.40474222684766     -1.25452378975219
  H   -1.65555593427228      1.96015419313067     -0.22485007467941
