17
Coordinates from ORCA-job run
  C   0.62942427935463     -0.52855284394696      0.61228981997176
  C   -0.77316689897835      0.10165763933364      0.43715361923695
  Br  0.40727719113334     -2.26236269185681      1.54076975027563
  H   -1.18905178420986      0.20352844476039      1.45121197639724
  C   1.42644339537655      0.30497338336758      1.50809713331222
  N   2.05877045316590      1.01791627461643      2.19678793458875
  C   1.36195588692953     -0.77637267937319     -0.69965806294842
  H   1.59155166218364      0.17937517438888     -1.17694432988017
  H   2.29799172132075     -1.30530715887837     -0.51870184182971
  H   0.72179232366026     -1.36273136321872     -1.35685271263578
  N   -1.57348511532062     -0.75234509853492     -0.42951505176723
  H   -2.39849613733472     -0.24748976205606     -0.72972572754028
  H   -1.88062365830717     -1.57617811145175      0.07322091529194
  C   -0.67528456990259      1.48822702944305     -0.18979899985502
  H   -0.37000291854851      1.41505155668719     -1.23513270959198
  H   -1.65757394402484      1.96762970651265     -0.15831235329212
  H   0.02247811350204      2.13198050020697      0.34811064026621
