18

C	0.0	0.0	0.0
C	-0.519528	-0.192599	-1.446011
Br	1.97232	0.0	0.0
H	-1.616764	-0.19177	-1.229409
C	-0.436718	1.35672	0.537421
H	-0.125346	1.425485	1.581032
H	-1.529955	1.34701	0.464795
H	0.004308	2.183206	-0.020995
N	-0.510567	-1.006754	0.89027
H	-0.30824	-1.925362	0.504658
H	-1.536736	-0.838804	0.797615
C	-0.138165	-1.504826	-1.957153
N	0.16963	-2.553316	-2.392159
C	-0.166752	0.895608	-2.458677
H	-0.615346	1.842058	-2.155779
H	-0.567923	0.635941	-3.441636
H	0.915119	1.023743	-2.547945
F	-2.884542	0.0	0.0
