18

C	0.0	0.0	0.0
C	-0.525535	-0.004991	-1.446551
Br	1.968009	0.0	0.0
H	-1.621521	-0.074134	-1.251145
C	-0.429337	1.274987	0.723159
H	-0.114424	1.212044	1.769195
H	0.003036	2.180367	0.291831
H	-1.523622	1.261029	0.654658
N	-0.515902	-1.195666	0.613343
H	-1.543328	-1.02232	0.534071
H	-0.272145	-1.181326	1.59984
C	-0.081352	-1.193419	-2.169212
N	0.24229	-2.104516	-2.837756
C	-0.228477	1.252332	-2.262759
H	-0.760822	2.103919	-1.838547
H	0.841927	1.471027	-2.289405
H	-0.57799	1.116917	-3.289086
F	-2.889328	0.0	0.0
