18

C	0.0	0.0	0.0
C	-0.215426	-0.037411	-1.561684
Br	2.036464	0.0	0.0
H	0.50636	-0.764777	-1.957664
C	-0.701612	1.149392	0.660705
H	-1.784592	0.903033	0.495531
H	-0.477579	1.174204	1.732327
H	-0.430514	2.10665	0.21561
N	-0.458123	-1.217378	0.546079
H	0.136359	-2.008813	0.357655
H	-0.710074	-1.152528	1.520308
C	0.164799	1.253076	-2.145481
N	0.450124	2.276888	-2.646812
C	-1.613576	-0.458211	-2.028693
H	-2.420235	0.00487	-1.425726
H	-1.687692	-0.278968	-3.108293
H	-1.72837	-1.528127	-1.829424
F	-3.300785	0.0	0.0
