18

C	0.0	0.0	0.0
C	-0.233918	0.031494	-1.574812
Br	1.967704	0.0	0.0
H	0.542981	-0.621043	-1.982392
C	-0.488197	1.245264	0.719711
H	-0.226487	1.172455	1.780526
H	-0.063156	2.165022	0.314355
H	-1.580426	1.205143	0.603671
N	-0.586753	-1.216307	0.484246
H	-0.400828	-1.274871	1.482984
H	-1.610767	-0.987608	0.380937
C	0.053839	1.370242	-2.097813
N	0.264901	2.437132	-2.543572
C	-1.556772	-0.485302	-2.156783
H	-2.416652	-0.015452	-1.67853
H	-1.622032	-1.553909	-1.943615
H	-1.524723	-0.345491	-3.242854
F	-3.010898	0.0	0.0
