17

C	0.0	0.0	0.0
C	-0.315539	0.048292	-1.528996
F	1.402607	0.0	0.0
H	0.570741	-0.407161	-1.986761
N	-0.542888	1.142978	0.661424
H	-0.395101	1.021106	1.660069
H	-1.562731	1.01275	0.504502
C	-0.424933	-1.327157	0.602938
H	-1.51521	-1.326327	0.624747
H	-0.051237	-2.170841	0.018891
H	-0.017763	-1.383958	1.619358
C	-0.314612	1.453482	-2.00842
N	-0.325937	2.505242	-2.533256
N	-1.484398	-0.715608	-1.928813
H	-2.268981	-0.440893	-1.290294
H	-1.71397	-0.474186	-2.885997
F	-3.0133	0.0	0.0
