17

C	0.0	0.0	0.0
C	-0.673639	-0.083279	-1.351045
F	1.427478	0.0	0.0
H	-1.788306	-0.058191	-0.9637
N	-0.368701	1.261366	0.594793
H	0.373013	1.511301	1.233674
H	-0.407979	1.945373	-0.152896
C	-0.442357	-1.144667	0.884339
H	-1.536372	-1.089523	0.884654
H	-0.075974	-2.10329	0.502998
H	-0.04766	-0.990567	1.891948
C	-0.385351	-1.338587	-2.042146
N	-0.19442	-2.316707	-2.670153
N	-0.385759	1.085925	-2.183602
H	0.480625	0.956179	-2.694638
H	-1.135828	1.202689	-2.853531
F	-2.959185	0.0	0.0
