17

C	0.0	0.0	0.0
C	-0.291186	-0.145174	-1.521377
F	1.423321	0.0	0.0
H	0.347702	-0.970588	-1.867324
N	-0.472707	1.25312	0.469396
H	0.217822	1.980658	0.364929
H	-0.888596	1.218597	1.38591
C	-0.596756	-1.138989	0.777253
H	-1.689203	-0.99304	0.713067
H	-0.303556	-2.099794	0.345999
H	-0.253974	-1.097015	1.815683
C	0.241826	1.067572	-2.182849
N	0.666036	2.029853	-2.704619
N	-1.657886	-0.369113	-1.921415
H	-1.810805	-1.36847	-1.935893
H	-2.345409	-0.01903	-1.181077
F	-3.285472	0.0	0.0
