17

C	0.0	0.0	0.0
C	-0.312748	-0.184108	-1.518212
F	1.41318	0.0	0.0
H	0.575703	-0.698576	-1.903064
N	-0.541675	1.229406	0.480791
H	-1.561931	1.075118	0.347661
H	-0.388409	1.263002	1.485541
C	-0.418465	-1.220909	0.798664
H	-0.044606	-2.142515	0.347376
H	-0.007699	-1.122143	1.810324
H	-1.50848	-1.219552	0.824066
C	-0.319857	1.132252	-2.204646
N	-0.335891	2.087164	-2.890824
N	-1.479069	-1.005094	-1.797154
H	-2.26294	-0.637359	-1.20604
H	-1.71099	-0.908255	-2.779301
F	-3.007353	0.0	0.0
