17

C	0.0	0.0	0.0
C	-0.288323	-0.426244	-1.475593
F	1.398917	0.0	0.0
H	0.564564	-1.069595	-1.720626
N	-0.550036	1.289292	0.266405
H	-1.568351	1.114481	0.154124
H	-0.406537	1.494781	1.253012
C	-0.439738	-1.078869	0.971732
H	-1.531231	-1.069905	0.976656
H	-0.047758	-0.82645	1.964129
H	-0.063775	-2.061385	0.678313
C	-0.136255	0.753111	-2.364176
N	-0.009803	1.592291	-3.177764
N	-1.510083	-1.179713	-1.676962
H	-2.277214	-0.724246	-1.12774
H	-1.734004	-1.179373	-2.662022
F	-3.041312	0.0	0.0
