17

C	0.0	0.0	0.0
C	-0.292192	-0.10693	-1.51619
F	1.396905	0.0	0.0
H	0.104841	0.84524	-1.904848
N	-0.51692	1.245686	0.4701
H	-1.545063	1.049918	0.372626
H	-0.328113	1.290202	1.468767
C	-0.422657	-1.220183	0.792557
H	-0.008775	-1.135815	1.804162
H	-0.05012	-2.133324	0.32522
H	-1.513594	-1.192493	0.807113
C	-1.67361	-0.205481	-2.028934
N	-2.46454	-0.341151	-2.891694
N	0.427022	-1.273191	-2.063371
H	1.416843	-1.109583	-1.926541
H	0.245357	-1.312386	-3.058958
F	-2.792373	0.0	0.0
