17

C	0.0	0.0	0.0
C	-0.260383	0.004434	-1.53035
F	1.405069	0.0	0.0
H	0.161234	0.974458	-1.855169
N	-0.52647	1.138125	0.671699
H	-1.552889	0.920893	0.619713
H	-0.365635	1.959611	0.094521
C	-0.441781	-1.27137	0.684297
H	-0.065673	-1.24593	1.710691
H	-1.533495	-1.263846	0.664187
H	-0.036015	-2.136619	0.158573
C	-1.640783	-0.008633	-2.054937
N	-2.433681	-0.004531	-2.926526
N	0.437863	-1.124732	-2.170103
H	0.301301	-1.059073	-3.172144
H	1.424818	-1.019061	-1.970373
F	-2.805913	0.0	0.0
