17

C	0.0	0.0	0.0
C	-0.512103	-0.126503	-1.447006
F	1.380148	0.0	0.0
H	-1.5966	-0.275038	-1.288146
N	-0.523715	1.243255	0.501429
H	-1.550922	1.056949	0.434086
H	-0.287675	1.301033	1.487941
C	-0.427567	-1.209439	0.819219
H	-0.034586	-1.096639	1.835822
H	-1.519583	-1.203557	0.820498
H	-0.026781	-2.134891	0.396759
C	0.083192	-1.298131	-2.09998
N	0.527026	-2.247642	-2.630673
N	-0.204433	1.082615	-2.230566
H	-1.044117	1.325599	-2.743284
H	-0.079455	1.815772	-1.536694
F	-2.893995	0.0	0.0
