16

C	-0.559996	0.0356	-1.407809
C	0.0	0.0	0.0
Cl	0.103004	-1.358856	-2.307119
H	1.087503	0.0	0.0
H	-1.64144	-0.104287	-1.372112
C	-0.157224	1.321839	-2.109052
H	-0.655884	2.181503	-1.655683
H	0.923828	1.457819	-2.038011
H	-0.447193	1.270713	-3.159552
N	-0.506016	-1.152243	0.810801
O	-1.41071	-1.84698	0.355203
O	0.019486	-1.283222	1.912396
N	-0.499365	1.216213	0.722902
O	-1.670201	1.181014	1.107959
O	0.261859	2.1702	0.819522
Br	3.399639	0.0	0.0
