16

C	-0.414473	0.002049	-1.455184
C	0.0	0.0	0.0
Cl	-2.199604	-0.036167	-1.665905
H	1.096826	0.0	0.0
H	-0.090682	0.965575	-1.848543
C	0.238411	-1.136049	-2.2168
H	1.314125	-1.1169	-2.020552
H	0.05406	-1.011585	-3.285354
H	-0.158963	-2.101144	-1.901836
N	-0.524728	-1.192591	0.718664
O	-1.604942	-1.092814	1.296012
O	0.147126	-2.216338	0.615598
N	-0.400674	1.232335	0.746952
O	-0.721921	2.218802	0.088194
O	-0.28198	1.1891	1.965875
Br	3.351439	0.0	0.0
