16

C	-0.527788	-0.167627	-1.418252
C	0.0	0.0	0.0
Cl	0.026792	1.247679	-2.364755
H	1.097548	0.0	0.0
H	0.008598	-1.025056	-1.823947
C	-2.026747	-0.330489	-1.590051
H	-2.557226	0.568627	-1.281388
H	-2.24241	-0.521669	-2.643251
H	-2.385496	-1.175588	-1.001446
N	-0.376077	-1.164063	0.864741
O	-0.408917	-0.976952	2.074975
O	-0.529304	-2.245688	0.299687
N	-0.542433	1.222332	0.656754
O	0.22979	2.149778	0.864723
O	-1.748436	1.213241	0.91502
Br	3.358104	0.0	0.0
