16

C	-0.549484	-0.025733	-1.412089
C	0.0	0.0	0.0
Cl	0.118486	-1.456428	-2.248197
H	1.096585	0.0	0.0
H	-1.631702	-0.160668	-1.381137
C	-0.134282	1.229736	-2.160693
H	0.946604	1.364457	-2.081889
H	-0.41133	1.137576	-3.211798
H	-0.635084	2.10857	-1.7486
N	-0.511657	-1.110653	0.861902
O	-1.393686	-1.8451	0.423569
O	-0.014991	-1.169367	1.983307
N	-0.501706	1.249017	0.661826
O	-1.68641	1.242725	1.007706
O	0.270642	2.195205	0.753317
Br	3.399599	0.0	0.0
