16

C	-0.536087	0.142859	-1.419317
C	0.0	0.0	0.0
Cl	-0.458471	-1.463724	-2.216494
H	1.09076	0.0	0.0
H	-1.592189	0.411906	-1.385953
C	0.302403	1.126848	-2.215142
H	-0.039088	1.152991	-3.25138
H	0.207002	2.123502	-1.785781
H	1.351041	0.826919	-2.179846
N	-0.573635	-1.204016	0.672376
O	-1.796393	-1.183023	0.826321
O	0.182949	-2.110224	0.991085
N	-0.436302	1.14466	0.869325
O	-0.990448	2.107799	0.343108
O	-0.185217	1.02844	2.063508
Br	3.399799	0.0	0.0
