15

C	-0.446125	0.012658	-1.468982
C	0.0	0.0	0.0
Br	-2.405369	-0.071483	-1.601432
H	1.114945	0.0	0.0
C	0.000133	1.292959	-2.251769
N	-0.403593	1.472746	-3.410429
N	0.130225	-1.160367	-2.223097
O	-0.396625	-1.303681	-3.401495
O	1.456607	-1.070019	-2.266628
C	-0.382551	-1.274444	0.810968
N	0.175813	-1.459107	1.897929
N	-0.471126	1.203304	0.744008
O	-1.713089	1.041273	1.14738
O	0.349342	1.456531	1.753626
Br	2.591934	0.0	0.0
