15

C	-0.43734	-0.002531	-1.474862
C	0.0	0.0	0.0
Br	0.289038	1.620291	-2.307312
H	1.115456	0.0	0.0
C	0.115442	-1.190273	-2.322633
N	-0.091038	-1.218857	-3.548839
N	-1.935278	-0.021449	-1.641428
O	-2.309796	0.337527	-2.843456
O	-2.431339	-1.183475	-1.276747
C	-0.375442	-1.310652	0.722361
N	0.331242	-2.325818	0.539929
N	-0.461849	1.216335	0.73132
O	0.227559	1.34623	1.850103
O	-1.755716	1.157885	0.944778
Br	2.593857	0.0	0.0
