12

C	-0.422984	-0.044962	-1.45179
C	0.0	0.0	0.0
Cl	-0.094922	-1.662144	-2.174267
H	1.092407	0.0	0.0
H	0.257405	0.622682	-1.991939
H	-0.279525	0.989707	0.391523
N	-1.831928	0.237874	-1.644654
H	-2.065591	1.069047	-1.114393
H	-2.020553	0.415247	-2.624515
C	-0.62124	-1.013344	0.827938
N	-1.10146	-1.822269	1.533132
F	2.570897	0.0	0.0
