12

C	-0.179106	-0.152793	-1.517439
C	0.0	0.0	0.0
Cl	-0.197173	1.568086	-2.308212
H	1.09398	0.0	0.0
H	-1.149506	-0.529858	-1.845573
H	-0.32139	-0.937335	0.465947
N	0.89232	-0.9513	-1.943962
H	1.762572	-0.664961	-1.452737
H	0.993773	-0.98759	-2.947209
C	-0.664979	1.11249	0.634684
N	-1.238819	1.987595	1.169934
F	2.654723	0.0	0.0
