12

C	-0.378154	-0.048248	-1.452799
C	0.0	0.0	0.0
Cl	-2.162721	-0.813571	-1.636987
H	1.093659	0.0	0.0
H	0.213916	-0.804447	-1.96307
H	-0.317074	-0.917983	0.498354
N	-0.289751	1.181943	-2.103526
H	-0.813789	1.908401	-1.634618
H	-0.53692	1.131422	-3.080161
C	-0.578501	1.144148	0.669298
N	-1.038297	2.103625	1.171407
F	2.5443	0.0	0.0
