12

C	-0.486737	0.005155	-1.446063
C	0.0	0.0	0.0
Cl	-0.010347	-1.556783	-2.192971
H	1.092922	0.0	0.0
H	0.062209	0.773368	-1.993383
H	-0.356127	-0.900127	0.513585
N	-1.908229	0.191831	-1.690991
H	-2.413059	-0.485693	-1.127362
H	-2.155846	1.111356	-1.338406
C	-0.525568	1.172052	0.673768
N	-0.976757	2.136533	1.174984
F	2.565452	0.0	0.0
