12

C	-0.175808	-0.164161	-1.51729
C	0.0	0.0	0.0
Cl	-0.181101	1.550571	-2.319467
H	1.093954	0.0	0.0
H	-1.146755	-0.540915	-1.846536
H	-0.322747	-0.933828	0.471908
N	0.894393	-0.969972	-1.936298
H	0.999417	-1.008176	-2.938537
H	1.763174	-0.679991	-1.445467
C	-0.665764	1.117724	0.624103
N	-1.239307	1.998568	1.15024
F	2.653531	0.0	0.0
