16

C	-0.529777	0.027634	-1.428701
C	0.0	0.0	0.0
F	-0.118234	1.160662	-2.0695
H	1.098327	0.0	0.0
N	0.021572	-1.15428	-2.217601
O	-0.702461	-2.138645	-2.325962
O	1.151924	-1.008686	-2.657226
C	-1.997474	-0.033726	-1.474541
N	-3.170623	-0.062498	-1.485676
N	-0.461625	-1.213311	0.620117
H	0.229568	-1.553616	1.272134
H	-1.346465	-1.060461	1.086306
N	-0.538935	1.205737	0.649697
H	-0.160168	1.200174	1.591955
H	-0.116926	2.012333	0.196944
Cl	3.390955	0.0	0.0
