16

C	-0.541971	-0.05387	-1.42283
C	0.0	0.0	0.0
F	0.021876	0.901064	-2.202787
H	1.095864	0.0	0.0
N	-0.247815	-1.370315	-2.155925
O	0.486912	-2.190153	-1.619686
O	-0.749958	-1.463729	-3.272736
C	-2.006675	0.110463	-1.435187
N	-3.168215	0.279156	-1.418894
N	-0.581948	-1.119734	0.748297
H	-0.037157	-1.948827	0.537022
H	-0.421158	-0.919024	1.728931
N	-0.434809	1.276653	0.52491
H	-1.291738	1.176337	1.054576
H	0.295392	1.675765	1.097231
Cl	3.373531	0.0	0.0
