16

C	-0.594779	-0.045046	-1.399827
C	0.0	0.0	0.0
F	-1.959692	-0.156036	-1.295684
H	1.092287	0.0	0.0
N	-0.31511	1.261667	-2.133987
O	-1.255952	2.022184	-2.307225
O	0.848659	1.421981	-2.468839
C	-0.10408	-1.144492	-2.233615
N	0.213142	-2.025936	-2.941407
N	-0.400356	-1.252826	0.625395
H	0.281315	-1.499739	1.331467
H	-1.319296	-1.180679	1.045002
N	-0.419215	1.254384	0.599993
H	0.246983	1.512707	1.316346
H	-1.346297	1.186542	1.001689
Cl	3.323295	0.0	0.0
