16

C	-0.431039	0.015705	-1.474721
C	0.0	0.0	0.0
F	0.063992	-1.062586	-2.112407
H	1.101647	0.0	0.0
N	-1.955585	-0.070291	-1.556152
O	-2.44214	-1.187566	-1.66487
O	-2.563064	0.990157	-1.449557
C	-0.035368	1.238781	-2.185018
N	0.291065	2.212809	-2.752936
N	-0.452575	-1.225804	0.59873
H	-1.298244	-1.062263	1.130875
H	0.274034	-1.609084	1.187802
N	-0.560919	1.170078	0.682703
H	-0.095329	1.202257	1.583711
H	-0.277941	2.019444	0.201247
Cl	3.356056	0.0	0.0
