16

C	-0.455602	-0.016505	-1.454168
C	0.0	0.0	0.0
F	0.140435	-1.03469	-2.125061
H	1.100845	0.0	0.0
N	-1.966589	-0.304305	-1.498188
O	-2.68878	0.601918	-1.100209
O	-2.319041	-1.406806	-1.883888
C	-0.239417	1.248626	-2.158355
N	-0.0387	2.234785	-2.763346
N	-0.544652	-1.218737	0.622246
H	-0.163256	-2.021002	0.124706
H	-0.129312	-1.259744	1.549384
N	-0.443902	1.20422	0.644102
H	-1.372865	1.086346	1.031051
H	0.21629	1.465077	1.364611
Cl	3.349409	0.0	0.0
