15

C	-0.563734	0.053259	-1.414607
C	0.0	0.0	0.0
F	-1.922321	0.163323	-1.366784
H	1.093033	0.0	0.0
C	-0.02891	1.171503	-2.194138
N	0.30658	2.07866	-2.85953
N	-0.246938	-1.242878	-2.164959
O	0.891907	-1.332702	-2.60067
O	-1.143963	-2.072881	-2.224335
C	-0.494111	-1.202051	0.682
N	-0.920126	-2.117059	1.284283
N	-0.393313	1.240394	0.653163
H	-1.243592	1.138203	1.187852
H	0.36278	1.537452	1.255348
Cl	3.187267	0.0	0.0
