15

C	-0.545519	-0.081633	-1.428406
C	0.0	0.0	0.0
F	-0.118151	-1.213385	-2.037701
H	1.094225	0.0	0.0
C	-2.015341	-0.038678	-1.452554
N	-3.189217	-0.05619	-1.402283
N	-0.029501	1.105577	-2.243563
O	-0.751254	2.095056	-2.287008
O	1.06482	0.952999	-2.761539
C	-0.455064	-1.195946	0.719363
N	-0.856403	-2.111913	1.337419
N	-0.423584	1.24867	0.605708
H	-1.228094	1.139347	1.206248
H	0.35064	1.629049	1.133113
Cl	3.196573	0.0	0.0
