15

C	-0.56103	0.039729	-1.416071
C	0.0	0.0	0.0
F	-1.920983	0.144306	-1.372141
H	1.093145	0.0	0.0
C	-0.029594	1.154976	-2.20181
N	0.304913	2.059839	-2.870674
N	-0.237553	-1.261956	-2.154148
O	-1.11943	-2.1106	-2.171386
O	0.889707	-1.337821	-2.62248
C	-0.493519	-1.194564	0.694719
N	-0.920605	-2.100151	1.31027
N	-0.395718	1.247122	0.640731
H	-1.246844	1.146983	1.175925
H	0.359543	1.548372	1.243161
Cl	3.18661	0.0	0.0
