15

C	-0.542948	-0.113367	-1.426531
C	0.0	0.0	0.0
F	-0.103331	-1.251329	-2.016234
H	1.094193	0.0	0.0
C	-2.013786	-0.081831	-1.455038
N	-3.188315	-0.10347	-1.411446
N	-0.034798	1.066028	-2.257717
O	-0.777314	2.036128	-2.34712
O	1.074963	0.925392	-2.743111
C	-0.455714	-1.177646	0.747127
N	-0.859823	-2.076008	1.388157
N	-0.423876	1.262697	0.576174
H	0.350975	1.651587	1.097654
H	-1.230282	1.169221	1.177893
Cl	3.202354	0.0	0.0
