15

C	-0.553896	-0.069783	-1.4233
C	0.0	0.0	0.0
F	-0.085794	-1.168395	-2.066077
H	1.09423	0.0	0.0
C	-2.024841	-0.086194	-1.434341
N	-3.197112	-0.143512	-1.373996
N	-0.088748	1.15706	-2.206851
O	-0.890798	2.075536	-2.326519
O	1.054787	1.101182	-2.630613
C	-0.448096	-1.198085	0.721562
N	-0.851589	-2.104949	1.351183
N	-0.426192	1.247092	0.609843
H	-1.245944	1.136094	1.193243
H	0.342079	1.614432	1.158547
Cl	3.20094	0.0	0.0
