15

C	-0.537824	-0.018027	-1.43568
C	0.0	0.0	0.0
F	-0.244724	-1.193004	-2.03928
H	1.09427	0.0	0.0
C	-1.990621	0.200997	-1.4742
N	-3.16132	0.294078	-1.46613
N	0.119994	1.095173	-2.257384
O	-0.420668	2.193697	-2.206356
O	1.117273	0.778727	-2.883763
C	-0.47436	-1.218767	0.667092
N	-0.913794	-2.144832	1.242239
N	-0.413848	1.225281	0.655819
H	-1.236924	1.101497	1.229597
H	0.353654	1.568432	1.219187
Cl	3.196941	0.0	0.0
