15

C	-0.421467	-0.030273	-1.468777
C	0.0	0.0	0.0
F	0.261123	0.902618	-2.155669
H	1.101942	0.0	0.0
C	-0.287521	-1.33992	-2.117054
N	-0.220662	-2.373227	-2.669223
N	-1.909376	0.353198	-1.562615
O	-2.668933	-0.383131	-0.943561
O	-2.203734	1.341048	-2.213927
C	-0.464824	-1.171921	0.73987
N	-0.854744	-2.038067	1.432175
N	-0.444052	1.263533	0.571643
H	0.352492	1.716658	0.999103
H	-1.163309	1.126422	1.267647
Cl	3.190755	0.0	0.0
