15

C	-0.532634	-0.008833	-1.43699
C	0.0	0.0	0.0
F	-0.11738	-1.121641	-2.088619
H	1.09417	0.0	0.0
C	-2.000955	0.061763	-1.47859
N	-3.175656	0.055546	-1.46162
N	0.011561	1.20375	-2.19548
O	1.084529	1.045875	-2.753581
O	-0.675087	2.217363	-2.154898
C	-0.461646	-1.234259	0.649708
N	-0.877099	-2.178229	1.21387
N	-0.421526	1.212761	0.67053
H	-1.255608	1.08173	1.2257
H	0.336443	1.539861	1.255502
Cl	3.200695	0.0	0.0
