15

C	-0.564243	0.053408	-1.414474
C	0.0	0.0	0.0
F	-1.922914	0.162129	-1.365923
H	1.093132	0.0	0.0
C	-0.030834	1.172768	-2.193281
N	0.303696	2.080648	-2.858052
N	-0.246477	-1.241691	-2.166394
O	0.892122	-1.329869	-2.603249
O	-1.142617	-2.072625	-2.225693
C	-0.493715	-1.2022	0.682043
N	-0.918996	-2.117403	1.284543
N	-0.393331	1.240264	0.653431
H	-1.243139	1.137681	1.188882
H	0.363118	1.537626	1.255086
Cl	3.187401	0.0	0.0
