13
Coordinates from ORCA-job run
  C   0.73413669267736     -0.65841086882468      0.48660791456815
  C   -0.31278454688642     -0.01301608068865     -0.03359474514199
  H   0.64318462173699     -1.61506259172849      0.98381313987584
  N   2.10815530863687     -0.18651476277261      0.40546895458491
  O   2.96707869020654     -1.03116572540586      0.65774787099703
  O   2.30971429223743      0.98767301347452      0.10789014313565
  C   -1.72696108812230     -0.47428601173047      0.03405913291534
  H   -1.80285088225496     -1.43505256423125      0.54304717356555
  H   -2.13194461466129     -0.57313127106638     -0.97676106330204
  H   -2.32692644288479      0.26550755896001      0.56942298049787
  N   -0.16234024453957      1.26526450098824     -0.74487244970307
  O   -0.50101435928068      2.26330051843964     -0.11921206724659
  O   0.20355257313484      1.20489428458598     -1.91261698474665
