13
Coordinates from ORCA-job run
  C   0.75810897677868     -0.45569910312286      0.65303970912466
  C   -0.31367432680038      0.01967674741806      0.01400838040855
  H   0.69398840057183     -0.96054302490211      1.60786644932222
  N   2.12554736403362     -0.30991050771068      0.17711224778252
  O   2.99812619676441     -0.54565296776031      1.01249128617168
  O   2.30925936606606      0.02144765276694     -0.99091384534953
  C   -1.72115955667650     -0.11311037905817      0.48174806427507
  H   -1.76943478238726     -0.63096139539007      1.43957081811911
  H   -2.30093811980605     -0.67004628838215     -0.25831277357357
  H   -2.16992622391540      0.87816955672462      0.58894739841392
  N   -0.20227531339771      0.74026832921683     -1.26286158355736
  O   0.09156450059290      1.92799118410741     -1.19861570299232
  O   -0.49918648182422      0.09737019609249     -2.26308044814494
