13
Coordinates from ORCA-job run
  C   1.07333191220687      0.23435214894154      0.22695265521567
  C   -0.18114313627281      0.25631433805527     -0.24176244495363
  H   1.81940769774725      0.96735889326402     -0.04650349600765
  N   1.58649726905708     -0.83212794613040      1.07126664230297
  O   0.82572304377102     -1.39477026501938      1.85739393194799
  O   2.78523334561111     -1.07243459338055      0.92889135216229
  C   -1.31485477321157     -0.68127849066786     -0.02955872345561
  H   -1.83836127247320     -0.84408325741627     -0.97217406324311
  H   -2.03016143486206     -0.24786838091731      0.67264457837861
  H   -0.96309482597054     -1.62608685225359      0.37546484128332
  N   -0.49788995778058      1.44609003588761     -1.07656753743461
  O   0.42785841661594      2.08670993185960     -1.56584138896338
  O   -1.69354628443851      1.70582443777731     -1.19920634723286
