13
Coordinates from ORCA-job run
  C   0.73528374702318     -0.56401185241779      0.59148053301580
  C   -0.31405095633895     -0.00533790758202     -0.01676746485459
  H   0.63717635122808     -1.37992759224596      1.29527542354911
  N   2.11901241350310     -0.18564851822620      0.34759111148303
  O   2.34549302469575      0.87200180462651     -0.23383501565648
  O   2.96031059873051     -0.98140418695511      0.76466745814257
  C   -1.73757283792764     -0.37773004185644      0.21212561690340
  H   -2.19557402112708     -0.68371551695435     -0.73239094124995
  H   -2.28555020385671      0.48865623070923      0.59040749353769
  H   -1.81933522972661     -1.19524316671063      0.92830040471002
  N   -0.15800598223764      1.07450147287545     -1.00249434060607
  O   0.12596552256260      0.73647879848579     -2.14551258828778
  O   -0.41215242652859      2.20338047625151     -0.59884769068674
