13
Coordinates from ORCA-job run
  C   0.76062375623759     -0.65724859890271      0.44123720659358
  C   -0.31070729262918     -0.01713187595449     -0.03428230711150
  H   0.69641208024069     -1.62136695001035      0.92804686013236
  N   2.12245709234869     -0.14938230823381      0.37268172308383
  O   2.31845343418469      0.94243536837656     -0.15387174051465
  O   2.97986230930854     -0.88335497230935      0.86441161439773
  C   -1.70926303621746     -0.52497407558574      0.03115925376731
  H   -2.33221472114896      0.18631327520556      0.57976064648369
  H   -2.11256540907940     -0.62118716460446     -0.98032954410426
  H   -1.75280426156818     -1.49462904655672      0.52687504729181
  N   -0.21377321456717      1.29332661258565     -0.69332071560232
  O   -0.36326049364672      2.27154768732619      0.02897576183489
  O   -0.08322024346312      1.27565204866368     -1.91134380625248
