13
Coordinates from ORCA-job run
  C   0.70950423196267     -0.53378132309084      0.64712008101002
  C   -0.31047687064508     -0.01524684059843     -0.04150541204065
  H   0.57522020417770     -1.29123707743694      1.40795863733441
  N   2.09767881554144     -0.12751092621416      0.49021354821743
  O   2.39313301534772      0.60836255176583     -0.44733566741017
  O   2.87286780213481     -0.57611442699089      1.33463960995679
  C   -1.73695458206754     -0.41549105310210      0.10872023100932
  H   -2.11107307738550     -0.79997618212791     -0.84348524225414
  H   -2.33721259228387      0.45616212350318      0.38306050854773
  H   -1.85129317571125     -1.18233458538572      0.87472039457561
  N   -0.11775506397226      1.03382675053832     -1.05328544219470
  O   -0.08578810989665      0.65315074539713     -2.21745090589546
  O   -0.09685059720219      2.18819024374254     -0.64337034085619
