13
Coordinates from ORCA-job run
  C   1.10574920666555      0.14688999808751      0.11843867982440
  C   -0.19513465881195      0.30589526266455     -0.15833066357556
  H   1.84440047528023      0.91805227819197     -0.04990628884463
  N   1.64129546260936     -1.04056225802366      0.76407641787754
  O   2.62430039958087     -0.84157271825437      1.47775372627679
  O   1.11161507735295     -2.13057991253437      0.55262924520194
  C   -1.35257527155843     -0.60282649331185      0.05065533779740
  H   -1.09565907103442     -1.40125873940430      0.74123431290505
  H   -1.65156884304265     -1.04933263213817     -0.90002664262363
  H   -2.20307476807099     -0.03405591909309      0.42778376788108
  N   -0.52057562648188      1.59240018162243     -0.83138232959378
  O   0.28516637402107      2.51574975235605     -0.76035966267657
  O   -1.59293875650970      1.62120119983728     -1.43256590045003
