13
Coordinates from ORCA-job run
  C   0.72730976229901     -0.63464997519633      0.52588484946309
  C   -0.30697520338473     -0.02932991859064     -0.06321056620243
  H   0.63100437113573     -1.57085365813583      1.05968564985989
  N   2.07707244244882     -0.09266694504387      0.56721960458899
  O   2.36620223831324      0.82364589901220     -0.19747166205683
  O   2.82904470438331     -0.62267432229628      1.38480721238052
  C   -1.69710564044765     -0.56063919250089     -0.11452625195367
  H   -1.99407234774336     -0.70613302988311     -1.15597899262573
  H   -2.38452419175821      0.15949842161999      0.33760022107972
  H   -1.77506721683902     -1.50885151891367      0.41717687357960
  N   -0.16428788969812      1.26399558448233     -0.74816294153281
  O   -0.18242671998613      2.26433546667901     -0.04090709949834
  O   -0.12617430872289      1.21532318876708     -1.97211689708201
