13
Coordinates from ORCA-job run
  C   1.06206150955779      0.17770787104848      0.31486147963013
  C   -0.20475324674702      0.32590816646512     -0.09399327625633
  H   1.73163352222415      1.01060983224207      0.47805351608754
  N   1.63427200743768     -1.10934669419476      0.67503646329099
  O   1.25095655320118     -2.12200891080184      0.09118409119983
  O   2.49519568766628     -1.06421236600802      1.55361315030164
  C   -1.27868644609690     -0.67735898955043     -0.31658387551911
  H   -1.40902650368812     -0.85181939928441     -1.38671037458927
  H   -2.22379115154445     -0.29602000416082      0.07124974354944
  H   -1.02851385129945     -1.62165078062924      0.15894317933874
  N   -0.57735277354216      1.72802889079347     -0.42301302437252
  O   0.10883066452727      2.64156064396971      0.02573322501149
  O   -1.56082597169624      1.85960174011066     -1.14937429767256
