13
Coordinates from ORCA-job run
  C   0.71900895159550     -0.52574312287327      0.64485553014268
  C   -0.31026749002928     -0.02643529665799     -0.04387169658769
  H   0.60128712910919     -1.29377062454617      1.39781873947221
  N   2.09387672796817     -0.06971151546457      0.50671205910281
  O   2.39163354973726      0.61248515399165     -0.46997236452196
  O   2.85598090303108     -0.42598633727994      1.40518012444804
  C   -1.72531207646567     -0.47283278392073      0.08171167098470
  H   -2.07372148454580     -0.85756572719490     -0.87982388851959
  H   -2.35694130988480      0.37615913772461      0.35704736856213
  H   -1.82615613194477     -1.25109213139864      0.83805284560614
  N   -0.13668736025006      1.04724226636453     -1.03356332496524
  O   -0.07565671904186      2.19073183967472     -0.59772275999817
  O   -0.15604468927897      0.69551914158070     -2.20742430372606
