13
Coordinates from ORCA-job run
  C   0.71328832320132     -0.48691726204252      0.68114122998455
  C   -0.31450787697266     -0.00154341858713     -0.01982266989127
  H   0.58791844398338     -1.19050992555897      1.49346139315669
  N   2.10791738670048     -0.17254531780201      0.40836800372497
  O   2.92597907974080     -0.93989581085374      0.91482639431075
  O   2.36436493289753      0.81130900623453     -0.28023792062864
  C   -1.74926797749125     -0.30865255317084      0.23392182521735
  H   -2.19978945801227     -0.73715177582136     -0.66553296630872
  H   -2.28373234885577      0.61340921137265      0.47463741154822
  H   -1.86005893742273     -1.01389627170210      1.05749387035381
  N   -0.11767353946006      0.91812970773527     -1.15003464158215
  O   0.21139644735874      0.41449605924014     -2.21755819377261
  O   -0.38583447566752      2.09376835095609     -0.93066373611294
