13
Coordinates from ORCA-job run
  C   1.12075089659168      0.05723564544392     -0.00242162366538
  C   -0.18166134639621      0.24941613859154     -0.24853646455105
  H   1.90326784780217      0.63607688222420     -0.47285986250114
  N   1.60939906006728     -0.88137328989411      0.99467503253431
  O   2.65713407872935     -0.54778018794913      1.54793986174805
  O   0.98010890473229     -1.91736717269589      1.20427251843196
  C   -1.38697412144559     -0.39703121346962      0.33354217734687
  H   -1.13521262288497     -0.93260825929576      1.24471703862734
  H   -2.14715029421250      0.35820659623000      0.53606942362548
  H   -1.81037585998945     -1.10639441551195     -0.38057440446065
  N   -0.45877635115158      1.24907226469083     -1.31455631178632
  O   -1.57216251657655      1.17888219735842     -1.83191208419215
  O   0.42065232473409      2.05166481427756     -1.61335530115732
