13
Coordinates from ORCA-job run
  C   1.06525538089586      0.25002103197563      0.24739877118954
  C   -0.18910529331801      0.26893757824324     -0.22200118136206
  H   1.77083622034840      1.05205264757420      0.08135235002329
  N   1.57390094199130     -0.80442841935332      1.10922952742262
  O   2.42380510879923     -0.44214911089466      1.92252897189109
  O   1.15284983921816     -1.95162518900916      0.96762446810415
  C   -1.30413186428022     -0.69960324310839     -0.05438005973497
  H   -2.23658330228188     -0.16091343519669      0.11677430595870
  H   -1.42683174022414     -1.28762302477630     -0.96640159658536
  H   -1.10359634523557     -1.37913246162582      0.76934903730589
  N   -0.49386022136369      1.43341311679806     -1.09591908698407
  O   0.23079612148220      2.42229209023453     -1.03530248943654
  O   -1.46433484603164      1.29975841913866     -1.83925301779229
