13
Coordinates from ORCA-job run
  C   0.98981642965628      0.24148451227465      0.46971009660877
  C   -0.19412180922834      0.30980570796539     -0.15282993927849
  H   1.62839012854821      1.10042384545867      0.62186016150907
  N   1.58053696882717     -1.00989649407143      0.91555307777888
  O   0.84466698056423     -1.92122079194375      1.29160947807465
  O   2.81081736530120     -1.03863833850653      0.88995834427610
  C   -1.17351947182856     -0.75328232842119     -0.49954100292006
  H   -1.56421274012555     -0.58098611849092     -1.50284238346799
  H   -0.71326392437666     -1.73556290408516     -0.43715285762612
  H   -2.01763865310533     -0.72137685560780      0.19255291656565
  N   -0.61364454236976      1.69138211135414     -0.51033342569661
  O   -1.81680963497568      1.84503787828101     -0.71286494934495
  O   0.23998290311278      2.57182977579291     -0.56467951647891
