13
Coordinates from ORCA-job run
  C   0.74212213357516     -0.48373214772838      0.65137038043997
  C   -0.31452375769244     -0.00177866645939     -0.00771482097119
  H   0.65056148170772     -1.18358786415639      1.47142467942917
  N   2.12442333514305     -0.17374816921271      0.31873058683596
  O   2.35156927320995      0.78182322343400     -0.41835178818097
  O   2.96421180341093     -0.91560071947879      0.82796468252776
  C   -1.73704740328883     -0.30724445563138      0.30956761219428
  H   -2.26071267087810      0.61695051466332      0.56578183117130
  H   -1.81246663416504     -1.00571408050760      1.14284186628774
  H   -2.22509352500198     -0.74275399174902     -0.56658877843582
  N   -0.16839158127603      0.91460404414235     -1.14817729534098
  O   0.08069115811860      0.40379576248113     -2.23374012982286
  O   -0.39434361286299      2.09598655020286     -0.91310882613437
