15

C	-0.496125	-0.065293	-1.439436
C	0.0	0.0	0.0
Br	0.208294	1.521305	-2.455222
H	1.093589	0.0	0.0
H	-0.011012	-0.904073	-1.938958
N	-1.911169	-0.183741	-1.522694
H	-2.352994	0.623428	-1.0956
H	-2.210049	-0.234665	-2.488266
C	-0.419977	-1.265203	0.763536
H	0.030479	-1.246646	1.757546
H	-1.503552	-1.353725	0.846333
H	-0.028495	-2.139899	0.238364
C	-0.533129	1.185217	0.665698
N	-1.048362	2.097039	1.199096
Br	3.500707	0.0	0.0
