15

C	-0.449062	-0.010393	-1.455728
C	0.0	0.0	0.0
Br	-0.014749	1.675213	-2.341582
H	1.095453	0.0	0.0
H	0.176166	-0.743983	-1.978855
N	-1.880243	-0.219172	-1.585715
H	-2.099801	-1.148213	-1.241288
H	-2.136139	-0.185293	-2.56564
C	-0.402279	-1.307079	0.701581
H	0.104323	-1.357497	1.666644
H	-0.060517	-2.161893	0.11039
H	-1.480169	-1.377543	0.870157
C	-0.529419	1.141917	0.737751
N	-0.976308	2.017752	1.380093
Br	3.499289	0.0	0.0
