15

C	-0.419764	0.057074	-1.468578
C	0.0	0.0	0.0
Br	-0.11505	-1.780574	-2.330794
H	1.097409	0.0	0.0
H	-1.49926	0.150082	-1.593716
N	0.268112	1.096283	-2.109919
H	1.272222	1.031607	-1.95258
H	0.059301	1.159822	-3.097226
C	-0.50585	-1.204321	0.792186
H	-0.021512	-2.1108	0.433541
H	-1.591088	-1.317207	0.704321
H	-0.250046	-1.072507	1.845218
C	-0.480068	1.237126	0.619923
N	-0.921654	2.208456	1.112183
Br	3.523321	0.0	0.0
