16

C	-0.405829	-0.032155	-1.455087
C	0.0	0.0	0.0
Br	-0.13878	-1.737363	-2.317274
H	1.096578	0.0	0.0
H	0.163278	0.700319	-2.023122
N	-1.848498	0.365211	-1.637053
O	-2.720117	-0.346488	-1.145974
O	-2.05456	1.449368	-2.189835
N	-0.463928	-1.15096	0.752167
H	0.270526	-1.397389	1.403261
H	-1.31488	-0.95246	1.264241
C	-0.407651	1.344743	0.601404
H	0.090209	1.438172	1.569419
H	-0.075248	2.181813	-0.02015
H	-1.493242	1.432846	0.752347
F	2.622502	0.0	0.0
