16

C	-0.644684	0.136204	-1.358201
C	0.0	0.0	0.0
Br	0.056063	1.618544	-2.4111
H	1.098749	0.0	0.0
H	-1.726248	0.274548	-1.315101
N	-0.473791	-1.113928	-2.177983
O	-1.501355	-1.564979	-2.689846
O	0.645681	-1.589986	-2.285148
N	-0.440006	-1.31901	0.499956
H	-0.981539	-1.216957	1.350478
H	0.411674	-1.820458	0.729522
C	-0.450115	1.130114	0.909718
H	-0.174888	2.105268	0.502711
H	0.066174	1.019167	1.866919
H	-1.537029	1.117427	1.087317
F	2.628224	0.0	0.0
