16

C	-0.544459	-0.005145	-1.42123
C	0.0	0.0	0.0
Br	0.036467	1.499774	-2.504058
H	1.097437	0.0	0.0
H	-1.636182	-5.9e-05	-1.461504
N	-0.160884	-1.281113	-2.125786
O	0.968058	-1.409237	-2.569772
O	-1.041488	-2.148339	-2.143556
N	-0.379004	-1.241295	0.684403
H	-1.236544	-1.651917	0.329502
H	0.377487	-1.901539	0.551517
C	-0.537768	1.197857	0.763611
H	-0.203372	2.140795	0.326901
H	-1.63661	1.197683	0.816912
H	-0.147278	1.132367	1.779562
F	2.624903	0.0	0.0
