16

C	-0.536283	-0.020008	-1.426484
C	0.0	0.0	0.0
Br	0.244169	1.335306	-2.578013
H	1.09546	0.0	0.0
H	-1.617879	0.119158	-1.486317
N	-0.313659	-1.370706	-2.049094
O	0.811047	-1.694924	-2.396937
O	-1.314627	-2.094667	-2.096573
N	-0.400889	-1.209294	0.722873
H	0.321278	-1.905032	0.58024
H	-1.291036	-1.587822	0.416628
C	-0.51975	1.231445	0.722358
H	-0.205876	2.152039	0.225556
H	-1.616523	1.228586	0.811788
H	-0.094079	1.221878	1.726505
F	2.622717	0.0	0.0
