17

C	-0.406951	-0.031497	-1.469888
C	0.0	0.0	0.0
F	-0.171617	1.252178	-2.002444
H	1.09236	0.0	0.0
N	0.358176	-1.034073	-2.096862
H	0.183764	-1.062586	-3.091377
H	1.347257	-0.88962	-1.901342
C	-1.846895	-0.285691	-1.697649
N	-2.976636	-0.53132	-1.899032
C	-0.545013	-1.162492	0.80432
H	-1.636085	-1.141122	0.845773
H	-0.215899	-2.094956	0.343477
H	-0.138318	-1.119412	1.816341
N	-0.484098	1.292729	0.570942
O	0.327448	2.014944	1.137851
O	-1.68755	1.536021	0.445909
Cl	3.323639	0.0	0.0
