17

C	-0.530579	0.015296	-1.43684
C	0.0	0.0	0.0
F	-0.150643	-1.221546	-1.998149
H	1.090937	0.0	0.0
N	-1.942021	0.181738	-1.459392
H	-2.289257	0.179943	-2.410269
H	-2.387586	-0.559169	-0.933776
C	0.06714	1.035548	-2.320442
N	0.457409	1.772368	-3.145964
C	-0.468012	-1.209318	0.784217
H	-1.547122	-1.224398	0.954794
H	0.022579	-1.202324	1.756629
H	-0.155953	-2.10727	0.251901
N	-0.428358	1.271539	0.660778
O	-1.006311	1.205186	1.746503
O	-0.154957	2.316479	0.077755
Cl	3.262668	0.0	0.0
