17

C	-0.371617	0.071805	-1.490109
C	0.0	0.0	0.0
F	-1.685228	0.556665	-1.619106
H	1.092355	0.0	0.0
N	0.521274	0.919476	-2.183994
H	0.605693	0.676922	-3.16073
H	1.435762	0.94719	-1.738744
C	-0.436814	-1.296507	-2.068072
N	-0.464517	-2.352873	-2.582194
C	-0.584827	-1.175641	0.743932
H	-0.113044	-2.092307	0.38727
H	-0.368916	-1.076689	1.807524
H	-1.665874	-1.239242	0.612382
N	-0.443672	1.295496	0.610979
O	0.203855	2.299137	0.330689
O	-1.432796	1.275715	1.345943
Cl	3.290889	0.0	0.0
