17

C	-0.529441	-0.054696	-1.435613
C	0.0	0.0	0.0
F	-0.127545	-1.30777	-1.942684
H	1.099012	0.0	0.0
N	-1.94471	0.084172	-1.464973
H	-2.374795	-0.646378	-0.912529
H	-2.288971	0.03722	-2.415765
C	0.047617	0.935927	-2.366188
N	0.40831	1.640125	-3.233521
C	-0.465397	-1.173192	0.83939
H	0.040353	-1.132352	1.802844
H	-0.170201	-2.094673	0.338596
H	-1.541919	-1.170074	1.026976
N	-0.427667	1.298621	0.604255
O	-0.195895	2.315599	-0.043404
O	-0.959506	1.281934	1.714805
Cl	3.259152	0.0	0.0
