17

C	-0.531911	-0.086308	-1.431481
C	0.0	0.0	0.0
F	-0.102273	-1.340822	-1.916735
H	1.109509	0.0	0.0
N	-1.948439	0.016443	-1.46148
H	-2.29119	-0.050441	-2.411856
H	-2.356349	-0.721324	-0.902957
C	0.028974	0.894319	-2.380839
N	0.394585	1.591658	-3.252524
C	-0.469373	-1.150454	0.867781
H	-0.238492	-2.087191	0.362081
H	-1.535582	-1.09778	1.10308
H	0.080763	-1.125612	1.806719
N	-0.407537	1.310891	0.593784
O	-0.326237	2.304763	-0.12258
O	-0.752576	1.328227	1.776521
Cl	3.2479	0.0	0.0
