17

C	-0.50115	0.007522	-1.440343
C	0.0	0.0	0.0
F	0.178113	0.917329	-2.206542
H	1.094983	0.0	0.0
N	-0.256481	-1.282318	-2.044576
H	-0.393517	-1.187545	-3.045328
H	-0.910248	-1.970504	-1.694282
C	-1.9536	0.363998	-1.513109
N	-3.119434	0.48115	-1.604206
C	-0.488045	-1.199601	0.789988
H	-0.151019	-1.10149	1.819367
H	-1.580562	-1.285783	0.783589
H	-0.032162	-2.098621	0.376105
N	-0.402091	1.266485	0.696546
O	-0.724751	2.23223	0.004402
O	-0.339247	1.278618	1.923079
Cl	3.276262	0.0	0.0
