17

C	-0.396047	0.308912	-1.455219
C	0.0	0.0	0.0
F	-1.705676	0.840247	-1.451944
H	1.108887	0.0	0.0
N	0.503412	1.21201	-2.065132
H	0.704595	0.986723	-3.027349
H	1.362662	1.310826	-1.535582
C	-0.532456	-0.944583	-2.236946
N	-0.640591	-1.896317	-2.917747
C	-0.577043	-1.277255	0.55911
H	-0.134183	-2.125339	0.033838
H	-1.664378	-1.30734	0.459476
H	-0.320648	-1.361391	1.615197
N	-0.418253	1.18575	0.819377
O	0.11749	2.257085	0.552721
O	-1.25974	1.02088	1.704755
Cl	3.285387	0.0	0.0
