14
Coordinates from ORCA-job run
  C   -0.81153991490182      0.04288272491028      0.26274474271188
  C   0.59464200755723      0.46257304414319     -0.19382343967397
  H   -0.82108548467211     -0.00653472797730      1.35826714349241
  H   0.59620090913210      0.51983952745331     -1.28815993546117
  H   0.76373193846957      1.47881994359110      0.18016598304733
  C   -1.10551444975435     -1.31379866334989     -0.22562596222472
  N   -1.29755360112028     -2.39133644566598     -0.64913050492720
  N   -1.90265834099041      0.92891201395897     -0.13645027992441
  H   -1.75655873061607      1.84153538551906      0.27946503027165
  H   -1.89624419962245      1.04483733834474     -1.14389345300914
  C   1.69540303124127     -0.47308279610932      0.29424359130294
  H   2.67836856018801     -0.11139312673328     -0.01430157527904
  H   1.69381632790792     -0.54407460538355      1.38538678082396
  H   1.56599194718139     -1.47917961270131     -0.10988812115051
