14
Coordinates from ORCA-job run
  C   -0.69096658050736      0.19278499580157      0.35112777852670
  C   0.61871029538247     -0.59217362145815      0.22411262918809
  H   -0.52035522023718      1.04797065641570      1.01461712877899
  H   0.85523803277854     -1.03480588155603      1.19652026696362
  H   0.45259530354029     -1.42695370961396     -0.46697018192244
  C   -1.72534325656583     -0.65431227001323      0.98508898758374
  N   -2.56438367625311     -1.33634367260473      1.44458137479104
  N   -1.09691617636676      0.72061021541228     -0.94759606944041
  H   -1.91263536889929      1.31303286631950     -0.84665268146493
  H   -1.35428038701002     -0.04747352245913     -1.55793305710023
  C   1.76571777521488      0.28600695782595     -0.26088871930426
  H   1.95546532671546      1.09894555407743      0.44526182597253
  H   1.53221267616193      0.72831540047895     -1.22853056438283
  H   2.68494125604598     -0.29660396862613     -0.35373871818960
