14
Coordinates from ORCA-job run
  C   -0.82741355063555      0.14103328273978      0.31939285441970
  C   0.57478603538839     -0.49139475306362      0.37309127961060
  H   -0.80894901512625      1.07530990451690      0.89372085244989
  H   0.54224921681100     -1.44527974043088     -0.16558525141412
  H   0.81225456903913     -0.72581932536741      1.41607824593462
  C   -1.78441905902360     -0.75416421621062      0.98980647340864
  N   -2.50957942815978     -1.50808986804580      1.52171219291851
  N   -1.34468421357280      0.46742678781834     -1.00577854305897
  H   -1.28440100538271     -0.34260555199861     -1.61226120088896
  H   -0.79632070595807      1.21223934639257     -1.41584325472296
  C   1.64592575011086      0.41886595461556     -0.21642456644830
  H   1.66967070575406      1.38333916675378      0.29903573351888
  H   2.63461612045575     -0.03365894179765     -0.11862683613068
  H   1.47726458029957      0.60379795407767     -1.27931797959686
