14
Coordinates from ORCA-job run
  C   -0.75221098243843      0.15085861687076      0.17620722274868
  C   0.61823921368686      0.28659619371274     -0.49183237379334
  H   -0.70552007302086      0.64253134316255      1.16166409286651
  H   0.78540649619886      1.35406976199899     -0.67797245089286
  H   0.56009823306786     -0.20434016552902     -1.46690502577181
  C   -1.05024702629373     -1.26577635367678      0.43136413793107
  N   -1.27550986477784     -2.39719918791833      0.64768150149337
  N   -1.78767033581249      0.69690849822724     -0.70150054669159
  H   -2.69688870765642      0.62274227806142     -0.26030952139272
  H   -1.59925464056897      1.68107386054627     -0.85318651816980
  C   1.75489421599836     -0.28276722213132      0.34852000326800
  H   1.62854937730590     -1.35601905131273      0.50832618054319
  H   2.71453072015240     -0.12996693235819     -0.14954865067712
  H   1.80658337415849      0.20228836034640      1.32749194853842
