14
Coordinates from ORCA-job run
  C   -0.75000894338652      0.05270761925762      0.34620832449731
  C   0.64455361296037     -0.57829299512130      0.27832440924478
  H   -0.70980107600075      0.90705410710452      1.04242825008110
  H   0.57198988405369     -1.48068431308276     -0.33454347649730
  H   0.93412646797526     -0.88323590422557      1.28870776797045
  C   -1.70001221422444     -0.91003923031999      0.91921049375804
  N   -2.45357580881654     -1.67845430051487      1.38717956103356
  N   -1.20828420450255      0.42179882079022     -0.99551170077592
  H   -0.68841814930140      1.23276144921692     -1.30883094540215
  H   -2.18640473643260      0.68558338457145     -0.96731741922246
  C   1.68167979505888      0.37698050694606     -0.30232837250687
  H   1.48612477884714      0.58170259825667     -1.35660561635740
  H   2.68176956555875     -0.05619204404625     -0.23771543879217
  H   1.69726102821072      1.32631030116727      0.24179416296904
