15

C	-0.467872	-0.187681	-1.440062
C	0.0	0.0	0.0
F	-1.825084	-0.537948	-1.444259
H	1.088733	0.0	0.0
H	-0.400699	0.911237	0.437591
C	-0.387165	1.129388	-2.100285
N	-0.365897	2.176255	-2.628884
C	0.321785	-1.210291	-2.229546
H	-0.002638	-1.200928	-3.271871
H	1.384813	-0.968163	-2.156581
H	0.158992	-2.194173	-1.796388
N	-0.472689	-1.104985	0.870888
O	-0.273411	-2.261564	0.510178
O	-1.021265	-0.785558	1.925291
Cl	3.286914	0.0	0.0
