15

C	-0.457899	0.128794	-1.443317
C	0.0	0.0	0.0
F	-0.204423	-1.064944	-2.107051
H	1.088558	0.0	0.0
H	-0.341645	0.854513	0.589488
C	-1.90139	0.419802	-1.579329
N	-3.018303	0.738147	-1.754438
C	0.362812	1.216483	-2.118084
H	0.159501	2.190544	-1.669102
H	0.107284	1.251114	-3.179474
H	1.420761	0.979827	-1.985831
N	-0.542381	-1.209816	0.673404
O	-1.583493	-1.699265	0.232767
O	0.068456	-1.61449	1.656217
Cl	3.349707	0.0	0.0
