15

C	-0.458019	0.054278	-1.448631
C	0.0	0.0	0.0
F	-0.265255	-1.195683	-2.024898
H	1.088564	0.0	0.0
H	-0.336379	0.890497	0.540565
C	-1.88616	0.397277	-1.611125
N	-2.985496	0.761645	-1.805322
C	0.41151	1.057145	-2.192469
H	1.458398	0.783981	-2.04683
H	0.153757	1.043448	-3.252449
H	0.253854	2.065878	-1.800424
N	-0.552596	-1.170841	0.731449
O	0.128225	-1.642467	1.634921
O	-1.681129	-1.556505	0.416552
Cl	3.351189	0.0	0.0
