15

C	-0.5867	-0.213569	-1.389578
C	0.0	0.0	0.0
F	-0.266809	0.949711	-2.093614
H	1.093479	0.0	0.0
H	-0.356012	0.957647	0.379371
C	0.002645	-1.343397	-2.129459
N	0.37262	-2.227248	-2.807604
C	-2.101946	-0.334587	-1.39932
H	-2.529591	0.513368	-0.859309
H	-2.456092	-0.312367	-2.431581
H	-2.418816	-1.266651	-0.933008
N	-0.448824	-1.031985	0.958986
O	-0.609902	-0.684198	2.126235
O	-0.595443	-2.181882	0.539377
Cl	3.264976	0.0	0.0
