15

C	-0.462204	-0.075892	-1.449686
C	0.0	0.0	0.0
F	-0.205454	-1.345583	-1.950849
H	1.089354	0.0	0.0
H	-0.376885	0.91657	0.453817
C	-1.920468	0.141488	-1.578006
N	-3.066611	0.359406	-1.7097
C	0.318858	0.931617	-2.27444
H	1.382986	0.730652	-2.128023
H	0.050465	0.826766	-3.327182
H	0.100392	1.949969	-1.946103
N	-0.564655	-1.122395	0.785354
O	-1.624084	-0.902328	1.382659
O	0.028224	-2.195947	0.767586
Cl	3.346509	0.0	0.0
