11

C	0.0	0.0	0.0
C	-0.367211	0.002816	-1.514831
Cl	1.792202	0.0	0.0
H	0.160687	0.855678	-1.989835
H	-0.325719	0.884254	0.52003
H	-0.329213	-0.903057	0.482191
H	-1.431812	0.158483	-1.557385
N	-0.068199	-1.29657	-2.115007
H	0.920309	-1.366395	-2.314208
H	-0.584227	-1.351612	-2.986343
H	-2.529208	0.0	0.0
