17

C	-0.456743	0.001254	-1.467727
C	0.0	0.0	0.0
Br	0.054502	-1.676304	-2.254793
H	1.090347	0.0	0.0
N	-1.965495	0.152325	-1.721724
O	-2.666404	-0.668952	-1.138409
O	-2.345561	1.219365	-2.201144
N	0.187832	1.13673	-2.257776
O	0.231563	1.016244	-3.476906
O	0.694975	2.026935	-1.584814
N	-0.489782	-1.044556	0.824221
H	0.122791	-1.848972	0.789187
H	-1.444467	-1.301028	0.606497
N	-0.420498	1.286068	0.673534
O	-1.562816	1.693121	0.432759
O	0.393008	1.819421	1.409321
H	2.694555	0.0	0.0
