13
Coordinates from ORCA-job run
  C   0.42090461772098     -0.05249950575181      0.06327904151276
  H   1.66890944169560      1.56946237375731     -0.57901364853924
  F   -1.02511762377838     -0.18804868679797     -0.80849018344172
  H   1.93076868741727     -0.03111103891369      1.01161546488182
  C   0.69793713260361      1.42860900997578     -0.10010028281008
  H   0.96690648381482     -0.74595172323616     -0.55073238045695
  H   -0.03040232946299     -0.38692093241902      0.97992903901026
  N   0.51749670593340      2.13247527636777      1.14779494528738
  H   0.83800835346603      3.08935594326065      1.04852546034471
  H   1.15103550569294      1.64128035681087      1.77232385852770
  N   -0.24197329325427      2.06072392569697     -1.13379705284079
  O   -1.23143433317363      2.68492616270826     -0.77324526489693
  O   0.11871065132464      1.93731883854106     -2.30349899657891
