11
Coordinates from ORCA-job run
  C   0.51054055677512      0.00825831731972      0.00197948661774
  H   1.72056728902554      1.72684352365475     -0.02519315100948
  Cl  -1.53276775991357     -0.21873844441105      0.09297468860245
  H   2.70554572560410     -0.36399055437711     -0.00019026286608
  C   0.65650180957429      1.51150918824916     -0.02127739765380
  H   0.73782756325212     -0.51397528766655     -0.91287164859427
  H   0.79993263412692     -0.50516245907620      0.90150111829991
  H   0.21177723677266      1.90635247046496      0.90593444565586
  N   0.06191056944518      2.08721854303654     -1.23328402921339
  H   0.18336822262598      3.09271930128853     -1.20395581048541
  H   -0.93328384728836      1.89900540151727     -1.21237743935354
