13
Coordinates from ORCA-job run
  C   0.59566627402236      0.03535581641722     -0.03073422678244
  H   1.66387104584334      1.79856013669556     -0.40524467120087
  Cl  -1.68042127313063     -0.44050609607444     -0.57241199588627
  Cl  2.75741653683160     -0.20332951459491      0.80229692617234
  C   0.64009218307066      1.54938564084047     -0.10792215747786
  H   0.85742835906438     -0.54364683631608     -0.89726481108271
  H   0.29208100695941     -0.45233057613160      0.87270008276065
  N   0.33039477793681      2.06704198538982      1.23306398002647
  H   0.49619559441152      3.06883094086539      1.22430911100747
  H   1.01687235229639      1.66835648256022      1.86849479883812
  N   -0.20485469183211      2.09666743213920     -1.14970007809916
  H   -0.13002599068862      3.10764015326956     -1.12237959946561
  H   -1.16285617478510      1.82219443493957     -0.96578735881011
