14
Coordinates from ORCA-job run
  C   0.57626882274764     -0.00292155021523      0.01925653790571
  H   1.70134466631862      1.66121912703159     -0.51784206489523
  Cl  -1.52797032733597     -0.64110987092373     -0.96545026733790
  Cl  2.62181674965134     -0.23301737755318      1.13794095394737
  C   0.68334839264997      1.49644162065585     -0.13815997503291
  H   0.97345824682644     -0.65494443737254     -0.73461894578086
  H   0.11631014953691     -0.41701158639066      0.89540389135623
  N   0.48533831650522      2.11522511256233      1.17512631204578
  H   0.64069640534891      3.11339875345102      1.08071575508271
  H   1.21430855419330      1.75355100718935      1.78234856337700
  C   -0.27730635112675      2.13584632970529     -1.13269488231115
  H   -0.23349050382917      1.64137260511298     -2.10210971972179
  H   -1.29797635844890      2.06729645904063     -0.76504464395789
  H   0.00309323696245      3.19008380770631     -1.25648151467708
