12
Coordinates from ORCA-job run
  C   0.61689336758949     -0.04809373038420      0.01651859292377
  H   1.69634328082366      1.79382651259946     -0.15084722357928
  Cl  -1.73451171310879     -0.04475105399110      0.02904433888072
  Br  2.96977555004594     -0.46076634351409      0.09431211731048
  C   0.66368039228740      1.46055865667278     -0.01183404767426
  H   0.55506002322459     -0.57159617442139     -0.91802336382552
  H   0.51203435439610     -0.55748562695092      0.95370955540687
  C   0.14590255258358      2.08139233890783      1.20156538016236
  N   -0.14920133023114      2.60165634610307      2.21169704895096
  N   -0.02861494104888      2.02349166801861     -1.23990230285244
  O   -0.63666340665901      3.07855184460393     -1.11561546319410
  O   0.18508187009706      1.42993556235602     -2.28728463250956
