13
Coordinates from ORCA-job run
  C   0.51366165809609     -0.05895594775849      0.03514358008746
  H   1.68945160877978      1.62134709014884      0.15671853648112
  Cl  -1.58324076235600     -0.33056545144797      0.43936524772386
  F   2.40489380032672     -0.09124022160912     -0.53903119406627
  C   0.61457297172261      1.45188416774451      0.06372867972392
  H   0.43729362166142     -0.55412179735286     -0.91080652412410
  H   0.84589952363510     -0.61611736595004      0.89148346668292
  C   -0.02914930810003      2.09320045717992      1.21323609849148
  N   -0.45303340743738      2.70772517580311      2.12034127630676
  C   0.14046590425005      2.05894506052068     -1.25355102127173
  H   0.77053821980575      1.64277707429911     -2.04182492968305
  H   -0.90373475238853      1.80067031632399     -1.43683347217625
  H   0.24565092200441      3.14698144209830     -1.25082974417613
