12
Coordinates from ORCA-job run
  C   0.44630306558323     -0.06955164804223      0.02380265207128
  H   1.71186294525853      1.59134727878480     -0.13882172208022
  Cl  -1.58984564684774     -0.18967913662120      0.01452786783070
  H   2.49884912287567     -0.21957948044538      0.08795994460168
  C   0.63618378386934      1.43186990809756     -0.01458433657699
  H   0.72454307090764     -0.58471194906008     -0.87945293839555
  H   0.67469247822952     -0.54595746674125      0.95938787531134
  C   0.17242961781469      2.11211605811211      1.18741109480018
  N   -0.10641098873293      2.65500804932966      2.19052692520707
  N   -0.00024219961502      2.03938372995212     -1.23514320191838
  O   -0.55362140759361      3.13145048035107     -1.12546143571290
  O   0.18103615825065      1.43502417628281     -2.28681272513820
