13
Coordinates from ORCA-job run
  C   0.63364940386124      0.00083203949290     -0.03112449473893
  H   1.73424948507593      1.87125537551008      0.11694551065713
  F   -1.34831553893798      0.26867289449012     -0.10300010347074
  Br  2.84568031268455     -0.59074753544112      0.01276146575977
  C   0.71625080328046      1.50809915650407     -0.03510280360436
  H   0.45767351571107     -0.48329047024816     -0.97142674980227
  H   0.40387754425714     -0.50622409556550      0.88410621661123
  N   0.00702015968862      2.01179857447067      1.24592763784148
  O   -0.65933731490881      3.03966508896774      1.15216678112050
  O   0.24532906907665      1.43016625405235      2.29789628263111
  N   0.15059290051943      2.04095342350000     -1.22130979802997
  H   0.08548558629575      3.04722011228887     -1.14559172309951
  H   -0.78598592660404      1.63413918197798     -1.22662822187543
