12
Coordinates from ORCA-job run
  C   0.60755504213279     -0.03368077956600      0.02722718255871
  H   1.60718055615126      1.73405831123691     -0.51288390122210
  Cl  -1.56769876121678     -0.56428387220754     -0.80536613290000
  Cl  2.65942959134684     -0.13366968594495      0.95737300528999
  C   0.61989594447500      1.47896900850171     -0.10376299445355
  H   0.93783061449941     -0.64345992758978     -0.79102166504779
  H   0.18912226268759     -0.46869828093232      0.91294637318532
  N   0.39429503245783      2.07236602618727      1.21682743494405
  H   0.45994416012033      3.08090722192986      1.13513616381677
  H   1.16592769669806      1.75850773366858      1.79714770128499
  C   -0.34189380019853      2.06495195046796     -1.04947567947478
  N   -0.94947833915379      2.74218229424831     -1.79259748798162
