15
Coordinates from ORCA-job run
  C   0.54554578015585     -0.03603373679991     -0.00610204961734
  H   1.66364006454376      1.62460599194509     -0.22161960852650
  Br  -1.62668416550064     -0.61760132098623     -0.38206420445969
  F   2.54526628848540      0.01543982437093      0.63705219552746
  C   0.58982970960261      1.47045936528909     -0.09440845061410
  H   0.95028525542497     -0.60218600216275     -0.82829428755829
  H   0.57584115889969     -0.50889931880107      0.95472335958816
  C   0.19149912160107      2.08978644408806      1.23706145418098
  H   -0.84163386097169      1.83302403924839      1.49273302731682
  H   0.86643426390818      1.70326167869250      2.00315696234329
  H   0.27992543446269      3.18190255232543      1.20997731966205
  C   -0.15138743930304      2.09149718032078     -1.27344118680954
  H   0.07478245019744      1.56488872188131     -2.20547226885068
  H   -1.23288465748448      2.06309630434397     -1.13333631139234
  H   0.16131059597819      3.13607827624444     -1.38863595079027
