14
Coordinates from ORCA-job run
  C   0.36197924189299     -0.05666871023804      0.03726128660266
  H   1.68423649629317      1.55139848504187      0.17326325324806
  Br  -1.76799643878551     -0.27462174113068      0.32221841339806
  H   2.49458859123674     -0.28761068471337     -0.47270054471242
  C   0.61023302591521      1.44002435764663      0.02227991432858
  H   0.49437965359617     -0.54683958658759     -0.91098690899792
  H   0.77567138993613     -0.58958429720994      0.88026699546387
  N   0.00061141346065      2.08457208184697      1.23379744259019
  O   -0.66591466702124      3.11209079454865      1.09629301016527
  O   0.27899940684939      1.58032945839675      2.32073738163540
  C   0.17700484560072      2.11153665845979     -1.25847466483218
  H   0.77125058835897      1.67146934242593     -2.06278986842256
  H   -0.88270993284668      1.94197819103789     -1.45137754538265
  H   0.36121638551329      3.18567565047515     -1.22519816508434
