12
Coordinates from ORCA-job run
  C   0.46970974959671     -0.03706446893027     -0.02597312475604
  H   1.69551531242780      1.63110323785428     -0.01054387891723
  Br  -1.66093744132227     -0.36053416694163     -0.01627653807805
  H   2.70140915584846     -0.22619610461320      0.08381715661754
  C   0.61569936650655      1.47655663650969     -0.01023032103465
  H   0.79550678814018     -0.49314908453632     -0.94943753081078
  H   0.78804408847285     -0.55558531132609      0.86369656115328
  C   0.08534201895016      2.06582748204704      1.23768979767021
  N   -0.30009511994100      2.63486295045389      2.19178710289122
  N   0.04910710308698      2.08455223363486     -1.21177427366967
  H   0.19718876066120      3.08622957951437     -1.17415247737622
  H   -0.95059978242760      1.91471701633335     -1.22043247368962
