13
Coordinates from ORCA-job run
  C   0.57243461422505     -0.05128426832847     -0.01176236243807
  H   1.64148559959925      1.67725246635002     -0.22766365261236
  Br  -1.63443978261040     -0.56137364146615     -0.31699960457693
  F   2.52729764009474      0.08040433521780      0.48287119204328
  C   0.57926015189883      1.46173124881536     -0.08369762819772
  H   0.92523354789322     -0.60874754852754     -0.86038758168420
  H   0.60362560022822     -0.51913326382970      0.95111734767806
  C   0.13830165624098      2.08348608727196      1.23816665095316
  H   -0.88024532741125      1.77842782117510      1.48544093721406
  H   0.83078997909325      1.72703112035958      2.00287033055221
  H   0.18421743226040      3.17489013369325      1.19722061991905
  C   -0.14746934451014      2.03366050399145     -1.21952405262997
  N   -0.64585176700215      2.59569500527737     -2.12316219622057
