12
Coordinates from ORCA-job run
  C   0.41230056602728     -0.06398572567732      0.00342466204422
  H   1.59039175949913      1.59580056046656     -0.56874912023295
  Br  -1.44632158098633     -0.68539688618274     -0.93422432445841
  H   2.29662315874696      0.15923968657570      1.04176977129145
  C   0.59095668617622      1.45195814223609     -0.14248693991267
  H   1.11686706499746     -0.67309192858497     -0.53874637833733
  H   0.20090694277864     -0.39306620910222      1.00632234755401
  N   0.45313261488844      2.06975261517170      1.18231043518583
  H   0.65615419309789      3.06232958814135      1.09528935678336
  H   1.22789002125035      1.62789517478543      1.68860439797781
  C   -0.34646656926938      2.12725688138540     -1.05811779437542
  N   -0.97032485720666      2.80945810078503     -1.78384641351989
