13
Coordinates from ORCA-job run
  C   0.48709758531202     -0.03373840260731     -0.03051077816723
  H   1.73694207521446      1.58270914657066      0.09781838228402
  Br  -1.75466569803019     -0.23919232960032     -0.09700688700654
  F   2.54893854591555     -0.14748111975851      0.00309047877675
  C   0.65986611111805      1.45722491981490     -0.03276054981822
  H   0.68628443266991     -0.53096220680889     -0.95900797046095
  H   0.64189626947094     -0.55466347450460      0.89237062887463
  N   0.05487777239418      2.04843557094152      1.25737360173388
  O   -0.54121926858391      3.12307134743840      1.16901246018204
  O   0.27963250891613      1.46417283202372      2.31179314551555
  N   0.18128194313913      2.09689971554782     -1.20470362425342
  H   0.31530753571309      3.09547717728951     -1.12899991078908
  H   -0.81006981324936      1.91058682365309     -1.30284897687139
