14
Coordinates from ORCA-job run
  C   0.64313868297599      0.03094209587712     -0.03413990975377
  H   1.66195639838823      1.84276107358092     -0.15076532782720
  Br  -1.80263330594864     -0.43370708592630     -0.16899610169605
  Cl  2.99589729843296     -0.28266230868691      0.31883482441945
  C   0.61884213445335      1.54109002948690     -0.04490786456643
  H   0.76198315777704     -0.49631529379789     -0.96372243895731
  H   0.58072607789151     -0.52357258478250      0.88087971860397
  C   0.10413101149681      2.10147316498722      1.28044118804741
  H   -0.93841535967198      1.81768851881338      1.43309625885183
  H   0.70487484676867      1.72672316215768      2.11459557355187
  H   0.17750198540008      3.19454418013930      1.27513638887368
  N   -0.06184423052542      2.03783127180431     -1.24328292300887
  H   -0.02808363982866      3.05134901929146     -1.22867336347677
  H   -1.03368505760995      1.74996475705530     -1.19613602306181
