12
Coordinates from ORCA-job run
  C   0.63914642584736     -0.00642305379037     -0.01674207222034
  H   1.70152637129714      1.82234538228132     -0.01294132659794
  Cl  -1.67782014023021     -0.18613605298052     -0.05636260258864
  Cl  2.93713449959883     -0.35028281688755      0.08839740598581
  C   0.65697583257265      1.50884421860557     -0.00914415368125
  H   0.65945721155039     -0.50213192434327     -0.96848884519367
  H   0.59128792102515     -0.56298803157424      0.89790911789278
  C   0.07919881166448      2.03864922537620      1.24714235512129
  N   -0.32539729099313      2.56851397626287      2.21455546255902
  N   0.04692473807874      2.05056922700743     -1.21630893413331
  H   0.10769190160603      3.06140678265976     -1.19294265675913
  H   -0.93023628201743      1.77895306738279     -1.21690375038462
