12
Coordinates from ORCA-job run
  C   0.63645177439751     -0.02153959222473     -0.00092938708143
  H   1.53450741404170      1.86634941713702     -0.35182122788658
  F   -1.12682396231291     -0.24986744943186     -0.38248458588818
  F   2.38717642810828     -0.01987079079962      0.50444055877724
  C   0.55323163993557      1.47960881314456     -0.07353945793298
  H   0.89651475057336     -0.58909788083581     -0.87609025985895
  H   0.44136121745544     -0.54154449851858      0.91730657015156
  H   -0.17676257665208      1.74431613514238     -0.84029787042897
  C   0.12568056886486      2.05493078715285      1.26913030555825
  H   -0.84925763335355      1.64043590338980      1.53408846120330
  H   0.85899127495629      1.76774133742647      2.02659325838308
  H   0.05089910398554      3.14880781841753      1.25202363500367
