12
Coordinates from ORCA-job run
  C   0.63863036434955      0.00373313169853     -0.01568814170981
  H   1.70110755075701      1.83285689221271      0.00647601055163
  Br  -1.83134535502460     -0.24924523834793     -0.04458935649012
  Br  3.08403403494179     -0.40612274036610      0.05370255607081
  C   0.65538125785677      1.52051801951571     -0.00185131704776
  H   0.64664901003770     -0.49195989043021     -0.96836015221675
  H   0.59946936525799     -0.55988283990755      0.89603590635317
  C   0.06865782640408      2.05161841822376      1.25023842838439
  N   -0.33570289307100      2.58639391324319      2.21548139144692
  N   0.05920836644147      2.06374165715605     -1.21560091947332
  H   0.11925369552660      3.07493468497685     -1.18948850285424
  H   -0.91945322347736      1.79473399202499     -1.22818590301490
