12
Coordinates from ORCA-job run
  C   0.44813218532781     -0.00683918672099      0.07969970411942
  H   1.57666610446969      1.73090853571409      0.33857433615588
  Cl  -1.50118852763328     -0.33470028592125      0.84303892738570
  F   2.29635315224799     -0.02692970635883     -0.84428221669798
  C   0.54578242949225      1.49845023582701      0.07530844992591
  H   0.26687236779219     -0.52498602890630     -0.84133800367547
  H   0.96629901604481     -0.55627724515250      0.84471672027393
  H   -0.12788143304705      1.93688815839174      0.81624006843805
  C   0.26052629424081      2.04688045836755     -1.31532937141481
  H   0.99741033059235      1.60033432307374     -1.98197563838857
  H   -0.74887449397568      1.77896641482564     -1.64265802984308
  H   0.34920257444812      3.13855432686011     -1.34978494627897
