13
Coordinates from ORCA-job run
  C   0.60436351221460     -0.02937974749416      0.04274105864576
  H   1.67680030393686      1.79851095553516      0.13803778695967
  Cl  -1.75298189658267     -0.21652074575279      0.31581169903234
  Br  2.93800991680153     -0.43151312281201     -0.42849906250609
  C   0.63282562983436      1.49054581756040      0.04063893486824
  H   0.39134410179214     -0.56136927729638     -0.86306984309655
  H   0.68643824467109     -0.57376879404297      0.96588402603690
  C   -0.04233728244428      2.08123595425763      1.20144680263158
  N   -0.46930820376895      2.67026667347179      2.12368614466889
  C   0.09756118540577      2.06107351928558     -1.27250268166662
  H   0.71042364008199      1.67828271759171     -2.09246937886346
  H   -0.93755784839201      1.75305630274913     -1.41287994576414
  H   0.15768869644957      3.15210974694691     -1.27168554094652
