14
Coordinates from ORCA-job run
  C   0.51457419254073     -0.05444328451876      0.00901488007977
  H   1.72885565192192      1.66594740309335      0.20568247147853
  F   -1.23978779220758      0.08227330861334      0.36527874387365
  F   2.21314910501839     -0.29244106330833     -0.48987574572369
  C   0.67860848702140      1.44299902469154      0.01946255088642
  H   0.23254698048882     -0.55964544411265     -0.89399106696529
  H   0.67427327466193     -0.60260791095197      0.91836214287410
  N   -0.02716670561546      2.03052128281955      1.21379292980349
  O   -0.82891837923627      2.94775194987102      1.05164544339698
  O   0.31945364712639      1.60647137254886      2.31295626301135
  C   0.19114701122227      2.06544224782526     -1.26620464486379
  H   0.78920240597449      1.63336196079017     -2.07167226167791
  H   -0.85819869547923      1.80753185865063     -1.39811283014040
  H   0.30581081656218      3.15058729398798     -1.27174887603321
