11
Coordinates from ORCA-job run
  C   0.53727696475918     -0.03550096831618      0.03820297390700
  H   1.79865387219559      1.59102335245524     -0.14801325000931
  Br  -1.71330573288104     -0.15615653953958      0.30160637719888
  F   2.56693106807285     -0.20669883373700     -0.08187820227039
  C   0.72275943839592      1.44538894695426     -0.04370974990269
  H   0.58892749043238     -0.60739134148732     -0.86690719343339
  H   0.76789524884422     -0.50972608736138      0.97065666482524
  H   0.31101967391070      1.97853669374036      0.80887799485421
  N   0.08911955477173      2.05954939084304     -1.24309978126731
  O   -0.33813529916877      3.20881292562396     -1.12257193184016
  O   0.10066772066724      1.42760246082461     -2.29475390206205
