11
Coordinates from ORCA-job run
  C   0.54408029515495     -0.03796334993231     -0.03056081428517
  H   1.78647607324841      1.60635490427449      0.12006788185547
  Br  -1.70788895874683     -0.19005110928173     -0.26355794030465
  F   2.57777392696949     -0.18031559972503      0.06063532547983
  C   0.71097832172869      1.44602463612490      0.03499098972997
  H   0.76792204772785     -0.51823351165576     -0.96152421830876
  H   0.61659894056657     -0.59983790528332      0.87942570107895
  H   0.27655070825623      1.96693436290879     -0.81383345140672
  N   0.08952281776418      2.06101596926392      1.24062318219720
  O   -0.35746314165492      3.20253647889519      1.11833069415498
  O   0.12919896898536      1.43823512441087      2.29708264980892
