14
Coordinates from ORCA-job run
  C   0.57712059121075      0.00478258369687      0.01035430724079
  H   1.69355401618819      1.67708621049341     -0.53848160100999
  Cl  -1.56395294925339     -0.64593091571165     -0.96879302383997
  Br  2.74085890557358     -0.31173132497222      1.16608227270256
  C   0.68292698122611      1.50448895576311     -0.14157531727642
  H   0.95039241304365     -0.64614376859009     -0.75716992884690
  H   0.10864304997939     -0.41515405867811      0.87986182629114
  N   0.49723764586775      2.12140367390463      1.17444935747703
  H   0.64846129538925      3.12029349557814      1.08032692897053
  H   1.23066205950861      1.76105396324669      1.77767438660723
  C   -0.29541569091305      2.14125166357074     -1.12278210607227
  H   -0.24762835565517      1.66147498930224     -2.09943669292473
  H   -1.31265007464600      2.05116275993072     -0.75095011490533
  H   -0.03096988751969      3.20139177246550     -1.23117029441367
