11
Coordinates from ORCA-job run
  C   0.59090499992015     -0.00001906659205      0.04811486402106
  H   1.22140387177800      1.89846588623697     -0.63430150086744
  F   -0.94876024605460     -0.34063241112582     -0.97493340283131
  F   2.11998241156016      0.06939020534146      0.95173049218547
  C   0.41798059177687      1.49604540802641      0.00342596787819
  H   1.08768328198739     -0.52120372346747     -0.74522863958127
  H   0.11094940885873     -0.54984049365593      0.83599169290580
  H   -0.54407357913915      1.70493747385340     -0.45653927509698
  N   0.46177792674940      2.04617697394256      1.36776243880995
  H   0.58959080903225      3.05077723704992      1.31077919408511
  H   1.31200052353080      1.64228251039054      1.74867816849141
