10
Coordinates from ORCA-job run
  C   0.57249013816822     -0.04069633527826      0.01502321676258
  H   1.69052412058130      1.70455611877225      0.13414239629593
  Cl  -1.52830320005804     -0.30375187972088      0.22168030862462
  F   2.56804782324505     -0.07402242806292     -0.16529960524689
  C   0.63539309134183      1.46758567048729     -0.00053795925903
  H   0.65116088549836     -0.58090100388836     -0.90685681561910
  H   0.82153175730205     -0.53642243243721      0.93201058617953
  H   0.03553268506367      1.88801803739524      0.80898224141934
  C   0.16849490909886      2.05845229304776     -1.25152223863383
  N   -0.18270221024130      2.56115195968509     -2.25225213052317
