14
Coordinates from ORCA-job run
  C   0.64281629047101      0.02860888901916     -0.03650024295146
  H   1.65949949719721      1.84991484525952     -0.14521028508065
  Cl  -1.68232674598311     -0.34839097375005     -0.16471602262242
  Cl  2.96802847365027     -0.29034120642797      0.30800477763087
  C   0.61905975030147      1.53949269254562     -0.04381767078921
  H   0.74610854576185     -0.49445996442906     -0.96976745157641
  H   0.56555643553847     -0.52694680741429      0.87620481947265
  C   0.09563704331621      2.09146367473358      1.28170993310426
  H   -0.94492118386544      1.79927268475087      1.42899144070686
  H   0.69577351232261      1.71783235410782      2.11687198970039
  H   0.16183319507606      3.18504127727937      1.28090339331845
  N   -0.06397541044737      2.03380714892993     -1.24162091381138
  H   -0.04947955693051      3.04739795068148     -1.21866725169744
  H   -1.02921984640873      1.72541743471401     -1.20002651540449
