10
Coordinates from ORCA-job run
  C   0.50669567661424     -0.03992553455553     -0.01514717732916
  H   1.68453689254424      1.73186960635500     -0.08333100980254
  Cl  -1.51334572532386     -0.26934035521354     -0.20967565715178
  H   2.63227589444418     -0.21889428532313      0.12780758902945
  C   0.63191528107341      1.47568888346211      0.00988278806049
  H   0.86335134384051     -0.52265732538386     -0.90803370709499
  H   0.69524027570904     -0.57393050258536      0.89917753260408
  H   0.06872539411022      1.89996297441682     -0.82564608378000
  C   0.11923488056164      2.07297919502340      1.24140874461251
  N   -0.25515991357363      2.58772734380408      2.22778698085193
