12
Coordinates from ORCA-job run
  C   0.57717222161124     -0.06923095383125      0.02198869375684
  H   1.75087114107743      1.69848944289608     -0.18616608969602
  F   -1.17903985339939      0.11167810705898     -0.06129547943752
  F   2.33430873518699     -0.27551302480724      0.16729332277307
  C   0.70521938854987      1.43164433275757     -0.02604945040218
  H   0.58713619400629     -0.61019335585884     -0.90411491585358
  H   0.46742936434174     -0.56774588958112      0.96539231825704
  C   0.20502737810901      2.06303299977024      1.19110849998082
  N   -0.09710240673185      2.57866881559625      2.20097494942724
  N   -0.03054995157807      1.99087483873163     -1.22132989516034
  O   -0.75690680855392      2.96634885275357     -1.06715004591149
  O   0.23221459738066      1.46866583451412     -2.29731190773388
