14
Coordinates from ORCA-job run
  C   0.50765691613860     -0.05321537895804      0.01449450628243
  H   1.66413737771856      1.61781953703930     -0.29209885932995
  Br  -1.73193103868937     -0.41181474146432     -0.22083078649490
  F   2.46890501062426     -0.00872537556830      0.50616036809951
  C   0.61284794527657      1.44826179628842     -0.05803118198931
  H   0.80551409526491     -0.62128231373103     -0.84759282797718
  H   0.53335270113108     -0.51914607767994      0.97757167466320
  C   0.23377693399008      2.13388737984342      1.23046094160175
  H   -0.79822740416727      1.91006181274158      1.50288772976172
  H   0.91762823911031      1.74305073184830      1.98585758623624
  H   0.35557296537166      3.21524813166700      1.15957125417208
  N   -0.12742120600142      2.00475188752490     -1.24380531720762
  O   -0.88413093225928      2.96141490372840     -1.08311234057180
  O   0.13659839649131      1.50319770672030     -2.33400274724619
