10
Coordinates from ORCA-job run
  C   0.60016360128543     -0.01110871089259      0.02267525814835
  H   1.50879196624335      1.89325353285746      0.41369222297547
  Br  -1.78850628970717     -0.38486182193235      0.53513021490551
  Br  3.00527975319350     -0.21815178134235     -0.53729417953662
  C   0.56545395221157      1.50323522622575      0.02915432452763
  H   0.42181730430922     -0.57309781991343     -0.87266553054433
  H   0.82683738844083     -0.52825056211143      0.93587645932548
  H   -0.24374100835235      1.85262463482717      0.67193909434986
  C   0.35664611918907      2.06327561499716     -1.30446448164883
  N   0.17942721318655      2.54705168728460     -2.35867338250251
