14
Coordinates from ORCA-job run
  C   0.65426446762829      0.00652058369126      0.02161819493209
  H   1.72530412664272      1.75120612612669     -0.46267625379536
  F   -1.15446953863981     -0.37015415601144     -0.95891645586810
  Cl  2.44935989404077     -0.31557783407338      1.10515606670147
  C   0.70889917827693      1.51308648445989     -0.11232714085772
  H   0.92549558755514     -0.59972970865829     -0.81986786608178
  H   -0.00332734047437     -0.41030324785707      0.75801732262823
  N   0.44648897115011      2.11669755561886      1.20291306117964
  H   0.62163525566723      3.11372571390902      1.12977263003549
  H   1.13728524097069      1.74284654972847      1.84568912217983
  C   -0.28026134150185      2.07487616968598     -1.12089751983395
  H   -0.09958280531115      1.65360384503900     -2.10954026277781
  H   -1.28431626052478      1.78048220689089     -0.83615311391310
  H   -0.16753543547991      3.16814971145012     -1.16439778452893
