14
Coordinates from ORCA-job run
  C   0.60604676795104     -0.02563502798142      0.01120330729197
  H   1.65653782806717      1.78361508677782     -0.27802481994945
  Br  -1.85064924568988     -0.31992378837589     -0.12210140549096
  Cl  2.87811552347184     -0.30970203907370      0.36660698195103
  C   0.63551227444313      1.48224574559946     -0.03791813012793
  H   0.68496277063945     -0.58552341576951     -0.90165938094189
  H   0.48085971775063     -0.52648136478576      0.94957060337015
  C   0.18910426327759      2.13560104660627      1.24877484037265
  H   -0.84069990470043      1.86131742830303      1.47299374045020
  H   0.84778874849534      1.78019919369875      2.04476159398607
  H   0.26710038135204      3.22074877398443      1.18417113878047
  N   -0.12609938182354      1.99650512080949     -1.23792601642061
  O   -0.85943464808899      2.97030808409868     -1.09091189045501
  O   0.12513490485459      1.46023515610834     -2.31201056281670
