10
Coordinates from ORCA-job run
  C   0.60023379167655     -0.01110339257478     -0.02286304725103
  H   1.50883675097490      1.89330813941012     -0.41366383667339
  Br  -1.78876784268923     -0.38456933504657     -0.53411273845055
  Br  3.00564727543083     -0.21846600582847      0.53558827054483
  C   0.56555476897126      1.50324273599543     -0.02903545871538
  H   0.82630270025830     -0.52806634848630     -0.93631413289428
  H   0.42235689896149     -0.57326937289023      0.87246117409461
  H   -0.24373775269462      1.85276339935074     -0.67162488118025
  C   0.35699409219182      2.06303169182926      1.30472414825848
  N   0.18004931691868      2.54660848824080      2.35907050226695
