13
Coordinates from ORCA-job run
  C   0.75207986285003     -0.01315007537938      0.00547274370851
  H   1.64708518143919      1.93859160059110     -0.16567120537667
  F   -1.25895359623493     -0.02844760552463     -0.10293278657935
  Cl  2.81558972953349     -0.28872829126845      0.26200140937367
  C   0.65076395145473      1.50377227320460     -0.04086808096358
  H   0.66714036506608     -0.56570551313885     -0.91215113412536
  H   0.47741439479494     -0.51095603572527      0.91441227962913
  C   0.03154754557130      2.03578184925290      1.25113426920102
  H   -0.95157914002616      1.57887169111809      1.33524051666813
  H   0.66162557339422      1.74158803884743      2.09549013895088
  H   -0.04515902317640      3.12668690349374      1.23639514348683
  C   -0.12555018498508      1.93845101210856     -1.20768491971394
  N   -0.62736465968139      2.41528415242017     -2.15634837425928
