11
Coordinates from ORCA-job run
  C   0.67496800072737     -0.04448039756979      0.00014988527343
  H   1.66142316699337      1.85735348702932      0.00299367243383
  Cl  -1.67597777567967     -0.18426751808699     -0.00152594037915
  Br  3.03964964106800     -0.33225075393532     -0.00453338711431
  C   0.63271660656935      1.48116997821736      0.00098663263059
  H   0.61305721852155     -0.57056684850706     -0.93273695768073
  H   0.61366512242381     -0.57219969411205      0.93224537904838
  C   0.00207308128501      2.02496850422359      1.20934827253654
  N   -0.38610944455933      2.52426807198410      2.19824963455984
  C   0.00416712079560      2.02593486802156     -1.20790971999273
  N   -0.38349273814505      2.52532030273530     -2.19696747131570
