12
Coordinates from ORCA-job run
  C   0.50896696985951     -0.00326910509924      0.09052560524955
  H   1.66165018992437      1.82318877133953      0.19277222359146
  F   -1.13710495342592     -0.02715465340401      0.61402334125730
  H   2.26360308379247     -0.22933005374719     -0.57356513769021
  C   0.63539754047917      1.50430905196974      0.02504724098632
  H   0.29920826525689     -0.57260689951458     -0.79540612593931
  H   0.90318961945370     -0.53921746592256      0.93660670211725
  H   0.00083632466992      1.90912587418705      0.81981639250036
  C   0.14174823252845      2.01676645838485     -1.31968824875982
  H   0.77790528703728      1.61398934252552     -2.11342508156809
  H   -0.88379857296278      1.67405151635188     -1.47472911319886
  H   0.15769801338693      3.11139716292899     -1.37976779854595
