11
Coordinates from ORCA-job run
  C   0.55185587995349     -0.00237198473229     -0.00631184013448
  H   1.74788368616570      1.65191049780342     -0.02818716725056
  Cl  -1.55513579152776     -0.22872496258130      0.10058602478076
  F   2.63020813957475     -0.17847737885522      0.03672114273813
  C   0.67201158249950      1.49228984089148     -0.02628286419581
  H   0.69145312961422     -0.51981263685278     -0.93673023418639
  H   0.76542174061266     -0.52489853827455      0.90342337536389
  H   0.23355415203085      1.89091632615700      0.90121623585093
  N   0.07992952026052      2.07129428190316     -1.23614984268787
  H   0.22371122208509      3.07401166494084     -1.21524786288349
  H   -0.91897326126901      1.90390288960023     -1.19979696739511
