13
Coordinates from ORCA-job run
  C   0.43716682877879     -0.13578843310020     -0.01500573664275
  H   1.66234314439011      1.58724423613181     -0.56516137514322
  F   -0.89517384177980     -0.33125216447478     -0.95458695037758
  H   1.88933928025686      0.10528356697716      0.97477007317336
  C   0.70826029088352      1.32428717460337     -0.13112269499555
  H   1.09587196183826     -0.78009662391791     -0.57243053100415
  H   -0.00278419217922     -0.48839373790821      0.90067181730696
  N   0.56015495131278      2.08965542318817      1.14366133138706
  O   1.21458806931544      3.13243103217159      1.21529271903348
  O   -0.24159913857548      1.70174857689566      1.98456141804437
  N   -0.31630918558771      2.03860062240878     -1.08772056320970
  O   -1.34049088462804      2.52701585722208     -0.62648639791892
  O   0.02469271597448      2.06720446980252     -2.26565310965333
