11
Coordinates from ORCA-job run
  C   0.60003764483407     -0.07194051335529      0.00091783964191
  H   1.71028771893260      1.66494740102758      0.00009101967506
  Cl  -1.53981489365064     -0.31020465612426     -0.00050753710455
  F   2.52829117661107     -0.04618273651579     -0.00728689756949
  C   0.63577854839475      1.44577388780500      0.00064715780386
  H   0.72410159513286     -0.58366890660336     -0.93245783770529
  H   0.72637171127453     -0.58381882006715      0.93417728639465
  C   0.04694184954313      2.04410525942303      1.20140064498538
  N   -0.34050179348780      2.56509389583476      2.17931016508464
  C   0.04636010546765      2.04438873253832     -1.19953585660369
  N   -0.34171366305220      2.56675645603715     -2.17645598460250
