13
Coordinates from ORCA-job run
  C   0.58491908236462      0.00032231883035     -0.02511231156419
  H   1.71291240297134      1.80645659823696      0.13468011226828
  Br  -1.88312537881805     -0.12015528959115     -0.09049415692580
  Br  3.01925100602308     -0.49405573687359     -0.02514499817722
  C   0.67712114493285      1.50496753012588     -0.02372979673716
  H   0.56973139522077     -0.51029948962775     -0.96779825765710
  H   0.54546456977603     -0.53629199380662      0.90223756902507
  N   0.00891858506150      2.04709172650710      1.26749631025643
  O   -0.62052389569721      3.09791705099960      1.17106052518957
  O   0.24925916816061      1.46042837427211      2.31566967339573
  N   0.18031831832477      2.09578874994277     -1.21075081393621
  H   0.22968804871005      3.10292033465730     -1.14279268817479
  H   -0.78776444703036      1.81744982632704     -1.32970116696258
