13
Coordinates from ORCA-job run
  C   0.39823663475272     -0.05436699291772      0.03305509421137
  H   1.66075033275655      1.56705711898447     -0.53411682692219
  Cl  -1.54962171426146     -0.35002477419231     -0.52779817208631
  H   2.29689428450306      0.00315998953345      0.85778664922203
  C   0.66835817180409      1.43397269303488     -0.10246687619412
  H   0.91598118178656     -0.69567858487735     -0.66154152926974
  H   0.28725754422398     -0.41216611972786      1.03767975491402
  N   0.45145446899918      2.08193614014564      1.16405216612517
  H   0.63886354227832      3.07376489203184      1.07624490100459
  H   1.16592401711761      1.66290331481887      1.75537949329591
  N   -0.20237854094974      2.09537434797674     -1.16185778711896
  O   -0.93567461810889      3.03056302582253     -0.85123276933823
  O   -0.01429530490198      1.70312494936679     -2.31059409784355
