11
Coordinates from ORCA-job run
  C   0.63400876181988     -0.02377839405993     -0.02072824045572
  H   1.70867111132475      1.83629823853442     -0.01843144486435
  Br  -1.80562410591759     -0.13552119479717     -0.32846614867028
  Cl  2.92749331942666     -0.39932253678838      0.18569476493606
  C   0.68111966747713      1.47377306369983      0.00394018871863
  H   0.70206884163844     -0.52976606750394     -0.96325344086486
  H   0.51193228476312     -0.57655112915019      0.88963484701142
  H   0.10704246181591      1.91747806483933     -0.80356313327528
  N   0.11023020532840      2.04723586694729      1.26174837652970
  O   -0.31865372151671      3.19727309359648      1.18320895976385
  O   0.17546117384002      1.38758099468225      2.29189527117082
