14
Coordinates from ORCA-job run
  C   0.55752258158941     -0.02937554319871      0.02742953373681
  H   1.68797750762488      1.75132874813632      0.21731559955594
  Br  -1.93856623466679     -0.19657925992711      0.25748353235459
  Br  2.90554576964686     -0.49454635030346     -0.44046012231596
  C   0.65008604128416      1.47769333548324      0.01868568858137
  H   0.34837499432137     -0.55824758529552     -0.88058151872947
  H   0.63114884519060     -0.56005401820472      0.95890169152310
  N   -0.04986703792949      2.06395121088603      1.22566321124410
  O   -0.75236558632307      3.05811294604393      1.06736849332051
  O   0.22373045564708      1.55955784187303      2.30974277875668
  C   0.18446102313515      2.10461779142584     -1.27448191307341
  H   0.79458206832253      1.68952448634506     -2.08046590654025
  H   -0.86494231256288      1.87138277339289     -1.44832545738598
  H   0.31586188472016      3.18638362334318     -1.25368561102803
