14
Coordinates from ORCA-job run
  C   0.49390588187777     -0.02261065956986      0.05492483281812
  H   1.68227088358531      1.55155544315189     -0.57458761092901
  Br  -1.40118938115927     -0.78014827059187     -1.05976906592510
  F   2.20331605957503      0.08537541085505      1.19966537714273
  C   0.65890373838459      1.47146935469510     -0.18201788505886
  H   1.11516532493987     -0.71097657766045     -0.48443229050972
  H   0.09376788486431     -0.33951740233575      0.99939822284273
  N   0.55411020743013      2.10472255692108      1.13808486363621
  H   0.84886188006851      3.07253513794080      1.04554688140702
  H   1.27950723150229      1.60202048034080      1.65642114782039
  C   -0.28835557923574      2.16069053221769     -1.15192490822361
  H   -0.26373158371675      1.70141125076298     -2.14057691945912
  H   -1.30989680496197      2.11670834633151     -0.77676601816945
  H   0.01260425684592      3.21219439694100     -1.24557662739232
