10
Coordinates from ORCA-job run
  C   0.66223388444226     -0.05374751435756     -0.00093687592450
  H   1.71651532756699      1.81265953552834     -0.02536500762551
  F   -1.12130177726976     -0.03711495082581     -0.06634538765169
  F   2.44453684492181     -0.20809159171666      0.03627842525946
  C   0.68726817311860      1.45890190969786      0.01661741288935
  H   0.67037361522154     -0.56913440809748     -0.94225588132207
  H   0.61557112970660     -0.60669945613642      0.91789700873430
  H   0.12893240986601      1.82461365911258     -0.84668962451411
  C   0.04116061848742      2.01156032376637      1.20707092441754
  N   -0.41182022606147      2.51053249302877      2.16795900573722
