14
Coordinates from ORCA-job run
  C   0.60936883766722     -0.02040918565446      0.00664663341668
  H   1.64930376701638      1.79962707797434     -0.29178014948448
  Br  -1.88098620548039     -0.31335335232503     -0.12427804644380
  Br  2.99204620696863     -0.36741887209570      0.39859560960677
  C   0.63327425121289      1.48887002330177     -0.04163968863985
  H   0.67326444222841     -0.58057442946888     -0.90810267750603
  H   0.45705077339961     -0.52436622198358      0.93970308268730
  C   0.19141965188345      2.13928550156881      1.24840337218802
  H   -0.83871076085538      1.86634897931385      1.47278540071636
  H   0.85083643738942      1.77889280626745      2.04171717621065
  H   0.27228207310676      3.22453754124927      1.18730511600621
  N   -0.14154416857747      1.99891651690186     -1.23651149138264
  O   -0.89241620642177      2.95734502787238     -1.08028663885128
  O   0.11909090046224      1.47580858707793     -2.31502769852390
