14
Coordinates from ORCA-job run
  C   0.61767684344394     -0.03645770036543      0.01237033334048
  H   1.72034400494004      1.80162021825043      0.17824632894032
  F   -1.36537471327519      0.21711433549058      0.23200826324374
  Cl  2.61413068232027     -0.54891937465221     -0.35411795924340
  C   0.69318015889065      1.47005809366242      0.00138908613456
  H   0.23003124964361     -0.53028731396990     -0.85616825639660
  H   0.53373855494541     -0.52354420138741      0.96500047048174
  N   -0.03285140923942      2.01166895726514      1.20816253915902
  O   -0.74377893803109      3.00204974478725      1.06875978390729
  O   0.24166848616526      1.50093841862690      2.28891980987651
  C   0.14338912995296      2.04877743912432     -1.28056887759296
  H   0.73361656532299      1.65472827991440     -2.11238462168377
  H   -0.88985910135746      1.71840599279834     -1.35661123873840
  H   0.19763848627803      3.13759711045517     -1.29041566142852
