12
Coordinates from ORCA-job run
  C   0.52877196851400     -0.04508334262394      0.06137655503253
  H   1.59523263772933      1.63423111059289     -0.56898248487708
  Cl  -1.29845463661670     -0.66629858621737     -1.00551192682230
  F   2.16636725745181      0.13216745567867      1.06730938667118
  C   0.60089051576512      1.46299586280249     -0.13651397601128
  H   1.11164973319186     -0.68529333241351     -0.56917798612507
  H   0.11356627061568     -0.40622952973256      0.98157636207652
  N   0.46287320041307      2.08856896932908      1.18448310116200
  H   0.65919607428784      3.07995359206728      1.09558234241710
  H   1.22937421510197      1.64692271158274      1.69166668735221
  C   -0.36932803789754      2.08416186586095     -1.05189718348518
  N   -1.01802919855643      2.76205322307327     -1.75836087739063
