13
Coordinates from ORCA-job run
  C   0.62680548240860      0.07502100889598     -0.04591675163349
  H   1.69885604093591      1.87194053792225     -0.40522985908682
  F   -1.31919622110074     -0.15926638448072     -0.72055208367028
  Br  2.67359033029645     -0.35644280135635      0.90277743453095
  C   0.67856033084950      1.59596156000445     -0.10983862334490
  H   0.81506785292270     -0.48668735284231     -0.94153476189740
  H   0.08065417484209     -0.38909508940569      0.75038991742815
  N   0.37482606174999      2.11394006899817      1.23891561502345
  H   0.62788810030480      3.09831108402921      1.24857868273463
  H   1.01646886857457      1.65827802750514      1.88304063927679
  N   -0.23268940549812      2.10035374465516     -1.12550711158871
  H   -0.54993353460777      3.01680380203821     -0.82854429904250
  H   -1.01903808167796      1.43510179403649     -1.09715879872987
