10
Coordinates from ORCA-job run
  C   0.66222918910798     -0.05374647083122      0.00066933865548
  H   1.71649055933490      1.81267068288822      0.02500248588652
  F   -1.12127030140962     -0.03713960341184      0.06687882588686
  F   2.44452931105826     -0.20806014810378     -0.03738479945791
  C   0.68722995043572      1.45890722932852     -0.01659792449450
  H   0.61515738972067     -0.60652056010251     -0.91825009504151
  H   0.67080140700252     -0.56932104131466      0.94188269467408
  H   0.12926735040959      1.82441345679574      0.84703685911399
  C   0.04057682431793      2.01179934586464     -1.20664365491749
  N   -0.41284167997795      2.51096710888689     -2.16722373030552
