13
Coordinates from ORCA-job run
  C   0.74205302691395      0.08330772993786      0.08967942532784
  H   1.73191558158654      1.94759300630670     -0.39570144465352
  F   -1.20398297741469      0.29091941390495      0.38193871665361
  Cl  2.82922633834296     -0.34120341959771     -0.03895794689438
  C   0.75137765708940      1.59187571205191     -0.07583571467738
  H   0.46197544127007     -0.53805589471094     -0.73917875541525
  H   0.66770812551362     -0.30425311624863      1.08617361296042
  N   0.30636620689152      2.32804575723183      1.06903484979097
  H   1.01712829678545      2.23368381072252      1.78542992461325
  H   -0.53433501458944      1.82406740526799      1.35022219233567
  N   -0.13473561685347      1.92056570458533     -1.26734446604279
  O   -0.97319093385065      2.80359860016943     -1.17315752876112
  O   0.12024386831473      1.29947529037875     -2.29771286523728
