13
Coordinates from ORCA-job run
  C   0.67663193421043     -0.02960056355512      0.02879292033507
  H   1.71222471042288      1.85741594339698      0.08984836108811
  F   -1.32421080037890      0.10311360601044      0.22164371357760
  Cl  2.70074403497062     -0.46181187553672     -0.30855502365665
  C   0.68364563202719      1.49120841812762      0.01719864060480
  H   0.32473109879023     -0.54123240614992     -0.84510622113405
  H   0.59686714285805     -0.53917425487289      0.97160995556518
  C   -0.01759913295910      2.02633867652953      1.18973987520332
  N   -0.44824203809950      2.57769074685326      2.13302094611015
  C   0.05690515726472      2.01390753628454     -1.27487317048839
  H   0.63805307310837      1.64784464396834     -2.12609510442365
  H   -0.95603963919656      1.61959308856670     -1.30898365736389
  H   0.04955882698155      3.10723644037727     -1.30110123541760
