11
Coordinates from ORCA-job run
  C   0.49389989349027      0.01287527395971     -0.00897113348440
  H   1.71916529345199      1.70096329203081     -0.03909088045018
  Br  -1.65207272421290     -0.29340209205928      0.11899125159972
  H   2.78442052604543     -0.37809010235227      0.05248044319906
  C   0.64791109600993      1.51512360861625     -0.02897471757279
  H   0.74998044526689     -0.49712402866889     -0.92641376591168
  H   0.83869790188730     -0.49758217087562      0.87523494316322
  H   0.22452636985224      1.91848410074827      0.90454079362979
  N   0.05565173622449      2.10218237395346     -1.23583203773434
  H   0.20445765498771      3.10431005528581     -1.21330030075408
  H   -0.94471819300336      1.94229968936177     -1.20542459568432
