14
Coordinates from ORCA-job run
  C   0.63938961845474      0.03606050342920     -0.03612697012438
  H   1.65520353002677      1.85734298952970     -0.16057349067856
  Br  -1.83313295889325     -0.42244364018575     -0.17259850222724
  Br  3.10777469264745     -0.33959862377715      0.34476341888625
  C   0.61500171648644      1.54784561267369     -0.04821438445090
  H   0.74432832164651     -0.49425504190598     -0.96640811054265
  H   0.55875929434969     -0.52096979889720      0.87639080986373
  C   0.10481589358789      2.10558209129264      1.28061032387022
  H   -0.93237402115401      1.80789464327122      1.44260846848638
  H   0.71858441205264      1.73949177841718      2.10931595905582
  H   0.16433543360637      3.19941780550200      1.27215245848820
  N   -0.07333245836909      2.03973075752048     -1.24415156994744
  H   -0.04098689880277      3.05334962462428     -1.23313306839072
  H   -1.04397657563937      1.74866129850570     -1.19227534228871
