14
Coordinates from ORCA-job run
  C   0.68200037183378      0.04674917166662     -0.03002998539683
  H   1.70962634902260      1.91788410694984     -0.14029535845827
  F   -1.31202670781669      0.01006089881767     -0.18661437638830
  Cl  2.81091852999097     -0.37089585033485      0.32350149747164
  C   0.68164883020241      1.56446579260830     -0.04624983636767
  H   0.67446845370018     -0.47006782129611     -0.97217354352859
  H   0.42186613609261     -0.49162755502365      0.85868824784948
  C   0.09413033330699      2.07574286259223      1.26884413258696
  H   -0.91510552748759      1.67320338400212      1.35238512751261
  H   0.69601242666629      1.74643422584851      2.12263124840781
  H   0.06160691434980      3.17175116409579      1.27814076371406
  N   -0.05112613066772      2.00110627758591     -1.24064119352852
  H   -0.23841901914037      2.99493809372543     -1.15426972235158
  H   -0.93121096005325      1.48836524876218     -1.16155700152281
