15
Coordinates from ORCA-job run
  C   0.55488870361152     -0.03891805768887     -0.00162195394849
  H   1.66068407578073      1.64498370331648     -0.24323411048667
  Cl  -1.49344713477689     -0.53936099918677     -0.43346990877367
  F   2.48983195791672     -0.00064320916898      0.65845139745140
  C   0.59384407323950      1.46877144661951     -0.09805780460460
  H   0.96264482873746     -0.61113389219130     -0.81646078800523
  H   0.51788369068046     -0.51098624859909      0.95872101601652
  C   0.20300449431946      2.08486299028378      1.23717208830453
  H   -0.82627514385098      1.82032834325512      1.49978214419051
  H   0.88555458991021      1.70025234969535      1.99724113674628
  H   0.28337114112180      3.17771698864668      1.21160415703274
  C   -0.17049695853984      2.08261660668615     -1.26726806061576
  H   0.02816607965852      1.54220627517884     -2.19713287937698
  H   -1.24818134239364      2.06591620005157     -1.10322322278080
  H   0.15029694458497      3.12270750310155     -1.40117321114978
