12
Coordinates from ORCA-job run
  C   0.56014256350228     -0.03704644032919     -0.01570484563148
  H   1.72274430634648      1.63460566810580     -0.00222256686639
  Cl  -1.55593151019202     -0.29107529097920     -0.05186635077502
  F   2.56844340290301     -0.09977232780271      0.05523474682506
  C   0.64359835803553      1.46922643728302     -0.00399478751844
  H   0.74197906283080     -0.51546376383710     -0.95793453895408
  H   0.70413924292391     -0.57433256684763      0.89974455726477
  C   0.09031576245872      2.04973046245640      1.23785766136800
  N   -0.31064459890707      2.61104960143625      2.18940712105676
  N   0.06471391715227      2.05670487348779     -1.20849555102628
  H   0.18557849439799      3.06199088100876     -1.17401683170073
  H   -0.92918900145191      1.85570246601780     -1.20983861404217
