14
Coordinates from ORCA-job run
  C   0.45320026590092     -0.05860093824902      0.02101376421509
  H   1.69626761810761      1.57839018654351      0.23397005129567
  Cl  -1.65096181315341     -0.22912769252427      0.42095082379530
  F   2.32366004287658     -0.14700069540551     -0.60441589446979
  C   0.63402241318609      1.43698944611651      0.04010374529844
  H   0.34708618490616     -0.55117899723589     -0.92241950268246
  H   0.76790119816212     -0.61707782406586      0.88306072688342
  N   -0.03669299459788      2.06799727837407      1.23144752484892
  O   -0.78595917415113      3.02828975311136      1.06228252259063
  O   0.27854564190165      1.61781289272709      2.33019882135846
  C   0.22912586834229      2.09013818744415     -1.25687777652135
  H   0.85900217543818      1.63672978579720     -2.02384064826646
  H   -0.82309367088247      1.90348766921805     -1.47336441257396
  H   0.40144624396329      3.16690094814861     -1.23751974577192
