11
Coordinates from ORCA-job run
  C   0.61602386359832     -0.02294022953186     -0.03634593911326
  H   1.61579997376314      1.88715669934919     -0.16539723208718
  Cl  -1.70810218612355     -0.15109948381336     -0.39508723701093
  Br  3.00213115958686     -0.38224220053598      0.33329515475819
  C   0.61866517653428      1.47442963872059     -0.02022611466881
  H   0.72394319633573     -0.52750611910659     -0.97693250293626
  H   0.43926167962975     -0.57830146474858      0.86254511499208
  H   -0.06220908673224      1.88519442422515     -0.75965588248544
  N   0.16179479974950      2.04174711446886      1.28688423508185
  O   -0.11283532703954      3.24113458855259      1.27178432244699
  O   0.13927675069773      1.32712703242001      2.28081608102275
