15
Coordinates from ORCA-job run
  C   0.69001464694571      0.01277151462064      0.02826640406501
  H   1.72561474064642      1.88069298875962     -0.08027819246990
  F   -1.35187209983324     -0.03244392475144      0.07294987235207
  Cl  2.78981064273165     -0.45079601254476      0.04005408581207
  C   0.69132642474329      1.53235154967026     -0.02773252709663
  H   0.49879281355613     -0.54858232185853     -0.86715743765456
  H   0.50993964479226     -0.48289288705397      0.96289174405321
  C   0.05371031351561      2.09056375744082      1.24134102792023
  H   -0.95613694910510      1.68686934189542      1.29790516885708
  H   0.61881581858188      1.77730570080315      2.12584746547253
  H   0.03326005120612      3.18659783434695      1.22336757353464
  C   -0.04479108754794      2.00876950584514     -1.27721728172332
  H   0.45661351110596      1.64609104877355     -2.18131032654357
  H   -1.05210193807187      1.59798017280404     -1.23564753927132
  H   -0.07122653326688      3.10404173124910     -1.32195003730753
