11
Coordinates from ORCA-job run
  C   0.71660710397515     -0.04557238231186      0.01803769242617
  H   1.75338336609388      1.86936884805112     -0.12259533403547
  F   -1.27128171763904      0.26691266105072      0.13520087426894
  Cl  2.74385533039219     -0.55272453969544     -0.03785788184101
  C   0.74775290218145      1.45302501171794     -0.02412402953994
  H   0.43328612100935     -0.56229664063714     -0.87761842214316
  H   0.51078343136165     -0.50913294963859      0.96229413149357
  H   0.22742388923833      1.86681258595422      0.83064199801396
  N   0.01262055059733      1.97693318780701     -1.21354561510269
  O   -0.56060519753841      3.05528227808425     -1.07548280450923
  O   0.11798422032811      1.37683193961779     -2.27654060903110
