11
Coordinates from ORCA-job run
  C   0.59601907383655     -0.06733026849404      0.00139677719581
  H   1.72139127893260      1.64136780948946      0.00131119296262
  Br  -1.67861868624662     -0.38597027210481     -0.00077280788329
  F   2.55785194298134     -0.02060375392869     -0.01067146109862
  C   0.63889073226122      1.45078670172307      0.00139384483993
  H   0.73884538424038     -0.57939162091032     -0.92946936994633
  H   0.74187512461871     -0.57939353452571      0.93209287264374
  C   0.05992199187320      2.05611453981433      1.20252234249614
  N   -0.32126079234174      2.58135252482078      2.18091970652581
  C   0.06100499175376      2.05614775468591     -1.20014940957414
  N   -0.31978104190940      2.58217011943001     -2.17827368816168
