11
Coordinates from ORCA-job run
  C   0.60754059756012     -0.02219009171248      0.03800926833055
  H   1.64967253538683      1.86571151267696      0.12263872515401
  Cl  -1.71259097484220     -0.10042981652568      0.42497153553468
  Br  2.98346005763486     -0.43614755417235     -0.34561200672191
  C   0.63905769582844      1.47507555597232      0.01222743037432
  H   0.41108479314433     -0.57930707761844     -0.85582714548334
  H   0.71272418118006     -0.52306034433584      0.98073401582082
  H   -0.01008005848021      1.90440583581678      0.76915914706140
  N   0.15428343916227      2.04227509351069     -1.28460982404137
  O   -0.13892952445332      3.23701655244846     -1.26130218095275
  O   0.13558725787880      1.33209033393959     -2.28197896507640
