14
Coordinates from ORCA-job run
  C   0.55728071795539     -0.03283848571501      0.02383113349321
  H   1.68628983289916      1.75508661737002      0.19948772848638
  Cl  -1.80979273198891     -0.11343450888024      0.25549783321928
  Br  2.87995749235779     -0.51276928912216     -0.41960244689185
  C   0.64824434289560      1.47418963334463      0.01335997492267
  H   0.33652569884160     -0.56170525368327     -0.88125364049966
  H   0.61047062339249     -0.55696984545366      0.95980529632594
  N   -0.04354880988430      2.05574007682259      1.22619593935982
  O   -0.73417233846203      3.05950328678476      1.07766326650870
  O   0.22821730656194      1.54141565559172      2.30567581141102
  C   0.16405572144952      2.09664310783592     -1.27522124495812
  H   0.76773284064355      1.68577369041372     -2.08832995420541
  H   -0.88484914616110      1.85380307002717     -1.43586504347920
  H   0.28713844949932      3.17931224466378     -1.25665465369279
