12
Coordinates from ORCA-job run
  C   0.60604952963687      0.01201718204293     -0.03675250328074
  H   1.47977498054229      1.91127134158174     -0.40912505949261
  Br  -1.82111498019718     -0.46859103285260     -0.43956400441834
  Br  3.03533540605628     -0.18978773734037      0.55257801789442
  C   0.52220238038426      1.51606997001322     -0.06578022224479
  H   0.82111382693082     -0.54354372699187     -0.93250141813462
  H   0.45296259213550     -0.54084264486814      0.87054389944354
  H   -0.23552967703102      1.80592106065656     -0.79589127409550
  C   0.18129680984104      2.08806518260546      1.30252111374311
  H   -0.78199154821575      1.69896018430764      1.63925088041281
  H   0.95297048671819      1.81065086543980      2.02423918538768
  H   0.11890019319871      3.18007935540565      1.26890138478504
