14
Coordinates from ORCA-job run
  C   0.38247137313142     -0.06033913335986      0.04029215688456
  H   1.68555217538499      1.58141694418848      0.18829719265282
  Cl  -1.63177317192583     -0.20115536740172      0.33836458109700
  H   2.42365394938517     -0.26820036717849     -0.50169175200776
  C   0.61934780549739      1.43720119729108      0.02451992512195
  H   0.45058354521864     -0.55669502244841     -0.90856819624253
  H   0.77696596362578     -0.59568886419652      0.88876891327322
  N   -0.01359225757872      2.07646919406613      1.23113489339149
  O   -0.68706398822238      3.09778407383536      1.08664031628766
  O   0.26218858105323      1.57737694005749      2.32041452213243
  C   0.17844548898434      2.09582997384079     -1.25980023833756
  H   0.76937378494391      1.64924386635436     -2.06272549051820
  H   -0.88156382202688      1.91966612497143     -1.44293299459079
  H   0.35896057252893      3.17084043997988     -1.23812382914428
