13
Coordinates from ORCA-job run
  C   0.68151123986081      0.07540876411235      0.04567566265149
  H   1.71820302043267      1.87933046908601     -0.41229210877116
  Br  -1.79097120722249     -0.09508511971019      0.35996209075227
  Br  3.09800938615699     -0.30073261110684      0.11627671243136
  C   0.72080696823430      1.58757819107226     -0.08556531826629
  H   0.59881805511144     -0.54929293963775     -0.82583738023787
  H   0.68053227069965     -0.35988395910739      1.02444294434360
  N   0.37791599677255      2.34522358162879      1.07530455786962
  H   1.13533798327477      2.25009210436796      1.74071505348511
  H   -0.47276471991179      1.96067114594519      1.47300337029665
  N   -0.13592849105400      2.00840084934357     -1.27355496498501
  O   -0.95023016503329      2.90905108601842     -1.13702336429370
  O   0.12050966267838      1.42885843798763     -2.32651725527605
