13
Coordinates from ORCA-job run
  C   0.46978415341655     -0.11475066285990     -0.01913660434195
  H   1.66921372220303      1.55729991174967      0.52824037321062
  Cl  -1.41268453154560     -0.53169740307726      0.94839536999273
  F   2.11523297285449      0.07917002530312     -0.95599891264071
  C   0.67235416393037      1.36234604342011      0.15746142836924
  H   0.09262288333194     -0.46149786440190     -0.95852001053038
  H   1.00882133645015     -0.76348555795496      0.64228534133841
  N   -0.25851339870933      2.09269729643929      1.10199891126041
  O   -1.20337106058266      2.72121834553548      0.64191865482283
  O   0.05509704345947      2.01413512964753      2.28428084479012
  N   0.56329230938138      2.09096373970007     -1.14621970787543
  O   1.19669758706864      3.14280992561344     -1.20773099105297
  O   -0.17248718125842      1.64873107088531     -2.01618469734290
