14
Coordinates from ORCA-job run
  C   0.68454129928182     -0.02274457565865      0.02633966257246
  H   1.67147373329774      1.86861629824555     -0.25354857065848
  F   -1.31373328936669      0.11102356752222     -0.11232484537777
  Cl  2.72832699490775     -0.39707139589244      0.32375377913666
  C   0.67256371069251      1.48516946771984     -0.02708761199563
  H   0.58955618980743     -0.55812497044496     -0.89865196954904
  H   0.37055708941386     -0.50048667272873      0.93276700213725
  C   0.13578372360758      2.08594738524194      1.25122032877568
  H   -0.88080742521732      1.71870444169956      1.36847967125124
  H   0.76326794116669      1.74137257528279      2.07785147794025
  H   0.15043303724958      3.17580802266972      1.22518314470104
  N   -0.12636840934376      1.93325110259304     -1.22472961076938
  O   -0.88100097083905      2.89317807012413     -1.09838422562822
  O   0.12968637534186      1.38886668362602     -2.29333823253606
