13
Coordinates from ORCA-job run
  C   0.48543192559646     -0.06015788240329     -0.02769043222476
  H   1.62533571991831      1.67966631789870     -0.22147787737280
  Br  -1.61736913536467     -0.53045479647789     -0.27541035409882
  H   2.62529977425681     -0.05347915110844      0.45091918090089
  C   0.56477202839358      1.46383037363937     -0.08026246259108
  H   0.93705854148940     -0.59254007054053     -0.85211426883968
  H   0.67875015081558     -0.49952130109216      0.93547525315703
  C   0.11749939516852      2.09078834691419      1.23827284079370
  H   -0.90411312750271      1.79277807858887      1.48032282354630
  H   0.79543276523884      1.73471934965324      2.01822288498715
  H   0.16861957836789      3.18194790113273      1.19447973769281
  C   -0.14708213819274      2.05165447568795     -1.21779462970720
  N   -0.63499547818527      2.61280835810726     -2.12845269624356
