13
Coordinates from ORCA-job run
  C   0.57646344609206     -0.07545268325321      0.01319369042698
  H   1.66080999790448      1.71892455810731     -0.44113864308854
  Cl  -1.67363165209786     -0.36690739816698     -0.57250443080588
  Cl  2.68719864880121     -0.25304728920508      0.76308223421951
  C   0.67089907119066      1.41462400139444     -0.11704376013234
  H   0.80984324807279     -0.66642584441345     -0.85139263723549
  H   0.23288436944343     -0.50382066772481      0.93073781725278
  N   0.44242091272020      2.12322140953429      1.18169491786093
  O   0.92674445220351      3.25157757959098      1.24488018355610
  O   -0.20882441423194      1.56744576984570      2.05624094481459
  N   -0.24898049361396      2.04690578187855     -1.14221592125344
  O   -1.12075720314097      2.81537533529042     -0.76791347035354
  O   0.04098961665636      1.76551944712182     -2.29683092526165
