11
Coordinates from ORCA-job run
  C   0.56378593276078      0.01049300982995     -0.02571326746459
  H   1.78152345656926      1.79037825586264     -0.09925859313913
  F   -1.15748128846631      0.04395451403924     -0.05536323396872
  H   2.48376954023886     -0.34539897832960      0.13431846026535
  C   0.73430429377898      1.51550401002683     -0.04597184656804
  H   0.70701361546254     -0.53382292364482     -0.94260518937364
  H   0.61878675089911     -0.53567550770430      0.89410456376851
  H   0.31837697965532      1.88873688844018      0.90478157226395
  N   0.02787053013924      2.06358258165153     -1.21685743790009
  H   -0.05404119240596      3.06855338552885     -1.10580865435204
  H   -0.90198861863185      1.66373476429949     -1.14838637353156
