13
Coordinates from ORCA-job run
  C   0.70905181015315      0.04019767429250      0.10183430959225
  H   1.79578878629908      1.86432105941767      0.27368405820826
  Cl  -1.62688167817653     -0.16629466123575      0.22304417649460
  Br  3.05650882863702     -0.31166540569893     -0.55269950976160
  C   0.76765362533150      1.57094911330363      0.07973731640684
  H   0.53952099274662     -0.61767864760636     -0.72563325468687
  H   0.53862209365406      1.84127951845738     -0.95441442877865
  N   0.90727310924606     -0.66111783049871      1.38452503141270
  O   1.15963534255771      0.04004895526658      2.36716422109465
  O   0.80840528695438     -1.88156229936975      1.39232175159933
  N   -0.07740645303710      2.34316674731376      0.97446824746373
  H   0.17838219773553      2.09761933101623      1.92235235811293
  H   -1.03322394210148      2.03553644534178      0.84776572284182
