13
Coordinates from ORCA-job run
  C   0.62869275211475      0.01681181317482      0.02776109689329
  H   1.51101637642277      1.92258944642737      0.34956546099719
  Cl  -1.63599386048464     -0.28689403530481     -0.04348803291867
  Cl  2.97532893626914     -0.10916327566623     -0.20589646180824
  C   0.53755705550848      1.51667902810951      0.08382241196601
  H   0.66484742372156     -0.56668626673574     -0.86993302406276
  H   -0.17197525470981      1.77897621246222      0.87353913528143
  N   0.73616713101735     -0.73091306839913      1.29287467541970
  O   0.77737181735088     -0.06520094935643      2.32659401911716
  O   0.76742972345772     -1.95283055564230      1.22723265237154
  N   0.16550311822228      2.00275665347170     -1.24134050261866
  H   0.28559121900223      3.00714978717400     -1.26605524840646
  H   -0.81572643789271      1.79518521028500     -1.38276618223150
