15
Coordinates from ORCA-job run
  C   0.30534358640819     -0.04733789466766      0.11387293693872
  H   1.50002626089890      1.68311680024419      0.48970668773627
  F   -1.19717903510645     -0.18393838470749      0.59132595395890
  H   2.06527798385796     -0.08110882862427     -0.50604214705269
  C   0.48895176051280      1.46279370625560      0.15659798147459
  H   0.20664881351712     -0.57948025853599     -0.81468594085524
  N   0.94971950873295     -0.82037739338813      1.17219513631852
  O   1.30088693662128     -0.20515155727944      2.18712355383758
  O   0.94927013154064     -2.04920175583892      1.06422270002740
  C   -0.42502559190280      2.12859044113738      1.10037809145595
  N   -1.07899817518806      2.78662168541025      1.82082497198948
  C   0.26943339902233      2.02337535342475     -1.24787671629613
  H   1.00215902054970      1.55458227177844     -1.90820675279028
  H   -0.74177147562457      1.79075320978290     -1.58945267050994
  H   0.40241687616000      3.10771260500838     -1.26417378623312
