13
Coordinates from ORCA-job run
  C   0.62243362792812      0.01804153035566      0.03433578361548
  H   1.47587526966437      1.93126453437183      0.41161467613930
  Br  -1.78995743338518     -0.35030660396951     -0.11923941724841
  Br  3.14264707545595     -0.09584831834170     -0.21177939428441
  C   0.51804934762698      1.51924589031641      0.09994031286324
  H   0.69180100528641     -0.56053640973074     -0.86575298945124
  H   -0.22090039833780      1.77000394212873      0.86709659696832
  N   0.72256312676045     -0.73501262538681      1.29524478184858
  O   0.73872694925336     -0.07314142940850      2.33343921881288
  O   0.77057556452245     -1.95724621221040      1.22654134646242
  N   0.19631300123568      2.01665659624980     -1.23350205899619
  H   0.34064225432251      3.01775524510363     -1.25459881653187
  H   -0.78295939033329      1.82758386052161     -1.41143004019809
