14
Coordinates from ORCA-job run
  C   0.75002322488282     -0.01191480081048      0.06860895513833
  H   1.60919841396371      1.93331303336144     -0.02982226250608
  Cl  -1.57368360786972     -0.34678528951225     -0.25581731986604
  Br  3.19789512156029     -0.16664731226769      0.06828381604290
  C   0.61743426063210      1.49639455419525      0.07488760282753
  H   0.81127556470247     -0.59144441250902     -0.83165806110570
  H   0.06003189396649      1.72051201663327     -0.83705932877535
  N   0.69480548357535     -0.86416707684891      1.27870784140661
  O   0.65481277219002     -0.31148365626536      2.37524334471324
  O   0.70346251181039     -2.07458832269524      1.09358238560334
  C   -0.08991642368380      2.16337162058060      1.25243040032127
  H   -1.05153347494429      1.69495868082382      1.45055086200482
  H   0.51399749119019      2.12390461788343      2.15637851144427
  H   -0.26194323197602      3.21326634743115      0.99277325275086
