16
Coordinates from ORCA-job run
  C   0.52752304718583      0.00248079806782      0.05636677915382
  H   1.66771625097365      1.80930270013902      0.16314355530804
  F   -1.05978292967968     -0.13876825680393      0.06332547759589
  H   2.40637398837630     -0.16726577351184      0.11668561825861
  C   0.62035986852469      1.52698923285063      0.09280064349251
  H   0.73673155861864     -0.49072165687041     -0.87628703032772
  N   0.86398653232039     -0.83743344680011      1.19296762699937
  O   0.92970279577303     -0.32397341135694      2.32672520857825
  O   0.80404278478519     -2.06468159338330      1.00800610239720
  C   -0.15429910426376      2.17872414067389      1.23816451212293
  H   -1.20769411974264      1.90370568372248      1.17967239817118
  H   0.23618793066703      1.86675160589625      2.20473346201262
  H   -0.06396691145578      3.26855632631125      1.14717725748153
  N   0.12946208192402      1.95353830386862     -1.23197824201909
  H   0.07291684683078      2.96732914977842     -1.23302730376292
  H   -0.82098062083770      1.60199619741815     -1.29744606546218
