11
Coordinates from ORCA-job run
  C   0.56610529225407     -0.00491420143838     -0.00925974253715
  H   1.65189337481079      1.75969524683873      0.23763051237553
  Br  -1.60101836010577     -0.36853046025646     -0.28739618347151
  F   2.62572549279319     -0.06816024685833      0.11951962431347
  C   0.62100769070955      1.49189871315353      0.02922481523485
  H   0.90294853158950     -0.58197038278467     -0.84627922113533
  H   -0.05115079233877      1.87618199212700      0.79440943539606
  H   0.30769417907044      1.87898593704095     -0.94216255370346
  N   0.75562317985243     -0.72628626503053      1.26843285600116
  O   0.72299464951424     -0.06255906872512      2.30145699823768
  O   0.87156676185034     -1.94372126406671      1.21239345928871
