13
Coordinates from ORCA-job run
  C   0.57493950849214     -0.06370274204206      0.01864174992096
  H   1.50803695311963      1.75118145299763      0.56380459071456
  F   -1.12688905613206     -0.24201388780333      0.49737411308159
  F   2.17353984363026     -0.02399473931936     -0.48332417837334
  C   0.53616281600202      1.45412105307888      0.16336640529574
  H   0.29127313567994     -0.60682103634651     -0.86237349977806
  N   0.93187973763891     -0.82972931205903      1.22820611768427
  O   1.20065723414087     -0.18507663670891      2.23951332421518
  O   0.95719585176404     -2.04898488640090      1.13211056932182
  C   -0.50182705651699      2.01163516898135      1.04162444873583
  N   -1.20655180417673      2.62970382238713      1.74829849160916
  C   0.41973726950905      2.04470031431501     -1.17415568637748
  N   0.34187556684888      2.54265142892011     -2.23411644605023
