14
Coordinates from ORCA-job run
  C   0.73977297500377     -0.01170939718936      0.06634375944283
  H   1.62327060384377      1.91309120332976     -0.02879562049402
  Br  -1.66989118211741     -0.40968275272746     -0.32668754436786
  Cl  3.08955545143771     -0.12151842056480      0.13919526211554
  C   0.62252945948306      1.49657702301412      0.07523433176957
  H   0.85699780641761     -0.58290454953436     -0.83395990000019
  H   0.06992103911221      1.73416136824085     -0.83644009834559
  N   0.71014077806724     -0.86843103222448      1.27397230724890
  O   0.64264014069282     -0.32111475373562      2.37159765230652
  O   0.76220715436577     -2.07712363239311      1.08516270554224
  C   -0.07225088031971      2.17034275696810      1.25577637245465
  H   -1.04394078574706      1.72015992924648      1.45144890623954
  H   0.52894462131573      2.11161329128521      2.16024454014412
  H   -0.22403718155549      3.22522896628469      1.00399732594377
