12
Coordinates from ORCA-job run
  C   0.82229987005247     -0.02706920623474      0.02827535555455
  H   1.66976758856880      1.86341412994977      0.59479523652511
  F   -1.16472149044479     -0.07053155769933      0.16390066264539
  Cl  2.81034212104701     -0.24027742848058     -0.36573014058432
  C   0.73485642486356      1.47476923080097      0.18780476385924
  H   0.47072314454509     -0.53818609524009     -0.84336148199381
  H   0.62233918419826      1.87866758184788     -0.82186394370047
  N   0.74017178878824     -0.83721274567957      1.25875205105107
  O   0.86675725464685     -0.24216036842255      2.32581957360986
  O   0.60721585395966     -2.04591535280748      1.12292354704224
  C   -0.35794355709965      1.99376623310380      1.01307101975553
  N   -1.08444818312553      2.63263557886192      1.67851335623559
