14
Coordinates from ORCA-job run
  C   0.74270160886453     -0.01331972585803      0.07677104382898
  H   1.63862956123665      1.91488284637071      0.03812852342535
  Br  -1.71393377633549     -0.38347034228259     -0.29024962780816
  Br  3.21749033377675     -0.18852351542027     -0.01569642417158
  C   0.63450696374429      1.49720898031489      0.09500659449358
  H   0.79340670596088     -0.59385590881549     -0.82328901995102
  H   0.12609187583671      1.74020584313018     -0.84120844258880
  N   0.72619132180531     -0.85761694448467      1.29100904175349
  O   0.70588507981360     -0.29471039176655      2.38406690790677
  O   0.74239399281188     -2.07034989856933      1.11743785801646
  C   -0.10668129996754      2.17024357249723      1.24940881208351
  H   -1.08124966740450      1.71527354631320      1.41441122732319
  H   0.46602781506335      2.11934740406002      2.17278974069508
  H   -0.25560051520643      3.22337453451070      0.98850376499317
