12
Coordinates from ORCA-job run
  C   0.59203929295341     -0.03415515264879      0.01712200093118
  H   1.37024754357591      1.89348955010832      0.52984901653558
  Br  -1.80199142358379     -0.45567266950328      0.02847130742330
  Cl  2.88602622052692      0.01587924811124     -0.36780307153128
  C   0.47327611007885      1.46970980049764      0.08036757264658
  H   0.58834400899716     -0.64786394570730     -0.86057974672266
  H   -0.38798838383365      1.75351653114435      0.68403892527203
  N   0.79150377746406     -0.72743483058765      1.30073741583352
  O   0.81772308761514     -0.02214133800512      2.30802624098029
  O   0.91568569859535     -1.94409200422061      1.26935614513045
  C   0.31096916720692      2.02377654365339     -1.25960491095167
  N   0.18022490040372      2.51737826715783     -2.31594089554730
