13
Coordinates from ORCA-job run
  C   0.40199635523295      0.01699217478753      0.14619469789571
  H   1.54577600242924      1.40446514946794      1.32104415990023
  F   -1.07385529962381      0.00331400983313      0.60054452117906
  H   2.22196743998455     -0.07838686333769     -0.33701666818281
  C   0.87458116462373      1.41156555669476      0.47000010124441
  H   0.30798495831316     -0.28901868908239     -0.88100967139382
  H   1.31230462702072      1.88478305492138     -0.40050132285803
  N   0.88218359026690     -1.07653392738201      1.01033427506977
  O   1.22198037860426     -0.80017861204281      2.16376115784429
  O   0.75595891878073     -2.22337709907350      0.57568435484763
  N   -0.28789121890313      2.31148417268261      0.86933678152916
  O   -0.93721072441117      2.82021781176396     -0.04402090410347
  O   -0.48813619231814      2.50779326076709      2.06599851702787
