15
Coordinates from ORCA-job run
  C   0.70565093041914     -0.01271943787172      0.02273627077485
  H   1.60687995465483      1.89884621848593      0.35874577300250
  F   -1.25870374193176     -0.03776089729918      0.27532767415229
  Cl  2.68819991033704     -0.24268865637581     -0.47407075137811
  C   0.61755547648084      1.49885516524874      0.12152197982212
  H   0.32917596955355     -0.54968540035750     -0.82464985493819
  N   0.70863838019304     -0.80747997057863      1.26609449655495
  O   0.92820916598956     -0.20609609396698      2.31406560932542
  O   0.54464020367467     -2.01510880052314      1.15311531509812
  C   -0.29176906253764      1.99968256648238      1.15767161972994
  N   -0.90888180029811      2.62161904568209      1.94022333747062
  C   0.16502588134338      2.01813780164390     -1.24502112913762
  H   0.86890087766313      1.69332531153600     -2.01485494166593
  H   -0.82274052711940      1.60251228441808     -1.43733888143644
  H   0.11637838157777      3.10951086347583     -1.24775651737453
