12
Coordinates from ORCA-job run
  C   0.60337828649716     -0.03375618445290      0.03188426120504
  H   1.71263753890951      1.68647819079624      0.49639633707061
  Cl  -1.50521369690535     -0.25175609435537     -0.08433438752466
  F   2.51585296976472     -0.07940323169596     -0.08847411643960
  C   0.69681833010128      1.46740428411925      0.17601607214655
  H   0.73866474765594     -0.55544257212049     -0.89209675352597
  H   0.55015685288834      1.88774599809362     -0.82229778954670
  N   0.80968208865378     -0.85097434106691      1.24014472083439
  O   0.90826321361971     -0.25178724868018      2.30713060630655
  O   0.86409600700574     -2.06427373775777      1.09064625604021
  C   -0.24366230353876      2.11862431390464      1.08827802562984
  N   -0.91331403465208      2.76904062321581      1.79960676780373
