15
Coordinates from ORCA-job run
  C   0.24606723713935     -0.05217505604005      0.11562607545333
  H   1.51718773900269      1.58307706744256      0.41933196786533
  Cl  -1.62854124327348     -0.34182055723242      0.34933065607307
  H   2.39533808411810     -0.04114928956615     -0.49288714401720
  C   0.46835588569352      1.45398175234110      0.15235141948316
  H   0.47062102631443     -0.54477610654377     -0.81395480482130
  N   0.88474537482779     -0.79044566494875      1.22925911279534
  O   1.13797070044691     -0.14667151180954      2.25124901927112
  O   0.94760791576070     -2.01401173907732      1.12459386868942
  C   -0.34815800011872      2.16073454386909      1.14166745115729
  N   -0.93822221207582      2.83882933146741      1.89857290101825
  C   0.24274489993757      2.01841235718768     -1.24864054505671
  H   0.98750466023383      1.55613667038581     -1.90115009923410
  H   -0.76361480418199      1.78838772763541     -1.60479543446960
  H   0.37755273617513      3.10244047488896     -1.25474444420736
