16
Coordinates from ORCA-job run
  C   0.54644275226206     -0.01512066078232      0.05614063807007
  H   1.63515745758581      1.70397027602337      0.16799183919619
  Br  -1.63503055038178     -0.48143411919139     -0.07323230807725
  F   2.60476169496257      0.00097178878322      0.10085262481303
  C   0.56658036936289      1.50289728365347      0.10411702473387
  H   0.81693102110345     -0.49061876626193     -0.86640514668955
  N   0.85677914969240     -0.86278596848968      1.22846566779645
  O   0.90562017993639     -0.33760162979254      2.33762995409117
  O   0.99211852727158     -2.06036032991621      1.01348015581290
  C   -0.15997588899109      2.18745423862168      1.25760243822825
  H   -1.22955272567434      1.96889566857346      1.23271160684980
  H   0.23917438443807      1.88239590529574      2.22269660402020
  H   -0.02551974876522      3.26958049486880      1.14515252472458
  N   0.11261695048424      1.95821861434396     -1.21749403354377
  H   0.36208685205464      2.93645633066341     -1.31027143118954
  H   -0.89991042534164      1.89361087360695     -1.24840815883640
