14
Coordinates from ORCA-job run
  C   0.54247494282982     -0.02959255193738      0.03404488545810
  H   1.63319775813615      1.71294242512983      0.31563363964939
  Cl  -1.53735899199432     -0.29825318963811     -0.03868977778894
  F   2.49634214195616     -0.03705608554090     -0.02449771868814
  C   0.58786880081101      1.48136022677907      0.11756289314499
  H   0.72356480169461     -0.52777385682662     -0.89642143240621
  N   0.79675768813804     -0.82380278232233      1.24695395616841
  O   0.90368639868086     -0.21084992667942      2.30533038999622
  O   0.86434574924830     -2.03790489541439      1.11187138658155
  C   -0.22766971832819      2.07048564748678      1.19962154379410
  N   -0.83324564402305      2.71842850380702      1.97089545234613
  N   0.22417237576565      2.01912045993591     -1.19191944339766
  H   0.38416008373408      3.01958162611161     -1.18363428756517
  H   -0.76851638664911      1.86305439910891     -1.32991148729273
