17
Coordinates from ORCA-job run
  C   0.58202629813647     -0.01133748267271      0.09540267809899
  H   1.59450137772361      1.79193465191472      0.38832185574448
  Cl  -1.75824550823735     -0.39512087824938      0.48176609094015
  Br  2.83102268619822     -0.26607303697681     -0.79959800754557
  C   0.57062326948159      1.50126185079238      0.14672832170967
  H   0.30078870571460     -0.61606321659805     -0.74319817399732
  N   0.92468128347815     -0.79172039024900      1.30225939427306
  O   1.26522866430129     -0.15743605821988      2.30144273160845
  O   0.86977043922088     -2.01223376965308      1.21967866122058
  C   -0.32806432545759      2.17399981325420      1.18980164984534
  H   -1.37073201369027      2.16456277323068      0.88127288958598
  H   -0.25181820738975      1.68693831184076      2.15907504867999
  H   0.00687475139032      3.21318632620114      1.29241232885075
  C   0.23178546954872      2.00807386070460     -1.25269357406191
  H   0.94085446828665      1.62765917820160     -1.98974879117043
  H   -0.77808012522543      1.68832256768954     -1.52221824488038
  H   0.26444276651982      3.10178549878930     -1.27070485890179
