11
Coordinates from ORCA-job run
  C   0.67746357702795     -0.00469052555654      0.02166428652242
  H   1.50988609289482      1.89425081462241      0.53592282360934
  Br  -1.74155759431408     -0.35294834270356     -0.20985028183997
  Cl  3.01823706200766     -0.11768341667919     -0.21205142441208
  C   0.62230035863149      1.49189428326748      0.05469694360205
  H   0.71675676690762     -0.64237136484650     -0.83637290729826
  H   -0.26327806274182      1.83119697263774      0.58562133438786
  H   0.57984809163271      1.84689659606590     -0.97550299961686
  N   0.73622100634031     -0.72084549672710      1.31049665928561
  O   0.72227192102119     -0.03105350804206      2.32879715834375
  O   0.79524078059212     -1.94402601203856      1.27454840741613
