14
Coordinates from ORCA-job run
  C   0.48304093116945     -0.02258017484813      0.03106125391492
  H   1.64253134762633      1.76516705818005      0.29942753178235
  F   -1.08754438442778     -0.11302809819827      0.05670248611052
  H   2.38068030250887     -0.16140043203002      0.02021152572454
  C   0.60945193142895      1.49044729655981      0.10933198911639
  H   0.68314564000686     -0.51535541054251     -0.90243692400091
  N   0.83290628429073     -0.80157722120015      1.20219804805100
  O   0.92148124143522     -0.19319523681350      2.28340748913241
  O   0.77757041308151     -2.03495221035342      1.09772906449223
  C   -0.22455768806550      2.06491545380658      1.19119420167638
  N   -0.86377704972185      2.69910262547581      1.94631008651420
  N   0.19870541661419      2.00960210194873     -1.20009183064038
  H   0.19757305337758      3.02290616507411     -1.16378978908240
  H   -0.76142743932460      1.70968808294095     -1.33441513279125
