16
Coordinates from ORCA-job run
  C   0.09071654060176     -0.01414284108780      0.19032367030715
  H   1.62281584612287      1.40976626984567      0.36241308802094
  Br  -1.93290848978880     -0.07836920954340      0.50204346540550
  H   2.20204886125519     -0.34538573844764     -0.81452449675315
  C   0.55572581645506      1.42899960705636      0.13547826274171
  H   0.22427424381349     -0.52924371553030     -0.74720145354253
  N   0.73052824876553     -0.86520234047554      1.24656943625477
  O   0.46603478639771     -2.06237167871113      1.19123945881507
  O   1.41147988971379     -0.32427125430402      2.11131259364715
  N   -0.05440264093852      2.31510957049460      1.19332743188309
  O   -0.16338423938628      3.51456696777928      0.92175268386888
  O   -0.31687756755076      1.83273073240855      2.29053264787471
  C   0.32298718137862      1.99245616563601     -1.24993636357411
  H   0.89913023498396      1.36146769119709     -1.92913811869016
  H   -0.73800478274620      1.96643019317670     -1.50752195546679
  H   0.67727607092262      3.01962958050555     -1.31341035079224
