17
Coordinates from ORCA-job run
  C   0.70008011302620      0.01377836368089      0.06529275758018
  H   1.64902631225471      1.89929251570697      0.29123478372342
  F   -1.26477342049851     -0.15403270592141      0.40650939117284
  Cl  2.68097509814779     -0.25458893807533     -0.56396019864785
  C   0.63337881295592      1.53303770293579      0.12409909587726
  H   0.29588457279049     -0.54663824774024     -0.75274369863749
  N   0.80778383488053     -0.80123451512430      1.29381125720942
  O   1.11300409012061     -0.22816455260262      2.33848344007312
  O   0.63939700907458     -2.00821421887900      1.17821844493874
  C   -0.26225243180639      2.14767840376493      1.19870668399580
  H   -1.28291089594227      1.80788352147672      1.05388525905984
  H   0.06349092151898      1.85352515963625      2.19476346556029
  H   -0.19400292673476      3.23986635877436      1.11651545252464
  C   0.16986896763302      1.97234668170963     -1.26398900997988
  H   0.83536014791769      1.59006437477756     -2.04240571032883
  H   -0.83573987787275      1.57871269134185     -1.42177008945762
  H   0.14708967253415      3.06442740453796     -1.33665132466388
