15
Coordinates from ORCA-job run
  C   0.46506494419464     -0.07077070286783      0.09668380139696
  H   1.57947503183168      1.61261615662657      0.55265660152343
  Cl  -1.53386024555784     -0.50079690577337      0.63786829318832
  F   2.27425377130085     -0.00728605065097     -0.56636226895059
  C   0.55862106783649      1.44503541025053      0.21117557842039
  H   0.36470169135422     -0.60061068334944     -0.82875262789938
  N   1.08817533126429     -0.84899629719766      1.18696034837798
  O   1.42296952484329     -0.23176345442823      2.19650441623730
  O   1.20387404633858     -2.05432658217753      1.02037058651932
  C   -0.40183576213301      2.19613082747350      1.13495014739716
  H   -1.42139302179753      2.19498437255790      0.75687515013643
  H   -0.38986604070023      1.73323706224693      2.12036422403280
  H   -0.05169552245640      3.22942456831477      1.22139119278489
  C   0.48569738509934      1.98794261116130     -1.14609362559691
  N   0.35434779858166      2.48563966781353     -2.20143181756811
