13
Coordinates from ORCA-job run
  C   0.56920660583627     -0.04797099929236      0.02382941760781
  H   1.44914883119856      1.88401528457002      0.40302104165447
  Br  -1.84272198913725     -0.34674297332189      0.09792555491911
  Cl  2.86443701234828     -0.09663278832685     -0.36708192187102
  C   0.50720582340055      1.45110020655023      0.07677344168331
  H   0.52723398202299     -0.65601269492591     -0.85587300279244
  H   -0.29710093501179      1.80547655926729      0.71346123922447
  N   0.75385058795140     -0.72707146021225      1.31417803635962
  O   0.82729968746634     -0.00489967742576      2.30815068432776
  O   0.82270664463986     -1.94826391875283      1.30512048766154
  N   0.24443351096873      2.03036716608349     -1.27384979525984
  O   0.04465593599902      3.24391014128428     -1.28660522517468
  O   0.26534430231704      1.30658515450253     -2.26196995834012
