13
Coordinates from ORCA-job run
  C   0.64056892271544      0.03547611161438      0.07788482600410
  H   1.82277104671082      1.76665403634306      0.33154812681427
  F   -1.05753991642343     -0.01925361026325      0.44164137569171
  F   2.36226974161873     -0.19973642055877     -0.35303400139911
  C   0.79331476682286      1.55233272750599      0.06077130316667
  H   0.43683873823808     -0.58721031986269     -0.77033766493557
  H   0.66416232288436      1.84597429195444     -0.98571976670023
  N   0.93104789518903     -0.68180812056756      1.33455429568035
  O   1.23218676439319     -0.00654777495166      2.32021365495124
  O   0.84565636991594     -1.90362398835051      1.33217243741690
  N   -0.10228607556811      2.34457515919275      0.89800755144808
  H   0.16443290104127      2.14175848911534      1.85466862745501
  H   -1.01009347753816      1.90620941882849      0.79177923440659
