15
Coordinates from ORCA-job run
  C   0.54012589750077     -0.03345824939538      0.03193425735818
  H   1.58469812535115      1.76576351176502      0.38405796580228
  F   -1.19110260924384     -0.12330924014291      0.42328065664378
  F   2.18859258263391     -0.12466613916898     -0.43465560686409
  C   0.56525588090137      1.47718859282012      0.12552092599683
  H   0.27930650987784     -0.58421538081464     -0.85097775430094
  N   0.82582885440096     -0.82506789617086      1.24188306983202
  O   1.12886683867878     -0.20936057551675      2.26132200210361
  O   0.76454297573084     -2.04475654449166      1.14383540886436
  C   -0.32321568822221      2.05357762813252      1.14074644401082
  N   -0.94615594865812      2.69392843457845      1.90302809474278
  C   0.20868749172682      2.03643280057665     -1.25291184163420
  H   0.92461901040037      1.64765950870413     -1.97876235378092
  H   -0.79929411401877      1.71261296713215     -1.51568120745779
  H   0.24640419294011      3.12862058199213     -1.25681006131672
