16
Coordinates from ORCA-job run
  C   0.38296221013684      0.05094461679910      0.15015100953414
  H   1.66699515859853      1.75882655410122      0.18860980648544
  F   -1.11732588703590     -0.00960891858102      0.64082979255070
  H   2.17923166822285     -0.17513801506838     -0.42225500712875
  C   0.60660234335900      1.56741369006065      0.05419700975330
  H   0.27410355172912     -0.57447791968800     -0.71885532966516
  N   1.04889253939255     -0.64438354210768      1.24098264960592
  O   1.43252837531976      0.04654100275246      2.20721577248782
  O   0.97408509248598     -1.88114606366981      1.27688252221934
  N   -0.10224313717710      2.35392691802089      1.06663057317672
  H   0.29077334109491      2.06028847227308      1.95598311602184
  H   -1.05561240849792      2.00732766757028      1.07896824006195
  C   0.18236433134164      2.00910557623178     -1.33624276996796
  H   0.77723545357732      1.49088131887812     -2.09279117870569
  H   -0.87530146796737      1.77512352301929     -1.49470760090374
  H   0.31783883541979      3.08822511940802     -1.43853860552588
