11
Coordinates from ORCA-job run
  C   0.68577810506940     -0.00379752982768      0.02130175843482
  H   1.45997904244145      1.90894438084883      0.58259205291057
  Cl  -1.63852440999531     -0.32966118651319     -0.18148075971402
  Br  3.12218089162764     -0.12373576051662     -0.25066111594038
  C   0.60415735731456      1.49135381237905      0.05873054134032
  H   0.69320590513979     -0.64150052656190     -0.83754015244101
  H   -0.31169131871315      1.81020887472864      0.54956105350410
  H   0.60408163487483      1.85157892339301     -0.97051646287142
  N   0.71213581987052     -0.72497877220833      1.30829652668329
  O   0.66975680278510     -0.03970453559373      2.32888693591463
  O   0.77233016958515     -1.94808768012808      1.26879962217911
