17
Coordinates from ORCA-job run
  C   0.51604183407037     -0.02319319598126      0.07740407168387
  H   1.59569715652703      1.73400497529445      0.37724769842717
  F   -1.15061868041476     -0.22820625147420      0.69423636807618
  F   2.12405607666416     -0.14324926182302     -0.59284845798300
  C   0.55802117372640      1.49187017659121      0.14214687010248
  H   0.16767720566182     -0.58854088986753     -0.76451178870618
  N   0.97652190905504     -0.82161897045607      1.23114316152607
  O   1.40247639740638     -0.21900631432846      2.21593050458308
  O   0.92431507875971     -2.04167451303489      1.13247032155681
  C   -0.34094451326720      2.16357277524320      1.17416516199064
  H   -1.38990238437703      2.01040351243139      0.93265616406408
  H   -0.16184021589170      1.75370652043792      2.16686983582084
  H   -0.11698218360821      3.23866658334688      1.19046220751290
  C   0.25596473929863      2.00200410974466     -1.26494169719746
  H   0.95445190649930      1.55467324212116     -1.97300761882494
  H   -0.76680752988652      1.73161828810525     -1.54592306077944
  H   0.34753202977657      3.09270921364930     -1.31349974185310
