13
Coordinates from ORCA-job run
  C   0.58636156383413      0.02822384568335      0.08694951516645
  H   1.81059156083014      1.71218153503847      0.19964325557021
  Cl  -1.48873717734115     -0.19159384675006      0.22866087046946
  F   2.54338759650821     -0.15832156563609     -0.21775349771763
  C   0.74856702245539      1.54527927165709      0.05371252686447
  H   0.66281464072729     -0.59288071340464     -0.78178477659990
  H   0.49437210058791      1.84132025264942     -0.96833527536553
  N   0.95173085982181     -0.68593497177206      1.32659462303736
  O   1.19225761746140     -0.00244781658405      2.32252536624836
  O   0.95543617670111     -1.90900952128090      1.29923179660244
  N   -0.00443752258425      2.37357788198493      0.98373662185196
  H   0.25831676992409      2.08105506354284      1.91666835469930
  H   -0.98733120892608      2.15335058487171      0.88430061917304
