15
Coordinates from ORCA-job run
  C   0.60089258803636     -0.05203906497160      0.08100406495435
  H   1.59854684087933      1.73740810855887      0.52031873681044
  Cl  -1.64712764306903     -0.48624889875273      0.54587296791996
  Cl  2.71348661882741     -0.13611034353251     -0.74718975606589
  C   0.59552285291261      1.46568859423458      0.18781943332927
  H   0.34429958622658     -0.63129877677391     -0.78186921130769
  N   1.00603310493451     -0.81475420805168      1.27704111219396
  O   1.30119162058532     -0.15990477729190      2.27651929181882
  O   1.03504181268623     -2.03302907064775      1.18429056505822
  C   -0.39525103702892      2.15900930961462      1.13313680314764
  H   -1.41096198208278      2.11710587738349      0.75290582104914
  H   -0.36338068217157      1.68333242985213      2.11029723968921
  H   -0.08033050259016      3.20330022090790      1.22697968564223
  C   0.44020119280022      2.00763604208955     -1.16407396838321
  N   0.26036562905387      2.51036455738095     -2.20989278585643
