16
Coordinates from ORCA-job run
  C   0.67514240137682      0.01610958039170      0.08047348913307
  H   1.62163249206406      1.89055502743265      0.24983916386692
  Cl  -1.64664985495032     -0.34572801881905      0.03862628417518
  Br  3.12298203348076     -0.16689579776093     -0.27235520055192
  C   0.59837894981497      1.53584648055559      0.13301936877047
  H   0.63919221964830     -0.52227646835601     -0.84568799324964
  N   0.79891476426283     -0.84019720491526      1.27715941008243
  O   0.92524868130898     -0.28868094904210      2.36931469446634
  O   0.77504414501272     -2.05057780404488      1.09318275637355
  C   -0.21669033067767      2.17958231408912      1.25779017480313
  H   -1.27121636877445      1.92537544572212      1.17475169068851
  H   0.14495936383522      1.88381837977737      2.24061783870618
  H   -0.10235222365845      3.26514941204480      1.15595558896159
  N   0.16692242148360      1.93060391937480     -1.21008619359728
  H   0.27706446700953      2.93397985109229     -1.30001769312101
  H   -0.82029316123691      1.70986583245781     -1.29155337950751
