14
Coordinates from ORCA-job run
  C   0.62002659228533     -0.02916556289301      0.03105008077806
  H   1.61359263377429      1.78268860526184     -0.09716411501070
  Cl  -1.40344641775616     -0.44968783608936     -0.34142680387085
  F   2.57733447685455      0.04264920532003      0.41073774818305
  C   0.57788553625108      1.48078763375039      0.03523275333407
  H   0.98920422561976     -0.54721159476746     -0.83296523815010
  H   0.00573802126986      1.76664631233786     -0.85205344957515
  N   0.72445649179964     -0.88250393659179      1.23854095802792
  O   0.54457889606151     -0.37530698694148      2.34064109228971
  O   0.93026512747959     -2.07303513597222      1.04037994400635
  C   -0.02379429425160      2.17752361118073      1.24857629388877
  H   -1.01754020305570      1.79180774723697      1.47822246462112
  H   0.60681758851768      2.04523508572015      2.12434904595668
  H   -0.10925867484981      3.24826285244733      1.03296922552107
