13
Coordinates from ORCA-job run
  C   0.58968643025980     -0.04701876305564      0.02226801394791
  H   1.45781371184320      1.89948650653038      0.35858203198289
  Cl  -1.68776492575906     -0.29766818874946      0.11070797410477
  Cl  2.85482598447860     -0.10489272478701     -0.35537335844217
  C   0.51101485875376      1.45042107216845      0.07028726041313
  H   0.52903566028460     -0.65767953477984     -0.85400417651285
  H   -0.27769659154708      1.79500264067349      0.72997624980763
  N   0.75302516090663     -0.72406804380912      1.31726642135297
  O   0.82572101985827     -0.00155704778528      2.31018992872467
  O   0.80668597310595     -1.94567982852801      1.30980564606301
  N   0.19432870435081      2.01519604238479     -1.27445402933235
  O   -0.07537520918524      3.21515352950942     -1.28311706751221
  O   0.25439922264977      1.29716434022779     -2.26505489459740
