15
Coordinates from ORCA-job run
  C   0.75689325824014      0.11095932757725      0.07195795487885
  H   1.72240276589104      2.03753879348528      0.00325099076407
  F   -1.13173771901507      0.07213566639962      0.26498541299037
  Cl  2.90396123745628     -0.18465681101328     -0.25696335287133
  C   0.70637638571921      1.64721592285906      0.00250173617455
  H   0.55501436499724     -0.51098535781195     -0.77706947954971
  N   0.79077181384464     -0.62896623358759      1.35041217080389
  O   1.02424911219876     -0.00217071502608      2.38272652200816
  O   0.59212701778704     -1.83541285738838      1.29384381361727
  N   -0.01966107278402      2.31498679760320      1.07410863076612
  H   0.49771312690226      2.18143145682123      1.93487927121094
  H   -0.87760697018256      1.77794263622023      1.16806585421097
  N   0.10497893014794      1.90888144972329     -1.29815029714573
  H   -0.03908025534983      2.91207721832130     -1.34616267519805
  H   -0.81065199585307      1.47166270581683     -1.24029655266036
