14
Coordinates from ORCA-job run
  C   0.76739945210172      0.02266270810402      0.03676650048647
  H   1.65240169496661      1.97566359735924      0.25405929051042
  F   -1.13738913499911      0.00345910802404      0.02734935233748
  Cl  2.89408671485785     -0.18360271389603     -0.10786406181481
  C   0.66473002971001      1.53735749362027      0.10605113632328
  H   0.62619537061837     -0.49481914397516     -0.89041303370431
  N   0.65263087108977     -0.80785420437645      1.24849064586871
  O   0.74987647862817     -0.24181409526995      2.33328188468410
  O   0.49486148400943     -2.00939564759737      1.07777799814472
  C   -0.19022965407696      2.02806552901789      1.20857257033794
  N   -0.82850238754165      2.63333379041627      1.98774163751219
  N   0.15516388464104      1.95523437274282     -1.19892251856175
  H   0.05900192236457      2.96440280352778     -1.20557675314548
  H   -0.77044672636983      1.53704640230262     -1.24047464897899
