16
Coordinates from ORCA-job run
  C   0.54672942942153     -0.05810625122892      0.10176273188752
  H   1.54533546840711      1.74027301800546      0.56936826869961
  Cl  -1.63196182285574     -0.56983174696949      0.77578383150249
  Cl  2.61064315646235     -0.10017622587137     -0.86442831389338
  C   0.55812777465090      1.44998738384131      0.22204624932318
  H   0.22947608921591     -0.61871522107025     -0.75233732511831
  N   1.05387943803987     -0.80857234436799      1.26408369002979
  O   1.36107758675692     -0.14530473879886      2.25516125208341
  O   1.13945990953653     -2.02257468266871      1.16054302302602
  C   -0.48546851118495      2.15944565980071      1.07191992663872
  H   -1.47828903789028      2.06517463705647      0.64015469308570
  H   -0.49785588892789      1.71522806984512      2.06420871540462
  H   -0.19887979435901      3.21215989422736      1.14351941363051
  N   0.45976970866844      2.03305331887742     -1.15797638646031
  O   0.99371480152586      3.12886749583175     -1.31755019352892
  O   -0.20758830746757      1.44102173349000     -2.00005957631065
