15
Coordinates from ORCA-job run
  C   0.50551351340407      0.07546894266194      0.09064022495805
  H   1.72328407489165      1.85107428973601      0.06672152431448
  F   -1.06228899825906      0.00559960813504      0.28177635216360
  H   2.36181097280767     -0.16478277010226     -0.02978085113556
  C   0.66818623626936      1.59850896010265      0.01020330806804
  H   0.59248612297263     -0.52401869110915     -0.79937199598196
  N   0.99826856012034     -0.62411007805778      1.25877679652280
  O   1.20521224704386      0.04080617460310      2.30287701282128
  O   0.88242566693590     -1.86411731362040      1.26482393946501
  N   -0.01690175045622      2.33389779906806      1.07410122826367
  H   0.43065198157891      2.04521904676102      1.93954231033616
  H   -0.95161680861091      1.93941872349143      1.12043645301369
  N   0.15873625457810      1.97570779982968     -1.30575269348753
  H   0.06272264241887      2.98623983564252     -1.28710690674503
  H   -0.78274071569516      1.59772767285814     -1.35979670257672
