17
Coordinates from ORCA-job run
  C   0.41298706531873     -0.03390296941298      0.10253031021254
  H   1.56115112552874      1.64320546603810      0.41396570932783
  Cl  -1.61105608126026     -0.43107367108652      0.65150360728630
  F   2.23346779703163     -0.08048199243599     -0.62189118188299
  C   0.51362043778608      1.47572157136762      0.16827352800658
  H   0.29134064997893     -0.58856517136794     -0.80550054287559
  N   1.03048839386301     -0.82803406198284      1.18525417194215
  O   1.42518811782669     -0.21929070512342      2.17853711785071
  O   1.09046608173636     -2.04079282099416      1.03199986260836
  C   -0.34065155408918      2.20688569891409      1.20008599736076
  H   -1.39070177937125      2.24496903955676      0.91066178359498
  H   -0.26960027194300      1.73115866857250      2.17737837482378
  H   0.03556777578751      3.23335326947489      1.28592405226414
  C   0.27063832094387      2.00168085590370     -1.24175377849751
  H   0.99013957653810      1.53277383833139     -1.91216368333883
  H   -0.74841556663079      1.77147683324012     -1.56975074981883
  H   0.40102991095483      3.08865615100467     -1.27505457886437
