12
Coordinates from ORCA-job run
  C   0.60150493944899     -0.03269298248714      0.01289300028001
  H   1.36426820867698      1.90664928690252      0.51187833175254
  Cl  -1.66080169593683     -0.41123777845204      0.07231209615630
  Cl  2.86344562608175      0.00747771189276     -0.36550666887033
  C   0.46738631215917      1.46858242938678      0.07672318780868
  H   0.57403257356077     -0.64667649790549     -0.86394361185613
  H   -0.39033472428734      1.74214681565670      0.68912106881870
  N   0.78963278792942     -0.72854354701349      1.29763577681981
  O   0.82526529586578     -0.02337190226690      2.30404599189554
  O   0.89610212043007     -1.94637534582929      1.26591930419819
  C   0.28061550008965      2.01525243734255     -1.26306583178314
  N   0.12494305598161      2.49117937277303     -2.32397264522017
