12
Coordinates from ORCA-job run
  C   0.62845305097457     -0.06882467202568      0.00780080337302
  H   1.82937933004871      1.69068584837661     -0.25812216788502
  F   -1.12358834879108      0.12302501126117      0.06307889561617
  F   2.38469193038049     -0.36144021025528     -0.04022522176772
  C   0.79300718781787      1.42700738858223     -0.06006058160143
  H   0.53268921209643     -0.64444372994573     -0.89389246732321
  H   0.41387935322889      1.90510716805748      0.83807243687155
  C   0.59408881872572     -0.70932644496707      1.30727006903531
  N   0.56672341150566     -1.21143687264926      2.36817356151955
  N   -0.00100135334412      2.00307916138086     -1.18214150544513
  O   -0.63207927627483      3.03517296790851     -0.96173453678612
  O   0.09357668363169      1.46407438427616     -2.28015928560698
