11
Coordinates from ORCA-job run
  C   0.66740168692790     -0.05797867148333      0.01984362433989
  H   1.74054867487044      1.80152679116667      0.08209774215611
  F   -1.11085349489544     -0.02208362567180      0.05402162529707
  F   2.41137900832352     -0.21274465230934     -0.12810301297890
  C   0.70667269934747      1.46142292647968      0.05099302355406
  H   0.58266315272927     -0.57961048921401     -0.91548562995015
  H   0.23219806486134      1.81746689606203     -0.86513174878754
  C   0.69073779708719     -0.81859927044472      1.25435616421369
  N   0.71938348288202     -1.43629172977930      2.25239775205563
  C   -0.02544062418258      2.04448214870584      1.17526674565570
  N   -0.53321044795113      2.60312967648829      2.07362371444443
