13
Coordinates from ORCA-job run
  C   0.49330391228521     -0.01691359135295      0.08524976611913
  H   1.52395765081119      1.81324591630122      0.41509682216565
  Br  -1.99624299361885     -0.21481756870474      0.35973648340578
  Br  2.83979550204806     -0.35296401541675     -0.74743213959739
  C   0.53579884180871      1.49747108102419      0.07585293249592
  H   0.27549183348312     -0.59599645303665     -0.79181944855320
  H   -0.19884425960268      1.86496505038564      0.79445078138371
  C   0.75719344209403     -0.70259080892632      1.31801877561497
  N   0.98124365203098     -1.20492204418692      2.36017326003268
  C   0.24559090865919      2.05629490822766     -1.30792898168877
  H   0.99209767658805      1.70044867861752     -2.02039911195417
  H   -0.74805089646796      1.74451102458974     -1.63573313119907
  H   0.27597472988095      3.14975782247836     -1.29340600822527
