12
Coordinates from ORCA-job run
  C   0.67838614447009     -0.04796525284353      0.07458892969844
  H   1.79735969203114      1.76625191049272      0.38604391571516
  Cl  -1.67443910226349      0.02906068045807     -0.10376273039698
  Cl  2.90854055013887     -0.38302764686226     -0.31805230194570
  C   0.78323739405893      1.45819703211998      0.13754003085953
  H   0.53790778585110     -0.52549917956505     -0.87409271930195
  H   0.46818368133666      1.88043605068830     -0.81168506046082
  C   0.65081752648730     -0.86993500643109      1.24949099242570
  N   0.65017354409279     -1.58232207152636      2.18632869799923
  N   -0.06154810338747      2.11889824199947      1.18079015403270
  O   -0.61696474494879      3.16442684751999      0.85477738474067
  O   -0.03989436786712      1.64341839394977      2.30936270663401
