10
Coordinates from ORCA-job run
  C   0.55641214244766     -0.02202324912807      0.02020390107869
  H   1.75405903624840      1.69353175724054      0.21338997698002
  Cl  -1.56332985752260     -0.14742803200656     -0.13425790848536
  F   2.55549209917271     -0.24845346587330     -0.05783738888318
  C   0.70807840921658      1.47971608763697      0.01588213389799
  H   0.71885870364523     -0.58922825627965     -0.87409903725001
  H   0.05991327697946      1.93111616817935      0.76799426433291
  H   0.41788863319146      1.86896136633986     -0.96085108637979
  C   0.72888418842801     -0.71636220129100      1.27363026025669
  N   0.78125336819309     -1.24039017481816      2.32489488445205
