14
Coordinates from ORCA-job run
  C   0.57400787965711     -0.01779156677514      0.06022858409137
  H   1.70934505450352      1.78041691147489      0.30063528454980
  Br  -1.88315008129958     -0.07906828348549     -0.01573198748047
  Cl  2.88870673499788     -0.32743011831257     -0.32827370152646
  C   0.68382097470808      1.49856012558353      0.06638977773059
  H   0.50326160602355     -0.50031409087096     -0.89602884649915
  C   0.64030121003193     -0.82856118154968      1.23933703390840
  N   0.68179790661489     -1.53819799898573      2.17844022899738
  N   -0.08162766254148      2.11404794504253      1.26530705260575
  O   -0.78689793986790      3.09305405701074      1.03982478259463
  O   0.16930101119048      1.65486181524382      2.37298493172132
  N   0.29254785604211      2.02797736344280     -1.18278812367284
  H   0.43141030487099      3.02840527935360     -1.19941590507578
  H   -0.68864485493156      1.82381974282765     -1.33563911194451
