12
Coordinates from ORCA-job run
  C   0.62065354417493     -0.01433601421773      0.07916512524105
  H   1.14127228157690      1.87722611005400     -0.68596233273736
  Cl  -1.45893709240530     -0.57789828486874     -0.92752240000059
  Cl  2.90568552862670      0.10801017436795      0.59662159402890
  C   0.44597554939698      1.49209152409324      0.07091875185724
  H   0.98443033032554     -0.54315832212177     -0.77894728695704
  H   -0.57093244501135      1.71892734571173     -0.24212043077992
  C   0.29408879773213     -0.76309404208246      1.26022484939659
  N   0.04202860774935     -1.37392232533490      2.23401995253069
  N   0.63741014396918      2.04993920986586      1.40318662754365
  H   0.41324193335648      3.03649567259586      1.38058930249415
  H   1.61253282050846      1.94333895193695      1.65495624738265
