15
Coordinates from ORCA-job run
  C   0.56251835972833     -0.03134537367284      0.00157659929713
  H   1.66244895038444      1.69495894492572     -0.06493729217105
  Cl  -1.53865984056568     -0.39554902975653     -0.19207727777914
  F   2.57683886094580     -0.07879949720485      0.12449935588984
  C   0.59495955990680      1.49070146502350     -0.00559217103613
  H   0.80404512898273     -0.54077879400259     -0.91275067754548
  C   0.74476910834574     -0.73854172918894      1.24476847614819
  N   0.77627848825839     -1.28770834526613      2.28475218759589
  C   0.03738348009495      2.09542000300538      1.27999232715346
  H   -1.02090286777419      1.85303785302981      1.39958245026083
  H   0.58101336633906      1.73207362683476      2.15556555193412
  H   0.14456667481013      3.18498147143588      1.24094304814997
  N   -0.01548249839112      1.99908419539818     -1.23604884587004
  H   0.13804749959333      3.00093515070033     -1.26654243509750
  H   -1.01542427065873      1.83688005873831     -1.19172129693010
