12
Coordinates from ORCA-job run
  C   0.63659765683280     -0.04855152117520      0.02774856169511
  H   1.84605666418901      1.66234873940607      0.48574212187678
  F   -1.14244222109693      0.13706783653428      0.17857083676894
  F   2.32723860453150     -0.29454275109713     -0.29011374176659
  C   0.83527632719972      1.44428858218975      0.14987338768039
  H   0.42326616722380     -0.48503138811451     -0.93024841708804
  H   0.62591518091359      1.91047603402545     -0.80853970044735
  C   0.66004784530446     -0.91145492812963      1.19229532909333
  N   0.70133474972041     -1.64414756061864      2.10864049787541
  N   -0.07285915658297      2.10476521074138      1.12937076523705
  O   -0.76677650346497      3.03864676583948      0.73137120551051
  O   0.00810468522957      1.73807498039868      2.29661915356447
