13
Coordinates from ORCA-job run
  C   0.19597443120556     -0.08098807984546      0.18146829125752
  H   1.61498322012599      1.45556123773214      0.77724518580374
  F   -1.14816968008623     -0.04818959063962      0.96731386165717
  H   1.80386216897008     -0.08612708880257     -0.75977035122150
  C   0.68900256658841      1.36319475565443      0.21720974970816
  H   -0.16118515537490     -0.43210610312490     -0.77566665491594
  C   0.97869717511216     -1.02921784674261      0.94653731064965
  N   1.47188013376981     -1.81510292142656      1.67423918700095
  N   -0.31140609846002      2.24154397406163      1.05228995051809
  O   -1.27418188210358      2.73998118585475      0.48329598910974
  O   -0.03661388214730      2.35992492892227      2.24310780283280
  C   0.79530913444774      1.98432128849551     -1.09595818805577
  N   0.82627786795228      2.59091425986097     -2.10391213434462
