11
Coordinates from ORCA-job run
  C   0.56412558006165     -0.04619434180543      0.04789696201024
  H   1.50882450604067      1.84107026709145      0.45454511073238
  Br  -1.90677857839970     -0.27800250064330      0.17740274686412
  Br  2.96148571217781     -0.23136347029103     -0.58473148870745
  C   0.55426152139074      1.47524009417983      0.07344482646936
  H   0.42962452644483     -0.61297351410487     -0.85238440188473
  H   -0.24649865520921      1.82576215085706      0.72626231302691
  C   0.76564417338423     -0.71713158196481      1.29811449381112
  N   0.93496330216085     -1.21385824281848      2.35306422302907
  C   0.34314201120990      2.03604534669582     -1.25737486517736
  N   0.17138590073824      2.52261579280375     -2.31121992017366
