15
Coordinates from ORCA-job run
  C   0.64805388139393     -0.06224695942549      0.03932170066550
  H   1.66942530077618      1.57448419510394     -0.71939155381030
  Br  -1.11939029046630     -0.91370074314116     -1.24585274486633
  F   2.41043693073947      0.11531677757602      1.01675910139987
  C   0.71367149995145      1.45656012833668     -0.18985438709405
  H   1.30561607067767     -0.70508041422343     -0.51169257440289
  C   0.14718087925708     -0.56881248502103      1.29431067886795
  N   -0.28876377136518     -0.99895610972318      2.29872026371262
  N   0.74128702187223      2.09051681167317      1.12779543697941
  H   0.92739465076021      3.07918388065978      0.99951989026881
  H   1.54405825861817      1.65877250209036      1.58447590390826
  C   -0.39082771747879      2.10630785395646     -1.00973014664368
  H   -0.43615312308394      1.71103267752685     -2.02308861083255
  H   -1.35791271193920      1.95607247016784     -0.53087753251680
  H   -0.18682687971299      3.18321941444322     -1.06237542563581
