13
Coordinates from ORCA-job run
  C   0.61530713195242     -0.02112799965774     -0.00004779452630
  H   1.75216456318586      1.76625316591928      0.02613958957561
  F   -1.13103551035596      0.00522299415688     -0.03201388400240
  F   2.42804440789199     -0.19725554112031      0.00468756234943
  C   0.69779993990124      1.49868377122359      0.01335475715119
  H   0.63916830283237     -0.52003923557499     -0.95156725281314
  C   0.62412766116894     -0.78767047172186      1.22852160993872
  N   0.60054350956921     -1.41095047821892      2.22339409925121
  C   0.06982835363167      2.05398374238366      1.23317004328068
  N   -0.39513388163053      2.61718590817272      2.15363402597325
  N   0.07442565306571      2.01136382950582     -1.20628319560982
  H   0.02847820565614      3.02268749569475     -1.15688612305206
  H   -0.86981833686906      1.64022281923710     -1.18828343751639
