11
Coordinates from ORCA-job run
  C   0.57129463261982     -0.05041333620599      0.03038478681825
  H   1.75987067732410      1.66567104137505      0.08795721349799
  Br  -1.69365467439881     -0.22889443999160     -0.20429682129073
  F   2.57051344913049     -0.14170580829665     -0.03949803713321
  C   0.68900257146641      1.46426818197022      0.06569730547910
  H   0.75432129252370     -0.55507038652995     -0.89794312042759
  H   0.24997963423322      1.87641620305760     -0.84507363873287
  C   0.73913383115443     -0.79748256337535      1.24885104237827
  N   0.80843194560437     -1.39312643473092      2.26075930652376
  C   0.04460288952724      2.09494582175818      1.21439785465885
  N   -0.41201624918498      2.66611172096940      2.13264410822819
