13
Coordinates from ORCA-job run
  C   0.33025375599145     -0.05936203573046      0.06105938835865
  H   1.67417494475934      1.55786188613512      0.36011511028137
  Cl  -1.62310170585060     -0.14088578608750      0.13921896653458
  H   2.36297784818626     -0.26434892189299     -0.01635888974774
  C   0.61904266670778      1.44532530356149      0.09840216611146
  H   0.51497296657577     -0.47576444186469     -0.92009645359686
  C   0.95248923020326     -0.86155002870072      1.10420175537983
  N   0.99409203733355     -1.59352465048775      2.03725125925424
  N   -0.15602799034198      2.15387412471928      1.18472642583420
  O   -0.81935282922544      3.14297982712542      0.88682140827963
  O   0.01136429234141      1.70852242419033      2.31323916018304
  C   0.36397801999737      2.07253181664582     -1.19088935941051
  N   0.21956676332185      2.55805048238664     -2.25029093746190
