15
Coordinates from ORCA-job run
  C   0.73868361915490     -0.03235850914207      0.02757589753165
  H   1.67321361865417      1.88332702335110     -0.24545060364661
  F   -1.22807978763344      0.03371719578039     -0.08210497715497
  Cl  2.83585896162688     -0.32053223799365      0.10203692954491
  C   0.68462100622268      1.48811337476649     -0.00236498603583
  H   0.62243329302195     -0.55712649810826     -0.90272716649570
  C   0.42744763001079     -0.72810690234313      1.25207145468888
  N   0.26243897433294     -1.28506919591159      2.27438009287669
  C   0.15505049564529      2.10031555192744      1.27142944638927
  H   -0.84957768751472      1.71990845513344      1.43879171308572
  H   0.80604990158584      1.81057026578865      2.09958749468393
  H   0.13800711572222      3.18749318932204      1.19669703034048
  N   -0.13474510936137      1.90056790973746     -1.20149978594218
  O   -0.93703979449294      2.81921059670656     -1.07548613398547
  O   0.14792776302480      1.36071978098512     -2.26575640588077
