14
Coordinates from ORCA-job run
  C   0.45793707773564     -0.03488998238595      0.04391871953061
  H   1.71811515110626      1.61507699544178      0.24081774348679
  Br  -1.78386843664626     -0.16481597758027     -0.03344529813061
  F   2.49882111065711     -0.14133102880994     -0.10447323021154
  C   0.65689758028728      1.47051582290194      0.04497421296709
  H   0.61043796311268     -0.49665365858387     -0.91431619990758
  C   0.71808867250961     -0.84983006522159      1.20162178115237
  N   0.82467560906378     -1.56104926001408      2.13260998819271
  N   -0.04662624534077      2.12142801844692      1.25197939253696
  O   -0.75892274558758      3.10274892397197      1.04348181711684
  O   0.22193156689486      1.66798405188828      2.35904570003354
  N   0.26734935287946      2.04294232948578     -1.19079290074206
  H   0.48068227135601      3.03055392858729     -1.19463804000465
  H   -0.73133892802811      1.92709990187171     -1.31551368602046
