14
Coordinates from ORCA-job run
  C   0.71764768109753      0.04898604634354      0.04976755323094
  H   1.53632093036123      1.78769733943564     -0.80397627612169
  F   -0.63013168456211     -0.35434326195112     -1.09917110524567
  F   2.21437812023655      0.09245718169545      1.05255930437169
  C   0.69127277703383      1.58911041868086     -0.12602126581551
  H   1.29370798948125     -0.57422076457602     -0.60523767551662
  C   -0.03647428547267     -0.55053600734827      1.13204278009079
  N   -0.65013418152493     -1.03268318567973      2.00970088975553
  N   0.84627109888506      2.22303344367941      1.17460673189576
  H   1.00404045142296      3.21075832163433      1.01577293483256
  H   1.66147359130809      1.79943214109266      1.60154086596758
  N   -0.50571167118338      2.16733355804239     -0.71625180670418
  H   -1.19079814040272      2.15310729174022      0.03462322672183
  H   -0.83199267668071      1.47132747721062     -1.38088615746303
