14
Coordinates from ORCA-job run
  C   0.58167779369359     -0.01406041983780      0.05918405892857
  H   1.70223812055204      1.80225615113562      0.29907971487935
  Cl  -1.76517232979943     -0.00388234338845     -0.00689867594833
  Br  2.99433947123962     -0.38735224267641     -0.34740739234208
  C   0.68096956736958      1.50386289938120      0.06639454937266
  H   0.48289270654876     -0.49535817958584     -0.89534592813657
  C   0.60526960581401     -0.82601197755109      1.23894510044963
  N   0.61227904207556     -1.53895410129583      2.17653448106427
  N   -0.09034911344658      2.10826361162037      1.26596182409145
  O   -0.81076354199312      3.07602517498829      1.04227750083412
  O   0.17436382616073      1.65532737044973      2.37292582435401
  N   0.27861425663978      2.02613027270099     -1.18270803332422
  H   0.38468041502431      3.03072536995007     -1.19329269758650
  H   -0.69685981987884      1.79280841410914     -1.33038032663639
