11
Coordinates from ORCA-job run
  C   0.60179415852832     -0.06057558947966      0.00042623335758
  H   1.64809782923608      1.80270554024827      0.21300736879646
  F   -1.15415254913176     -0.06331961664467      0.15268312439510
  F   2.35626753708622     -0.19500138816890     -0.24557720233555
  C   0.63233847276707      1.45730235584562      0.02759493109887
  H   0.48463746703433     -0.61257909744895     -0.91353679478027
  H   -0.04096156106967      1.81065249304815      0.80893249235404
  C   0.73131007097612     -0.75823169172584      1.26519952194743
  N   0.83579172743613     -1.29845170220386      2.30238348278599
  C   0.16489701225249      2.01504739611470     -1.23824514897152
  N   -0.17984016511532      2.50366130041514     -2.24784800864814
