16
Coordinates from ORCA-job run
  C   0.69916369129599     -0.00627355043149      0.02952876872601
  H   1.71993861795430      1.86963991950073      0.10405606824457
  F   -1.36003884671657     -0.05313247071424      0.15714983963456
  Br  2.86463021088014     -0.45763661878655     -0.49253188714470
  C   0.68368609063314      1.52681888701219      0.05394037366967
  H   0.33619169129590     -0.52682334469738     -0.83645358502152
  C   0.61888437132590     -0.72560375206073      1.27728996553413
  N   0.62895988789333     -1.27875764353682      2.31592959893594
  C   -0.05840252606086      2.08530335449162      1.26565636365198
  H   -1.08298399676470      1.72110601591284      1.24033918474251
  H   0.40911936610571      1.75717701205142      2.19842754773031
  H   -0.02872908952090      3.18058918344495      1.23787320820885
  C   0.06584644765762      2.00982785280661     -1.25349263971619
  H   0.64070166605555      1.64281118041595     -2.10984946451410
  H   -0.94943806052859      1.61734897265718     -1.30004106226111
  H   0.05225047849402      3.10416500193375     -1.29684228042092
