12
Coordinates from ORCA-job run
  C   0.52732315806277     -0.06018162959728      0.05210158410124
  H   1.57829683100809      1.80396223584030      0.31561399973056
  Br  -1.91816644859810     -0.17396481265362      0.31190571198737
  Cl  2.77516881193901     -0.28676498191256     -0.59669458637733
  C   0.58173986583885      1.44450091985108      0.06877359980770
  H   0.34595528087142     -0.61224829602358     -0.84911868024389
  H   -0.15014669973490      1.87210940057290      0.74937699230916
  C   0.76753918718127     -0.72248162083133      1.29940680528198
  N   0.97143137115432     -1.21294755736187      2.35042920287534
  N   0.27195921414020      2.03512282061902     -1.26889382487602
  O   0.22331289803669      3.26394984497733     -1.29055740435587
  O   0.10540653010036      1.30162367651961     -2.23428340024023
