13
Coordinates from ORCA-job run
  C   0.48210880071728     -0.03221103264716      0.00320872592218
  H   1.71828965023994      1.72873452834482      0.03749923573336
  F   -1.14212421610535     -0.01363186423637     -0.05935785156335
  H   2.38177001188752     -0.27567450069980      0.08288522626249
  C   0.65998515821630      1.48777754960021      0.01517330939876
  H   0.69001361724670     -0.51657012025193     -0.93754381843571
  C   0.76666808571490     -0.78297148423491      1.19499059258894
  N   0.71441535647898     -1.39343664965489      2.20771908212385
  C   0.03997887109404      2.05799826415598      1.23458579980924
  N   -0.42866681231693      2.62698276916779      2.14973047698817
  N   0.06743054591896      2.02817484943911     -1.20835869073445
  H   0.08356764431014      3.04079320963341     -1.16589102282096
  H   -0.89953671340247      1.72259448138373     -1.20682106527252
