12
Coordinates from ORCA-job run
  C   0.48301373290736     -0.02662721858852      0.02337417483252
  H   1.69412544505902      1.63356645127425      0.09328887670293
  Br  -1.74400031397705     -0.25993240334323     -0.00939043204452
  F   2.56947123162912     -0.19459731421227     -0.10063976855773
  C   0.61974709662798      1.47976315386098      0.02374756156024
  H   0.67595440747793     -0.54357031453330     -0.89854560270629
  H   0.11989213229152      1.87232498927994      0.92158070549417
  C   0.79159800344019     -0.71939553557378      1.25026394341902
  N   0.91003109458997     -1.24755763354245      2.29516568556906
  N   0.12577219059540      2.05100463431143     -1.22676338397270
  H   0.41108510784182      3.02151975590666     -1.27072460303552
  H   -0.88676012848324      2.02078143516028     -1.21846715726118
