14
Coordinates from ORCA-job run
  C   0.60039401713190     -0.06954340133680      0.00171101784748
  H   1.65949462594953      1.70494689560791     -0.11489659624622
  Cl  -1.52185131298872     -0.41247050851423     -0.24311960063605
  F   2.53877879777156     -0.03652137944354      0.15091784592169
  C   0.60054462737683      1.45788122428564     -0.02328655981570
  H   0.82825988421289     -0.61645957663228     -0.89405930334364
  C   0.70112677878992     -0.74652679869324      1.27049031985510
  N   0.72114103300483     -1.27087162385624      2.32283012502741
  C   0.04931337958493      2.07881353517386      1.25866405696021
  H   -0.98365777927915      1.77121871404276      1.42148851832504
  H   0.65766478682998      1.75346269277374      2.10421868363915
  H   0.09373981367581      3.16863343861386      1.19405119431164
  C   -0.07246562238325      2.00360800549528     -1.20349052270870
  N   -0.52983302967705      2.54310878248330     -2.14137917913741
