15
Coordinates from ORCA-job run
  C   0.64019426950229     -0.00682221753197      0.02547569557842
  H   1.66866156138963      1.82316263443414      0.04391308460957
  Cl  -1.68610322280979     -0.30907783008224     -0.08520257815948
  Cl  2.98964045493701     -0.28933807113768     -0.22318131196578
  C   0.62294804364949      1.51701611182043      0.03943933177843
  H   0.63172630506468     -0.53685976599175     -0.90755787658657
  C   0.69968004731013     -0.72935896985319      1.26347246887679
  N   0.72947004458126     -1.26123995645388      2.31373042980168
  C   -0.02342105023050      2.10132732271658      1.29732023510164
  H   -1.08115102538530      1.84511184091382      1.34772919474034
  H   0.46925909022139      1.74117926636211      2.20460668002723
  H   0.08038441786754      3.19111396623698      1.26623863318604
  N   0.05990037441976      1.98276845403407     -1.22431618202885
  H   0.15977211844603      2.99032142657892     -1.26814583427249
  H   -0.92856142896362      1.75604578795366     -1.23151197068697
