14
Coordinates from ORCA-job run
  C   0.34817642171190     -0.00855547103596      0.23190917300792
  H   1.60096665468244      1.76573778714902      0.38498759659001
  F   -1.02368956589447     -0.14090657221641      0.96311265683212
  H   2.07477854466919     -0.06490239480451     -0.68706371623045
  C   0.57484465228515      1.51562288140902      0.14663212054082
  H   0.10566647981598     -0.52081590427797     -0.68379469769381
  C   1.30673379891286     -0.67383922921680      1.08640513405074
  N   1.83135193802691     -1.20943982558299      2.00332179264042
  N   -0.34652165259575      2.32830225933936      0.91279352433558
  H   0.09018629752685      2.55591399584894      1.79538916137364
  H   -1.16124429525950      1.75911038425680      1.10666807274642
  N   0.40800316099751      1.95958374485751     -1.28562812266687
  O   1.16981957880457      2.82709688807632     -1.70201341101661
  O   -0.54931201368364      1.50395145619770     -1.90847928450993
