10
Coordinates from ORCA-job run
  C   0.63171255564510     -0.01349523500580      0.05292950176192
  H   1.63333010259896      1.82573184951822      0.52409098363905
  Br  -1.87060022074272     -0.17039855671267     -0.04732292991876
  Br  3.06313934623659     -0.37968745974392     -0.46085740285892
  C   0.70550581047046      1.49620394911139      0.05929160927761
  H   0.53265054978919     -0.59077658906185     -0.84383506085926
  H   -0.14278762120909      1.91248925825494      0.59994431401273
  H   0.68305101291054      1.85731610400951     -0.96867266319604
  C   0.70735884021728     -0.70781270636872      1.30722187844565
  N   0.77414962408368     -1.22013061400109      2.36615976969600
