12
Coordinates from ORCA-job run
  C   0.60784574380340     -0.01316735688045      0.08703461818594
  H   1.13028896713763      1.86942305345919     -0.69739117935993
  Br  -1.58232695564612     -0.62234659446519     -0.98430952423656
  Cl  2.92440359599993      0.10187738570708      0.58392489464691
  C   0.44786002349771      1.49642217068432      0.07734534908434
  H   0.97432983074656     -0.54724224452189     -0.76717359780531
  H   -0.57267200645214      1.73663807883926     -0.21367405335960
  C   0.30134813488374     -0.75480436418959      1.27757368448557
  N   0.06348939040906     -1.35864756250086      2.26003345945830
  N   0.67338938390981      2.05576369371323      1.40311609152339
  H   0.44558828030672      3.04151934366037      1.38658947851003
  H   1.65390561140368      1.94818439649452      1.63206077886692
