11
Coordinates from ORCA-job run
  C   0.39442301686001     -0.05305073207402      0.05490621880338
  H   1.43442290727284      1.73108060926935      0.54502808765959
  Cl  -1.66518566505750     -0.32278039201179      0.41384475427274
  F   2.28954318333821      0.01598092829205     -0.50136203389795
  C   0.48474642760898      1.46434756712441      0.08536575218059
  H   0.36476232588397     -0.57607938185525     -0.88151702740057
  H   -0.34244223957201      1.91014116191883      0.64087373379038
  C   0.91851772987459     -0.75446826866224      1.20110651065109
  N   1.27607766554817     -1.30229020187111      2.17773382091849
  C   0.48275800010413      2.00292934277780     -1.27121765466016
  N   0.44255664813861      2.48539936709197     -2.33974216231758
