13
Coordinates from ORCA-job run
  C   0.69704880574404     -0.06717324920122      0.07751066888430
  H   1.54643322344494      1.68998442079598     -0.69034233477740
  Br  -1.41989629686671     -0.82964160217276     -1.12712124656102
  Cl  2.86571066877688     -0.01615841474329      0.81124859551630
  C   0.65123123977189      1.45637293392022     -0.09756048899839
  H   1.06221967565980     -0.69158994955439     -0.71303966312387
  C   0.18088178385516     -0.65452794217668      1.27932504210870
  N   -0.18045305805527     -1.11787230790541      2.30027524045185
  N   0.64319913873065      2.09625540422378      1.21702065994254
  H   0.61022025456344      3.10090474481331      1.09117132340932
  H   1.51449966941399      1.85384581136552      1.67597289105809
  C   -0.48640999815312      2.01473813941098     -0.84401289162434
  N   -1.25456510688570      2.71025201122396     -1.39924779628609
