11
Coordinates from ORCA-job run
  C   0.58572053039742     -0.05273123598104      0.02446425464735
  H   1.74348738132685      1.69811737888485      0.05311588807118
  Cl  -1.54860050255769     -0.18634663896758     -0.18461816807541
  F   2.53784853152433     -0.14873681719645     -0.01677830646638
  C   0.68055180377740      1.46257484418405      0.05454818938008
  H   0.74431749182204     -0.56328183188693     -0.90476534396329
  H   0.20496342318738      1.86346388021554     -0.84230894238565
  C   0.71895946196162     -0.79951697468661      1.24882990153203
  N   0.76823095723794     -1.39575211887942      2.26076730614438
  C   0.04746320425358      2.08017587398172      1.21681501818823
  N   -0.40146228293087      2.64275364033189      2.14381020292748
