11
Coordinates from ORCA-job run
  C   0.40955672409923     -0.04868986715336      0.05110528810728
  H   1.54452033554686      1.68694758659812      0.43313843936569
  Br  -1.80158491036883     -0.30933432166562      0.23330142906486
  F   2.40482998256079     -0.04987176661474     -0.35984547366266
  C   0.54251555832641      1.46689945999747      0.06942078969540
  H   0.48911238814033     -0.57707539970341     -0.87997987405804
  H   -0.21558414422521      1.92619925346848      0.70720711219587
  C   0.85233578120748     -0.73603453074371      1.23848793314530
  N   1.12399520068281     -1.27051330646279      2.25035154895364
  C   0.41894501760042      2.01686316365812     -1.27621243523249
  N   0.31153806642974      2.49581972862146     -2.34195475757481
