14
Coordinates from ORCA-job run
  C   0.36234283575136     -0.08735193852820      0.09018591265322
  H   1.60335988844487      1.56367457473483      0.62737916689169
  Br  -1.84796681986673     -0.35611523772143      0.74780620857897
  F   2.09984209582715     -0.00931219841681     -0.72752968699155
  C   0.61965151410483      1.39503127718016      0.20723830847466
  H   0.09107253226066     -0.48679472125738     -0.86742633644722
  C   0.93358763654206     -0.93981646218708      1.09639577530933
  N   1.38953144081027     -1.64377378140428      1.92075613668206
  N   -0.32777744081248      2.19784745931067      1.07142801158747
  O   -1.14126103735529      2.93906055370212      0.53482114005174
  O   -0.14934712362049      2.05172775804658      2.27449932837533
  N   0.61223692295886      2.04261254630480     -1.13941179049272
  O   1.30124114138558      3.05488429245716     -1.23185384405803
  O   -0.10244358643064      1.57350587777887     -2.01384833061498
