11
Coordinates from ORCA-job run
  C   0.69685665945300     -0.03914743695942      0.05790452968598
  H   1.71890236331593      1.85803695153117      0.08042954399756
  Br  -1.81258689443656     -0.16053117662963     -0.20832610800019
  Br  3.11093737350594     -0.37030498371832     -0.23580939837803
  C   0.69342183645884      1.48595824272711      0.07182154667817
  H   0.62783578816784     -0.57411921855883     -0.86871309605898
  H   0.19895166826891      1.83288343148350     -0.83659601650299
  C   0.65976826151234     -0.76803861944805      1.29064226770543
  N   0.64355078733670     -1.33723737837727      2.32242048548716
  C   0.00536484598760      2.06474602163882      1.22518138504226
  N   -0.46152268957053      2.60847416631094      2.15492486034363
