12
Coordinates from ORCA-job run
  C   0.31502794500475     -0.05278264233838      0.09049931158071
  H   1.16805802948646      1.82699825943386      0.67021163878597
  Cl  -1.69818404746424     -0.42449679014965      0.63297239371807
  F   2.16932738289779      0.13218213573016     -0.53404984327655
  C   0.33979706425121      1.45455467745864      0.07927279890715
  H   0.23008258611685     -0.57561777152547     -0.84320317758025
  H   -0.60634040019452      1.90145254765556      0.38877249227694
  C   0.94499833160772     -0.71425260926451      1.20552840754851
  N   1.38776433009622     -1.24103510079627      2.15844266235059
  N   0.57569813965696      1.96245983694307     -1.30298654145146
  O   1.19949523499945      3.01626896731741     -1.39952372887537
  O   0.05409540354133      1.36694848953556     -2.23787641398428
