12
Coordinates from ORCA-job run
  C   0.53886500601514     -0.06020021059056      0.04961533258093
  H   1.56400290848238      1.81752092792118      0.31410332640857
  Cl  -1.77057911664795     -0.14788141518764      0.27006608227675
  Cl  2.77244713120725     -0.28290960494663     -0.55143558911712
  C   0.57305690195122      1.44359705868886      0.06699134025913
  H   0.36152378885536     -0.61413664367541     -0.85068349764647
  H   -0.16831704055366      1.85646610112913      0.74549893555936
  C   0.74531603259566     -0.72007929332922      1.30535281900221
  N   0.92094613850187     -1.21491109201479      2.35867526753203
  N   0.25401623652128      2.02770918445313     -1.27050377291696
  O   0.16637144283801      3.25445962617972     -1.28950625687480
  O   0.12217057023344      1.29304536137222     -2.24011398706361
