14
Coordinates from ORCA-job run
  C   0.40865433497753     -0.06010823311819      0.07078423165123
  H   1.63128464167245      1.61054061477442      0.30188238618400
  Cl  -1.71639462441905     -0.22018556312506      0.43431720103237
  F   2.23451318603026     -0.14201343945322     -0.57944505062156
  C   0.56756343818282      1.45458561869699      0.11532623359524
  H   0.27600455463832     -0.56027037949028     -0.86813661628501
  C   0.85669257556761     -0.82888791738296      1.20364855994199
  N   1.20091014004829     -1.42975695024132      2.15374825757722
  C   -0.16247591129771      2.12929787111464      1.19300099010566
  N   -0.64421520203552      2.79167830038162      2.03521097969938
  C   0.22623219513952      2.04553099879016     -1.24970333755857
  H   0.90425778091586      1.58899427862129     -1.97139992929455
  H   -0.80976419053435      1.82146296467567     -1.50975441092341
  H   0.36801708111395      3.12890183575624     -1.25268949510399
