10
Coordinates from ORCA-job run
  C   0.69408657532985     -0.02858117487764      0.00722503218871
  H   1.47510092349693      1.85240926891166      0.68785232909799
  F   -1.29674092756965     -0.04894795076424      0.31494687406498
  Cl  2.72681200755195     -0.37329618087117     -0.52205414938624
  C   0.70532315084999      1.48058442551110      0.01040686895864
  H   0.31343783049589     -0.56633242588816     -0.83804306524664
  H   -0.28353140232111      1.80489009621466      0.31981856856094
  H   0.93318509243507      1.84480052533928     -0.99212311220346
  C   0.67999718928853     -0.71409666120740      1.27703538541029
  N   0.76983956044255     -1.24198992236806      2.32388526855480
