13
Coordinates from ORCA-job run
  C   0.59359355598663     -0.06017470199154      0.05546832826839
  H   1.70192695873599      1.73979027353095      0.39194258368676
  Cl  -1.75301594025404     -0.03287422801437      0.15384186069475
  Cl  2.76297913586884     -0.29978516623092     -0.53849708175321
  C   0.68377530910902      1.45644033769113      0.11723730945511
  H   0.35697783804725     -0.53858093132091     -0.87456931180345
  C   0.70604864024583     -0.85614832084277      1.24160572665360
  N   0.79983305116261     -1.54864979266613      2.18884126945229
  N   -0.14589187548755      2.10285703684013      1.21671115860857
  O   -0.83396692183244      3.07108034094892      0.92665745652165
  O   0.05289482449616      1.65570496417933      2.33729626565026
  C   0.35655136580640      2.04012412185632     -1.17636002910568
  N   0.16272405811531      2.51392606601990     -2.23277553632908
