15
Coordinates from ORCA-job run
  C   0.63683231469036     -0.00575242492002      0.03078840246378
  H   1.67155427560287      1.81300284116669      0.05036275038838
  Br  -1.82299495653243     -0.38308691732520     -0.10347349170431
  Cl  3.01243120869382     -0.28877438072984     -0.24296499179791
  C   0.62219747558530      1.51740048893221      0.04366724438822
  H   0.63909865526890     -0.53578165536434     -0.90270045914658
  C   0.72000387785537     -0.72573043117615      1.26826237723219
  N   0.76791553060311     -1.25258062522344      2.32118238257956
  C   -0.02169170168543      2.10883805787474      1.29968862478484
  H   -1.08355938792723      1.86660567582104      1.34415432017188
  H   0.46127820491553      1.74084311335475      2.20903379269559
  H   0.09559819798103      3.19731520302723      1.27052189496000
  N   0.06814533419159      1.98759413471704     -1.22204907985225
  H   0.19123270176713      2.99227316261193     -1.27353185827670
  H   -0.92564173100993      1.78318375723334     -1.23093190888670
