15
Coordinates from ORCA-job run
  C   0.67259758153061     -0.05912280706744      0.03500003906003
  H   1.68104163812367      1.60488675629968     -0.67902042762714
  Cl  -1.02311619163380     -0.81339147955718     -1.16756460620890
  F   2.37993343966720      0.12049746189500      1.00937607128414
  C   0.71328888150821      1.46111987409976     -0.17893072429120
  H   1.30961167943811     -0.69290853935776     -0.54938441825096
  C   0.15953035448539     -0.59700893759119      1.27275194432089
  N   -0.27782030765883     -1.05172622714593      2.26483180338404
  N   0.68972976277922      2.08804844314879      1.14250024014463
  H   0.85634870873026      3.08145964307800      1.02538967419896
  H   1.48690365975688      1.67623894888362      1.62344341628570
  C   -0.38000225817767      2.08815923140759     -1.02938577517844
  H   -0.39041110204656      1.68829388970198     -2.04174662852555
  H   -1.35670089772269      1.91961590454287     -0.57859390967263
  H   -0.19368494878002      3.16850783766219     -1.08062669892357
