14
Coordinates from ORCA-job run
  C   0.54946593989358     -0.01292708098245      0.01124833762918
  H   1.76496538837947      1.74209892283671      0.20777105400891
  F   -1.17725627702678      0.12764153876635      0.01566697529823
  F   2.35953001599969     -0.25365909452756     -0.08392704456355
  C   0.72318315963865      1.49393563572932      0.02467920766445
  H   0.52625396457519     -0.49094601842155     -0.95063039872481
  C   0.56635416979771     -0.84531635237155      1.19509137147635
  N   0.53802404910430     -1.58005920442263      2.11063299226629
  N   -0.00648928287899      2.08510651982157      1.24858542886735
  O   -0.85181869082014      2.95808721195973      1.06241174880261
  O   0.37110654486455      1.69952948185236      2.35011283177840
  N   0.23933339238988      2.03404584879118     -1.19611248718169
  H   0.25562853490507      3.04430940538712     -1.15904056362793
  H   -0.72410090882216      1.72793318558140     -1.27121945369376
