12
Coordinates from ORCA-job run
  C   0.63090526888629     -0.07258298210356      0.04119176313498
  H   1.66351921784308      1.78885262996446      0.24288981566906
  Cl  -1.70052110157604     -0.15454127501530      0.08081536520782
  Cl  2.83599007366301     -0.24759123451874     -0.46623832387376
  C   0.63137227792596      1.45817306161836      0.08945330920528
  H   0.46588434494770     -0.59769917835026     -0.87854368506345
  C   0.73599233159095     -0.78199380021223      1.28135435052264
  N   0.84845490500554     -1.33328333764421      2.31549578774372
  C   -0.14668191084143      2.03184730849920      1.19514594800769
  N   -0.62569914327619      2.59514016385720      2.10752074381118
  C   0.19400896277822      2.01084023921751     -1.19415412616841
  N   -0.08907522694710      2.49532840468758     -2.22498094819676
