12
Coordinates from ORCA-job run
  C   0.59527950641615     -0.00910424713532      0.03658351136104
  H   1.62734066206790      1.83895322381666      0.25929912421714
  Cl  -1.71715948195683     -0.14496625218451      0.04219206447653
  Cl  2.93359775463965     -0.31292278306923     -0.34979535521398
  C   0.60986512892658      1.50329788672012      0.06664864833870
  H   0.54545589267184     -0.54298763233941     -0.89289543858533
  H   -0.02658578881816      1.81866675353151      0.90304198835910
  C   0.70523586907243     -0.72126296989619      1.27790102527208
  N   0.77318550384977     -1.24777405105823      2.32846016182517
  N   0.18259254316481      2.02124637297030     -1.22587554329309
  H   0.35626189798068      3.01779808999017     -1.25589268811930
  H   -0.81513948801481      1.86633560865414     -1.30677749863807
