14
Coordinates from ORCA-job run
  C   0.75151141932794      0.04566563220059     -0.01037551188181
  H   1.68394224810341      1.89630996386960     -0.43922636983346
  F   -1.11878819109197     -0.28981098889765     -0.58833486680977
  Cl  2.82681887706509     -0.10478338101119      0.61282523349407
  C   0.69386601133200      1.58121059539821     -0.09599440633555
  H   0.93093233880055     -0.51209402045149     -0.91032267946055
  C   0.22813304766427     -0.64713975814854      1.14291773793557
  N   -0.09770305526846     -1.19017544390536      2.13383738785559
  N   0.41103613851703      2.09903351302786      1.25081902979841
  H   0.63285827905430      3.08996075319794      1.24869964542808
  H   1.05671499460542      1.66692265048673      1.90615897018312
  N   -0.26944860950884      2.02787798908501     -1.08423161477295
  H   -0.54607937080846      2.97341269053237     -0.84405719569732
  H   -1.06392412779229      1.39506980461592     -0.98364535990344
