14
Coordinates from ORCA-job run
  C   0.39537637917237     -0.05749650845473      0.07678456522113
  H   1.62649587481329      1.59787768478345      0.31054276219047
  Br  -1.86102859156790     -0.29549821651391      0.41432728120406
  F   2.27156481225019     -0.11482096439506     -0.58653524087426
  C   0.56057001191680      1.45812226371970      0.11992623466404
  H   0.31101301138364     -0.55356640842792     -0.87022516464871
  C   0.86675138459223     -0.82257892291690      1.20143291285029
  N   1.22119257844313     -1.42056898410439      2.15041743804456
  C   -0.16929461873176      2.13861034497854      1.19344588009652
  N   -0.64259619264617      2.79000105043339      2.04933504529820
  C   0.23966412314034      2.05116238613719     -1.24912689487805
  H   0.92122520934521      1.58345163776512     -1.96006184187891
  H   -0.79690478690099      1.84263844836896     -1.52126994622574
  H   0.39725080478962      3.13243618862658     -1.25220303106361
