16
Coordinates from ORCA-job run
  C   0.43837618360115     -0.05495463503501      0.08044813346654
  H   1.62954688807809      1.61232627019015      0.24020478372203
  Cl  -1.64140275601566     -0.38032620180771      0.52903706577489
  F   2.29198493566049     -0.15210937116628     -0.66353374758504
  C   0.55764901453168      1.46269815602496      0.10683593213540
  H   0.32837860302914     -0.58362063931080     -0.84566731609589
  C   0.99539127128343     -0.77889181871157      1.19743053389710
  N   1.40019147231323     -1.31701444938831      2.16169779711818
  C   -0.17416899214739      2.16817714468067      1.24455559432807
  H   -1.24712584217272      2.22964098851447      1.06438683145133
  H   -0.02330792538284      1.64986493749437      2.19477547325543
  H   0.22565703055000      3.18400462884568      1.34219480065902
  C   0.18020274526798      2.00766972040202     -1.26226076946992
  H   0.83519879496306      1.55074829365735     -2.00567856920833
  H   -0.86300074769706      1.77325825622969     -1.49488970567007
  H   0.30620932413745      3.09508871938033     -1.29855683777874
