13
Coordinates from ORCA-job run
  C   0.47356759706892     -0.02093669675517      0.05462328132604
  H   1.60144131076884      1.76228777536623      0.29762469006687
  F   -1.26496031954574     -0.01216120769738      0.50118998436878
  F   2.15232187584548     -0.24399250079957     -0.53965375989842
  C   0.57542594828761      1.48686771653471      0.05227471891092
  H   0.17087364555090     -0.57429273826853     -0.81495802759214
  H   -0.10257284325270      1.87877487083494      0.81082034412527
  C   0.79592161533165     -0.73764128796566      1.27271554375737
  N   1.06193756216537     -1.29211587119282      2.27331135940897
  C   0.19896406743751      2.02747196640834     -1.31909787970575
  H   0.87765944504784      1.61305447077752     -2.06738510974725
  H   -0.82570834237444      1.73080514217622     -1.55275228857451
  H   0.26243843766876      3.12036836058114     -1.35685285644616
