14
Coordinates from ORCA-job run
  C   0.44022069785125      0.00869630513176      0.05328432740214
  H   1.73946962956883      1.67307837963456     -0.29951442869011
  Cl  -1.58327561285358     -0.04037939668746      0.21582498403402
  H   2.32693617483504     -0.32039897296282      0.15346913594348
  C   0.69041133092004      1.52403152336971     -0.05299055981475
  H   0.57875027697662     -0.55194236438152     -0.86273794635428
  C   1.04162752253928     -0.57267692853288      1.23594995621312
  N   1.05732901681681     -0.97691109655325      2.35564565753281
  N   0.34922560137614      2.30434317501027      1.09418172910259
  H   0.99494761224514      2.04483290897788      1.83201904555765
  H   -0.58207135747107      2.04287955691094      1.39924248654440
  N   -0.04019752392723      2.03146809804498     -1.27263274459293
  O   -0.85683990133928      2.93634116002979     -1.15315720402295
  O   0.27322653246203      1.49349765200805     -2.33434443885517
