15
Coordinates from ORCA-job run
  C   0.63989837423358     -0.00229393212038      0.03164592489394
  H   1.66528891633668      1.83501318804759      0.05405384491002
  Cl  -1.71316120465141     -0.30031843945195     -0.08874828239939
  Br  3.11725034850965     -0.33771680824736     -0.26853653500597
  C   0.62114920776872      1.52278385409307      0.04422374662863
  H   0.61617830835797     -0.53353450955010     -0.90086329180911
  C   0.68494278433115     -0.72488953834307      1.26952119200547
  N   0.70332514131859     -1.25554802923358      2.32148742327825
  C   -0.03224720592778      2.10475458989549      1.30014696252963
  H   -1.08685457132767      1.83653091052244      1.35128669801735
  H   0.46516224469772      1.75322511250796      2.20833880394362
  H   0.06015392737738      3.19547757698918      1.26484127386536
  N   0.06212333394968      1.98351345538123     -1.22271255631061
  H   0.15320746407746      2.99187224770800     -1.26708796931280
  H   -0.92401706905173      1.74648032180150     -1.23558723523440
