12
Coordinates from ORCA-job run
  C   0.63352092753375     -0.06922391736863      0.04042205508779
  H   1.66991023775350      1.78429927241283      0.26119571755693
  Br  -1.84699175991060     -0.22864830895924      0.06152102426519
  Cl  2.85600796322519     -0.23093404152152     -0.47926788890951
  C   0.63586371104017      1.46300983825642      0.09681976068674
  H   0.47093410232226     -0.58849028674852     -0.88329826386671
  C   0.75799607962904     -0.78135674078931      1.27579775509895
  N   0.87057497379829     -1.32463583609601      2.31493294794508
  C   -0.14675111193092      2.03821718818874      1.19862047226358
  N   -0.62585289658878      2.59284363209378      2.11667853825675
  C   0.21787768468565      2.02545145187259     -1.18951866378540
  N   -0.04893991155750      2.51195774865886     -2.22395345459940
