11
Coordinates from ORCA-job run
  C   0.69200724139274     -0.04055393010372      0.05129045833577
  H   1.71499575165808      1.85040902567443      0.02767654132046
  Br  -1.78049046618935     -0.18297037876896     -0.24394529407696
  Cl  2.99339669998817     -0.31042079991424     -0.16309292740420
  C   0.68891465058635      1.48280190970966      0.06289107622122
  H   0.66267064640379     -0.57480828027760     -0.87738730151305
  H   0.15776633568163      1.83072265045275     -0.82394505034757
  C   0.66188708495705     -0.77191574279816      1.28345082084075
  N   0.64463631310250     -1.34452657106127      2.31262436773346
  C   0.04488439332542      2.06208155616994      1.24015300645626
  N   -0.39918865090639      2.59990056091717      2.18416430243385
