13
Coordinates from ORCA-job run
  C   0.51047873772508     -0.00147288831404      0.03861991497923
  H   1.70819415274333      1.75384530515376     -0.15832878990979
  Cl  -1.50693470964308     -0.21035860418153      0.16210677820563
  H   2.42537188924066     -0.21304079052435      0.11915897476783
  C   0.64436798313730      1.53856866405496     -0.05339751249439
  H   0.69669528305030     -0.56083217002134     -0.86956142346951
  C   1.14575145183261     -0.54354574022752      1.22415991961265
  N   1.18549787701093     -0.92286446840551      2.35192107562759
  N   0.15668117677804      2.26686975352962      1.10918264835701
  H   0.71354529908253      1.96069354102312      1.90176212306280
  H   -0.79212615294743      1.95545073870126      1.28964871486790
  C   0.00098358637565      2.04232870321956     -1.27306482757774
  N   -0.45838657438593      2.47974795599199     -2.26100759602923
