15
Coordinates from ORCA-job run
  C   0.84726839264923     -0.00323512316853      0.08805755321215
  H   1.73434283910845      1.78323365826483     -0.54883116310483
  F   -0.80857767711162     -0.55516562571001     -0.98453581084750
  Cl  2.73108913024534     -0.07301076548713      1.07009998966703
  C   0.76322734737097      1.50969130435458     -0.10912801049924
  H   1.17846314409547     -0.61245977668291     -0.72953453812491
  C   0.04838577917643     -0.63675955891063      1.10912160232387
  N   -0.50029374366675     -1.13535979357555      2.02243885569638
  N   0.55026578004483      2.14786749336696      1.19157717049725
  H   0.59538416547701      3.15241556738790      1.06278737202743
  H   1.31180581295952      1.88389643771157      1.80697669173053
  C   -0.33242850825316      1.97074026451205     -1.05657417242834
  H   -0.22897906289337      1.49657876370779     -2.02925068448477
  H   -1.30472275074237      1.69159063163581     -0.66261751865986
  H   -0.25798064845994      3.06264652259329     -1.16254733700518
