15
Coordinates from ORCA-job run
  C   0.80644728078734     -0.02601551002208      0.05509678496487
  H   1.70869062475053      1.72863813547636     -0.60061715213691
  F   -0.65508942457054     -0.51979545889357     -0.97258258894099
  F   2.28265140078005      0.10055470470741      1.00135495838004
  C   0.73579474246129      1.48985903858913     -0.14324456408103
  H   1.33466371644562     -0.63675533291372     -0.65202153373302
  C   0.10228711454013     -0.66289760175582      1.15158700394009
  N   -0.41840435014159     -1.19597092842718      2.05946206869767
  N   0.60437956888933      2.11109246830423      1.17963921685718
  H   0.74765352173972      3.11017697342183      1.07871712020413
  H   1.37126898237440      1.73595467943640      1.72799526395058
  C   -0.36965449490620      2.01267387953654     -1.04258508333077
  H   -0.31551454495631      1.56407405194981     -2.03192253159275
  H   -1.33917509109475      1.76692139575909     -0.61647260996886
  H   -0.26874904709901      3.10415950483159     -1.12636635321022
