14
Coordinates from ORCA-job run
  C   0.65197678671646      0.06513489522440      0.06502634058074
  H   1.73991220753091      1.87807203738115     -0.04704870089956
  Br  -1.80957335497938     -0.20180068434813      0.18494790981739
  Br  3.13148777337664     -0.34473147375559     -0.42664811569649
  C   0.68682175601317      1.60319779317798     -0.01605449354532
  H   0.57757775735131     -0.54775462621393     -0.81421528726566
  C   0.83299401435470     -0.53756780257419      1.35377119993739
  N   0.95016694250368     -0.94521616380225      2.45372452147501
  N   0.12280240234426      2.29161511630352      1.14088118740957
  H   0.69788336295750      2.10735150723317      1.95671451239769
  H   -0.79920142774742      1.90831305659695      1.32557852072604
  N   0.09351012502364      2.00622227086963     -1.27404509587848
  H   0.12620032857856      3.01905932016842     -1.30058712735380
  H   -0.88268867402403      1.72956475373887     -1.26297537170456
