15
Coordinates from ORCA-job run
  C   0.67215959891478     -0.06897296397298     -0.02005769820960
  H   1.69491012642296      1.67188863826728     -0.62165392340343
  F   -0.58041679172593     -0.49175934264570     -1.01569079258563
  H   2.20430836929869      0.13006558331164      1.05979950104236
  C   0.71931013289082      1.46539360545601     -0.15867275052432
  H   1.40780884302018     -0.64790309813636     -0.55147862276023
  C   0.15349851926111     -0.66444403501882      1.19205393987209
  N   -0.36416573501534     -1.20317369144333      2.10327822326513
  N   0.59386354861745      2.09668308193094      1.15891867065597
  H   0.79518582718484      3.08668171143740      1.05418730376020
  H   1.34024997035601      1.67615611692994      1.71233077140126
  C   -0.37566157553184      2.04508982697149     -1.05067197088872
  H   -0.32692368220821      1.63267676683044     -2.05692895997221
  H   -1.35535479297768      1.81928778315905     -0.63302219588656
  H   -0.25152235850786      3.13500001692299     -1.10435149576628
