14
Coordinates from ORCA-job run
  C   0.57258325082839     -0.01964181764933      0.05545757731678
  H   1.70801193475077      1.78132285983214      0.30081575189793
  Cl  -1.74364179461553     -0.00974645935041      0.00863883308775
  Cl  2.85610384456667     -0.34166203505534     -0.33373676806575
  C   0.68437208784294      1.49606520004643      0.06428105350103
  H   0.48132350105228     -0.50268203462726     -0.89821822921572
  C   0.62205981226464     -0.83015581838615      1.23646539699954
  N   0.64770811772819     -1.54082208516100      2.17456984458672
  N   -0.08509636119117      2.10532076154237      1.26235216367205
  O   -0.81164298681498      3.06801326685832      1.03678449497079
  O   0.18444508101487      1.65846220459072      2.37075514601091
  N   0.28896179033103      2.02457996818483     -1.18381417722128
  H   0.42061434804095      3.02591317798055     -1.19884122366839
  H   -0.69162262579905      1.81481281119413     -1.33023986387236
