12
Coordinates from ORCA-job run
  C   0.59346397262476     -0.00713443287869      0.03917998632986
  H   1.63228138453488      1.82914976923725      0.26106391240626
  Br  -1.85225193186818     -0.20757446267127      0.01213723027457
  Cl  2.96250848176330     -0.30953746040551     -0.35073882765733
  C   0.61007481283881      1.50575424820423      0.06966409730368
  H   0.56576109000966     -0.54044303040087     -0.89200540344955
  H   -0.01799591714834      1.82621672689372      0.91128445324048
  C   0.71837116801655     -0.71752692919036      1.27995164327846
  N   0.79722774559649     -1.23931388603727      2.33284876721904
  N   0.18874746322289      2.03042815662846     -1.22133386842937
  H   0.38363003304138      3.02291672585415     -1.25485166634860
  H   -0.81188830263220      1.89434457476616     -1.30431032416750
