14
Coordinates from ORCA-job run
  C   0.51771218007063     -0.05575294239656      0.04376557301162
  H   1.69488177944156      1.69829335603727      0.19926793777507
  F   -1.23450902422721      0.00857656463693      0.39165110090592
  F   2.19101758421989     -0.25233519939109     -0.46463671437240
  C   0.63725233690109      1.46223617905107      0.07034621137200
  H   0.23789496660896     -0.57058125049063     -0.85700952085570
  C   0.75140620832871     -0.81444534111918      1.25599591134546
  N   0.95882576296713     -1.42216714992412      2.23917403796245
  C   -0.08984586153941      2.08702918366913      1.18102800020794
  N   -0.57930728279301      2.72483757582889      2.03710911799084
  C   0.14968413629194      2.02282936132294     -1.26460532525271
  H   0.76840033209215      1.60071057937614     -2.05922602438566
  H   -0.88998334678181      1.72776110275502     -1.40404954173617
  H   0.22785022841939      3.11277798064418     -1.29202076396868
