16
Coordinates from ORCA-job run
  C   0.67392326271896     -0.01538539420934      0.03879949651110
  H   1.71424927985202      1.84410516311305      0.07863508096648
  F   -1.31914665262430     -0.06316801875601      0.23818066152430
  Cl  2.72127022771061     -0.40867710697360     -0.49071816598884
  C   0.67349667167368      1.51464892593269      0.04207694670911
  H   0.32850698565819     -0.55439414927377     -0.82191758668862
  C   0.66559484863848     -0.72128567104652      1.29711001145934
  N   0.72397719686631     -1.26093773268704      2.34051507361156
  C   -0.04555778309340      2.10711178246545      1.25119560770177
  H   -1.08557375873646      1.79144642847133      1.23417395286560
  H   0.40696406664255      1.76117033864456      2.18479519501842
  H   0.03261718421375      3.20001857471753      1.22065414077169
  C   0.05216277694075      1.98564669887748     -1.26724349435656
  H   0.61785083433045      1.60162045556436     -2.12181682197120
  H   -0.96811716384047      1.60535811893998     -1.30730670882126
  H   0.04756202304887      3.07928158621986     -1.32615338931288
