13
Coordinates from ORCA-job run
  C   0.32338593911706     -0.01057213295063      0.09490617213320
  H   1.49955601600939      1.69945861835548      0.43785268650997
  Cl  -1.73857969662558     -0.19566039815031      0.59553050781658
  F   2.18103295152039     -0.13943030135453     -0.65718848762738
  C   0.48481854776432      1.49635299114564      0.09957838012981
  H   0.19161799974460     -0.54124778726251     -0.82841537120678
  H   -0.22694019794921      1.94767230070257      0.79429501717692
  C   0.88779186085604     -0.75029759612708      1.19803190661031
  N   1.29081713657830     -1.31457831568824      2.14753030768882
  C   0.30060238342008      2.04050617418841     -1.30786720505129
  H   1.05639244958510      1.57574918375819     -1.93993566937085
  H   -0.69716304369341      1.80254321821846     -1.68741988753802
  H   0.42397765367291      3.12799404516454     -1.33503835727132
