15
Coordinates from ORCA-job run
  C   0.63661418191962     -0.00077322200725      0.03520852097033
  H   1.66945926648308      1.82613183438639      0.05105870525028
  Br  -1.84884135430402     -0.37571608183987     -0.11490124848640
  Br  3.14072288587432     -0.34393509917938     -0.27401532868712
  C   0.62178957317706      1.52384905427391      0.04490015205378
  H   0.62741666013386     -0.53399901007162     -0.89692196550262
  C   0.69966873397760     -0.71843721506682      1.27470119752949
  N   0.73090684144088     -1.24138497384672      2.33097821144858
  C   -0.02344081960833      2.11265589424816      1.30213876385731
  H   -1.08143635542728      1.85540351940231      1.35349814437733
  H   0.47065711931471      1.75564923467917      2.20992032933660
  H   0.07890928935620      3.20252057770443      1.26713662612595
  N   0.06517562366312      1.98928253049834     -1.22142752619853
  H   0.16993315176402      2.99645249911595     -1.26772878721931
  H   -0.92513479776480      1.76765045770300     -1.23253579485569
