13
Coordinates from ORCA-job run
  C   0.77058953943895     -0.01627104900231      0.02114585022299
  H   1.38372370574414      1.97299794915110     -0.48559014383653
  F   -1.17016722976194     -0.33005778477108     -0.38295009601186
  Cl  2.87183748146910     -0.01640937019712      0.40747497344533
  C   0.51523995478810      1.47794082051214     -0.04653374419081
  H   0.86619282480533     -0.56997956311275     -0.89489665918368
  H   -0.34222583475039      1.58725282915575     -0.70648847974004
  C   0.37831244828330     -0.77023071212763      1.18896772072913
  N   0.15491697843922     -1.35136756337521      2.18685252719164
  C   0.20123809928619      2.07598712000766      1.31544123871389
  H   -0.70706631801553      1.61908443613339      1.71148546536770
  H   1.01811525254446      1.90316828966585      2.02001011347884
  H   0.03927309772908      3.15539459796020      1.23315123381342
