14
Coordinates from ORCA-job run
  C   0.45078056092724     -0.06430028330197      0.07892257697349
  H   1.56318170504950      1.74679675819024      0.36859246744261
  Br  -2.03719378778601     -0.10511967886305      0.30799002743511
  Cl  2.67311808085363     -0.36614161516439     -0.78030528701157
  C   0.56949266246640      1.42807316820635      0.06059627419868
  H   0.22244303545813     -0.59333681073268     -0.82369204724013
  H   -0.18096856619366      1.89599609332170      0.69660173233123
  C   0.73777321630677     -0.74415369412188      1.39111259127933
  H   1.74895813549850     -0.51310408131977      1.72588900711853
  H   0.02348185932470     -0.42588781952324      2.14997379084938
  H   0.65636932900459     -1.82369296825545      1.27083122313832
  N   0.36870175224060      2.04021140774701     -1.28814247374898
  O   0.56955079226321      3.25398547889478     -1.34113360147355
  O   0.00972122458637      1.34286404492238     -2.22680628129247
