18
Coordinates from ORCA-job run
  C   0.47752719845834     -0.04310036557805      0.10806232887277
  H   1.68193483568968      1.64394614581351      0.18228104537594
  Cl  -1.95630302682999     -0.20821625050825      0.30712565524059
  Cl  2.64117166871898     -0.50593487582097     -0.86677338419571
  C   0.60830492187088      1.46237795099460      0.07809352191143
  H   0.19126399739050     -0.57019379243831     -0.77951080346562
  C   0.76720325868765     -0.78682758832086      1.37685185139654
  H   1.74142595092286     -0.48696593920174      1.76685111518435
  H   0.00149135959992     -0.57520985557558      2.12233964336127
  H   0.78787055335858     -1.85888134252076      1.18808992107761
  C   -0.06734762175600      2.18635371884679      1.24542358394470
  H   -1.15128360529106      2.12178629347472      1.17155686335999
  H   0.23560437495668      1.77042950590050      2.20959568044138
  H   0.23595228605888      3.23911193282206      1.22768033674321
  C   0.16577503845540      2.02101008352042     -1.26730196797270
  H   0.73812327976947      1.55210717653582     -2.07066012523481
  H   -0.89741720872112      1.82187781527534     -1.41687299928120
  H   0.33407273866035      3.10239938678077     -1.30948226675975
