14
Coordinates from ORCA-job run
  C   0.54995409824287     -0.08286146375635      0.06020001516797
  H   1.71027621420169      1.69945487052736      0.20163270658126
  Cl  -1.84837612258899      0.02725093063197      0.05678712023937
  Br  2.83214076781037     -0.46898977974752     -0.70524390496893
  C   0.65215145232901      1.44330901390079      0.07280414026942
  H   0.29644790921223     -0.57892319481370     -0.85392456045059
  C   0.68452309261872     -0.79402319131324      1.37916448607740
  H   1.60405505864811     -0.48968086698196      1.88141170356956
  H   -0.16821453543630     -0.56997051884193      2.01883352440506
  H   0.72925579953239     -1.86900967184366      1.20779658665433
  C   -0.04831262909358      2.06436078474062      1.20614823335945
  N   -0.45483798391061      2.62389769840891      2.15528936390043
  C   0.23154322052225      2.04282320444703     -1.19516769255191
  N   -0.03086634208814      2.56436218464164     -2.21341172225284
