15
Coordinates from ORCA-job run
  C   0.52035807784114     -0.05642864376760      0.05234608973408
  H   1.68742897820595      1.62587528338385     -0.11488716182260
  Cl  -1.67591076805639     -0.25350397842710     -0.20543714438002
  F   2.57876139258210     -0.22827945000673     -0.15794017047701
  C   0.62129086445559      1.44858138365200      0.02449419745704
  H   0.67588364765526     -0.57957326539192     -0.86906227632129
  H   0.08480625578761      1.82123959517528     -0.85134686910481
  C   0.64765572950851     -0.80315952169357      1.35102626935236
  H   1.63961075469520     -0.58869764077828      1.74254857487844
  H   -0.13102824659101     -0.51610970752298      2.05888085382855
  H   0.56758497493573     -1.87523846851827      1.16890333100319
  C   0.10945485800377      2.15097457483181      1.27560270333285
  H   -0.94311249104977      1.92030971332558      1.45025435914746
  H   0.68229659879061      1.85505472647220      2.15816366314163
  H   0.21048937323569      3.23597539926573      1.16689358023010
