15
Coordinates from ORCA-job run
  C   0.48676292657442     -0.08326099218248      0.04497240562408
  H   0.84025405561114      1.82382037287149     -0.82546482203254
  Br  -1.20990788093814     -0.86325910138400     -1.21652430407031
  H   2.70784419581950      0.28592137323076      0.51398324705638
  C   0.27636077658170      1.42214765289089      0.02046231610715
  H   1.27159212184559     -0.47651525834824     -0.57340405895482
  H   -0.78466922949446      1.61996136386804     -0.16361651545165
  C   0.22364139641346     -0.81061218754706      1.34374409441659
  H   0.97830786206275     -0.52802383235304      2.07474467662507
  H   -0.77109333143474     -0.56123100673056      1.72468618903273
  H   0.26897348633089     -1.89009796253706      1.18738445877994
  C   0.67647494717788      2.16736970589746      1.29657191141848
  H   0.11633271859425      1.80207138384936      2.16256142510582
  H   1.74044818641513      2.01188392327446      1.47247831312605
  H   0.45424776844063      3.23684456519997      1.18786066321704
