16
Coordinates from ORCA-job run
  C   0.31216507805966     -0.06223681145164      0.11130114226297
  H   1.66168495178038      1.55527140546121      0.23743571471953
  Cl  -1.77533744433528     -0.08992881332787      0.34789909977856
  H   2.20736894006577     -0.25674368341411     -0.77396490047196
  C   0.58725473668827      1.44046992113617      0.08964252972010
  H   0.28993124417719     -0.55463636733211     -0.83898054625292
  C   0.73247970613029     -0.82207719815945      1.34940020494729
  H   1.80139962020530     -0.72100762048735      1.51790348113200
  H   0.18163294077223     -0.44432147350046      2.21504594036848
  H   0.49200661670131     -1.88056104845915      1.23258795483161
  C   -0.05578004479303      2.15586287739487      1.19950285779411
  N   -0.46225027654296      2.80806088210277      2.08922785158768
  C   0.22375240458108      2.05295253699917     -1.25869311303625
  H   0.84765036799558      1.55832044134085     -2.00748072972439
  H   -0.83052775069143      1.88187351239137     -1.47958442276733
  H   0.42343890920564      3.12798143930572     -1.27208306488948
