13
Coordinates from ORCA-job run
  C   0.49811692764038     -0.05851001742863      0.06040388167685
  H   1.61997932862380      1.73011151053995      0.37887375089219
  Cl  -1.86382424593817     -0.04399033407113      0.21539696093324
  Cl  2.69605437878764     -0.41103827850558     -0.74074218971343
  C   0.61639446737991      1.44889870183962      0.05370924667618
  H   0.26543870518525     -0.59103532852689     -0.83843351869552
  H   -0.11125580084124      1.86832103081239      0.75127148112264
  C   0.72495214722714     -0.75127045195253      1.37601960806567
  H   1.72215530308368     -0.52253225772583      1.75175248809230
  H   -0.02244017976285     -0.43378063767777      2.10268879920021
  H   0.64714736824871     -1.82974537810496      1.24475645129144
  C   0.38233220525506      2.04491166439771     -1.25765412368766
  N   0.20071939511069      2.57037977640361     -2.29065283585412
