16
Coordinates from ORCA-job run
  C   0.63416386766406     -0.01370113086931      0.04699937044626
  H   1.29680139285653      1.65420118933981     -1.08450441219277
  Cl  -0.88579961445939     -0.67319019596488     -1.34974279670232
  H   2.68397345674653      0.04625051714655      0.79498641228380
  C   0.68873875444014      1.50850366125738     -0.17915723897170
  H   1.36693722946314     -0.61776722765273     -0.44513141642645
  C   0.02637291909634     -0.51240109823051      1.33249737840112
  H   0.61421100313118     -0.17441097242205      2.18131938010885
  H   -0.99078210529290     -0.12584156421109      1.43386483479012
  H   -0.02244812552657     -1.60269814018531      1.32725736006949
  N   1.24390215859061      2.15262947557040      1.01015378207200
  H   1.42603045855126      3.12126169201309      0.76359365614128
  H   2.11595850896912      1.64914591015641      1.19148320479423
  N   -0.58138854905139      2.20080073389604     -0.39983162421897
  H   -1.08457856085948      2.15974644607088      0.48030993699069
  H   -1.11663279431917      1.67844070408529     -1.08265782758566
