14
Coordinates from ORCA-job run
  C   0.71312147101292     -0.02611875633330      0.07240857272016
  H   1.74780322509831      1.73103944037251      0.71585966447089
  F   -1.10770901540109      0.09881769638991     -0.06994446274668
  F   2.48941881808096     -0.11720174666241     -0.13501443364134
  C   0.81434760720274      1.47114831426296      0.22050994894478
  H   0.64403285401454     -0.43829474896168     -0.91516212116082
  H   0.74075252069373      1.95328965635071     -0.74991917765463
  C   0.70970678454168     -0.92453313102401      1.27893253442590
  H   1.00978551092197     -1.92683035259361      0.96639532302945
  H   1.44520971332265     -0.57271503127845      2.00217211658164
  H   -0.27776346621645     -0.95175211628253      1.73071528853923
  N   -0.26473890229362      2.07895085594609      1.05275091438185
  O   -0.95085591953808      2.97026403414367      0.55667666799855
  O   -0.33576120144025      1.72538588567014      2.22731916411098
