12
Coordinates from ORCA-job run
  C   0.59522064400980     -0.01289208864378      0.06922391811328
  H   1.73741994632936      1.72979926335746      0.51240650589535
  Br  -1.97776421212198     -0.00442600147065     -0.06615319640317
  Br  2.99311502325056     -0.55196955172325     -0.70802817307219
  C   0.77087315546969      1.47849660735929      0.07353640501978
  H   0.41938877888658     -0.54331862913861     -0.84364207956900
  H   -0.02118591857104      1.93904027527492      0.66542749838025
  H   0.73160644125405      1.87548452395018     -0.93976511004903
  C   0.67600733003107     -0.73928336111160      1.38086174425690
  H   1.66406152243784     -0.59228975277913      1.81907022180915
  H   -0.07828004177677     -0.34391401412162      2.06267721281279
  H   0.50263733080084     -1.80577727095322      1.24570505280590
