16
Coordinates from ORCA-job run
  C   0.41360334165535     -0.08987006302459      0.05960328684497
  H   1.67821231874782      1.57561455925286      0.02297054691658
  Cl  -1.67891346018376     -0.23052719160741      0.01227375379990
  H   2.45674920543360     -0.35482389876808     -0.43062005713161
  C   0.59739378157364      1.43171965840319      0.04109063890922
  H   0.56601149070933     -0.59787954878245     -0.87139618025318
  C   0.72277949813044     -0.80625900935244      1.36054188464188
  H   1.66420345085156     -0.47026835031796      1.78594317571278
  H   -0.08560143120558     -0.65080739951989      2.08099807161098
  H   0.81261747756419     -1.87495207384120      1.16241278594967
  C   0.01771209085604      2.16464964125535      1.25536590774256
  H   -1.06427692696389      2.05214949594250      1.30857496803852
  H   0.45952254905741      1.76839348097579      2.17216952043411
  H   0.26316832797474      3.22840168993072      1.19251655339456
  C   0.08689867791661      2.02666952052061     -1.19580126053112
  N   -0.27184039211749      2.57657948893301     -2.17013359607981
