15
Coordinates from ORCA-job run
  C   0.75022206408191     -0.08397675852158      0.08181429979706
  H   1.38841001305676      1.68187042159339     -0.90652846623599
  Cl  -1.12544971451275     -0.77517795780810     -1.36194345578832
  Br  3.14628313516524     -0.14103274838805      0.74120270681774
  C   0.68687648178548      1.43409676848349     -0.09769752499733
  H   1.15148364607822     -0.67348600062433     -0.71313459438636
  C   0.14760101829012     -0.68193842387418      1.31506239637687
  H   0.65645531229220     -0.31506451397623      2.20454839294324
  H   -0.90321771556743     -0.39635290377482      1.37647966172757
  H   0.21329581667955     -1.76784718919743      1.26807433022316
  N   0.98530461926806      2.11815865029158      1.16959078944848
  H   0.89732420670452      3.11690531979728      1.02097305449540
  H   1.94933004452329      1.90313690620926      1.40207468753841
  C   -0.63577105535131      1.94678813215386     -0.49607924934352
  N   -1.58243787249385      2.59882029763585     -0.74086702861640
