13
Coordinates from ORCA-job run
  C   0.73537539888325     -0.04700938999489      0.04924251959363
  H   1.29795371644453      2.00141658663386      0.48783361501163
  F   -1.32729981994336     -0.21203805906815     -0.07077058227921
  Br  3.00159134508635     -0.03703871505477     -0.37861579346599
  C   0.46323461734895      1.44196728202701      0.05822026904268
  H   0.53483966860887     -0.60416648342549     -0.84385406964326
  H   -0.44108241588893      1.58096492863603      0.65044590078929
  C   0.73617389493458     -0.74465307425277      1.38146216539560
  H   1.10080856985635     -1.76667190484267      1.27401318871933
  H   1.38259739293263     -0.22764824516595      2.09454448232968
  H   -0.29801912473066     -0.75705994015175      1.71934959455820
  C   0.19407813540512      1.96303463925851     -1.27819997603572
  N   -0.00448137893768      2.42962237540104     -2.33628131401587
