14
Coordinates from ORCA-job run
  C   0.39491777287746     -0.08864711319913      0.05783969118008
  H   1.72565153849903      1.54279637426127      0.10778803606020
  Cl  -1.68050841752643     -0.09117339011200      0.04779507945481
  H   2.38951215221665     -0.28259125308476     -0.45967624234963
  C   0.63876756537425      1.42687961403645      0.05087332075015
  H   0.51812970092395     -0.58001961229385     -0.88586638610778
  C   0.68720387675903     -0.80304082971454      1.36159042749920
  H   1.68698185397051     -0.58310530745986      1.72352669244079
  H   -0.05319777163671     -0.51525284621133      2.11271508315817
  H   0.61080767873873     -1.87930500302543      1.19838077160032
  C   0.03936054827787      2.10617417113502      1.20537962574594
  N   -0.33804823472046      2.70099662206921      2.14561086538393
  C   0.20186561798681      2.06135047620108     -1.19399069380364
  N   -0.08170388174069      2.59693809739784     -2.19964627101255
