14
Coordinates from ORCA-job run
  C   0.82852857787540     -0.03522508992425      0.10725801418706
  H   1.71893733860738      1.87247968770172      0.61457928209822
  F   -1.19521060185712      0.14580383178342     -0.11774538138683
  Cl  2.92255858770344     -0.24638241078108     -0.25801200268017
  C   0.79762859764847      1.47366647091481      0.18552808008922
  H   0.57565480007063     -0.46243308251731     -0.84100774380682
  H   0.62321531319348      1.88800678790278     -0.80186778045802
  C   0.69687807414619     -0.89064999896941      1.33526206336990
  H   0.96795159194297     -1.91756146794921      1.08413163491866
  H   1.35405764722705     -0.54462578562652      2.13282491159871
  H   -0.34022423810200     -0.84469524197949      1.65272313940035
  N   -0.28292539295063      2.03325145938090      1.05189187802237
  O   -0.97224558921705      2.93430903214462      0.58521583205860
  O   -0.31745470628818      1.66550580791901      2.22291807258873
