14
Coordinates from ORCA-job run
  C   0.49460081039560     -0.08671785129794      0.05602906015244
  H   1.72915401151586      1.57129621058269      0.11146914858620
  Cl  -1.71094137368081     -0.10399528783507      0.06625527229025
  F   2.39800280950956     -0.16263543541345     -0.37203447414544
  C   0.64327510386134      1.43096481140089      0.05021121029047
  H   0.46802520924766     -0.58936225895184     -0.88940123770824
  C   0.70281152477447     -0.81799368855396      1.35352022484831
  H   1.74862405244279     -0.71734250542672      1.63512970224491
  H   0.04739960920579     -0.43253899121562      2.13485989800268
  H   0.46914640484063     -1.87313395133830      1.20918579980850
  C   0.02125528046996      2.09912923233455      1.19727849558173
  N   -0.37398148263760      2.68745499430963      2.13326223327967
  C   0.19663428263673      2.04257085857556     -1.20150661149708
  N   -0.09426624258198      2.56430386282960     -2.21193872173442
