17
Coordinates from ORCA-job run
  C   0.39038407821176     -0.08076173206958      0.06099651449088
  H   1.67484547299829      1.53664401980732     -0.13290588314943
  Br  -1.82863433273847     -0.23466267223105     -0.07457541946373
  H   2.50789537298952     -0.34802309584585     -0.33344773713613
  C   0.59966660951268      1.42715469719447      0.03219187121000
  H   0.62596833095997     -0.58043951049319     -0.86149745123975
  C   0.63794327372440     -0.79188779310438      1.38073717263397
  H   1.61269048505501     -0.54126122873779      1.78763883323511
  H   -0.14537365447995     -0.54346684912861      2.10143947935004
  H   0.61488796222922     -1.86873590525407      1.20500800308908
  C   0.15762283324008      2.18028497244604      1.26796001817953
  H   -0.91518530730400      2.07625251031648      1.43147672659793
  H   0.69278606849438      1.78156749045426      2.13217702689903
  H   0.39619413082596      3.23923897931312      1.17145379640182
  N   -0.00422717389442      2.01939296364913     -1.20876862890916
  O   -0.53726986344390      3.12979672182979     -1.13362743102867
  O   0.15768571361948      1.39916643185390     -2.25670689116052
