15
Coordinates from ORCA-job run
  C   0.57930548179535     -0.05095403624829      0.05877822815135
  H   1.63031793928958      1.73185135896576      0.56763079070063
  F   -1.23722579491759      0.05891435168485      0.16392803580348
  F   2.29365128945486     -0.06950811507891     -0.36205764691955
  C   0.65468567879104      1.46235589984059      0.16217271581795
  H   0.38457783600657     -0.48798421935647     -0.90160159575722
  C   0.75953326100631     -0.90646959216613      1.28260793478533
  H   1.10945149616887     -1.88833572085300      0.95882097614475
  H   1.52999596025055     -0.48178349821535      1.92546563439099
  H   -0.17575617574979     -0.99839071258221      1.82702297723839
  N   -0.34012074710456      2.05454243478134      1.13267292573019
  O   -1.16391932357386      2.86668553660585      0.73343738823217
  O   -0.17481364880168      1.72826913386980      2.30337922537483
  C   0.48941140990931      2.07761976302194     -1.14968787946460
  N   0.40092533747505      2.56640741573023     -2.21279971022869
