15
Coordinates from ORCA-job run
  C   0.47627752324409     -0.05433860053010      0.05916497795243
  H   1.73710352122422      1.53441029407517      0.05457021572555
  Br  -1.86481696263621     -0.16961176429293     -0.06580579504757
  F   2.51876102541027     -0.18319580211350     -0.27146669474189
  C   0.64594809551775      1.44896439668737      0.03272917044935
  H   0.57116354208920     -0.54361397114551     -0.89032529950522
  C   0.66572885402829     -0.79352461948682      1.35392705237975
  H   1.70276402505711     -0.65087651075540      1.65029018910284
  H   -0.01865828200384     -0.43530112899314      2.12377469431648
  H   0.48557164841758     -1.85744642358442      1.19689071329881
  C   0.10094743031974      2.09609844203298      1.24545287811859
  N   -0.27299211713198      2.70255830937720      2.18073454513706
  N   0.15778586641583      2.04139149001348     -1.20515055823213
  H   0.37453206961891      3.03128640591790     -1.20462047489243
  H   -0.85062623957097      1.93126948279771     -1.22997561406164
