15
Coordinates from ORCA-job run
  C   0.38857576987947     -0.06452281979231      0.10022481962739
  H   1.71032777811009      1.52301015278129      0.50181230393458
  Cl  -1.78628147929801     -0.01524547076913      0.38307503024732
  F   2.18774250009452     -0.12561671202970     -0.63388460299753
  C   0.68056406225224      1.42621194957217      0.15999162471817
  H   0.20314088292493     -0.48326625946285     -0.86748511731879
  C   0.73845664513418     -0.93701744736280      1.27298478117428
  H   1.81591040094198     -0.89253568150861      1.41827723762230
  H   0.21627259193717     -0.62184609748133      2.17391593668321
  H   0.44875205669696     -1.96331893634772      1.04451359835657
  N   -0.12813888623588      2.21251318762340      1.17286368384083
  O   -0.84962567893878      3.12589411307274      0.79249676366589
  O   0.07350278747919      1.89985544706596      2.34273877500115
  C   0.55952577639728      2.03877056881709     -1.15688708793822
  N   0.48129479262463      2.54033400582181     -2.21486774661714
