13
Coordinates from ORCA-job run
  C   0.62868476238302     -0.04810843225053      0.06363404536796
  H   1.78001846543703      1.76697378301541      0.06987864302313
  Cl  -1.78380632700655      0.07020273077795     -0.20029247964203
  Br  3.00036745411420     -0.53302030780520     -0.48940348482550
  C   0.73005400777354      1.46902231617566      0.07184625146405
  H   0.47237068733239     -0.54409935211042     -0.87165509172515
  H   0.24905526927405      1.86992947516813     -0.82001181598365
  C   0.61970067023511     -0.79155091378765      1.36922961228165
  H   1.49590219039841     -0.52106851926273      1.95967190272394
  H   -0.27877710348333     -0.54356741959867      1.93334565700359
  H   0.64453725908050     -1.86462884639481      1.18472079657502
  C   0.11143677153077      2.07706560504753      1.25117716592362
  N   -0.29247410706914      2.61307988102533      2.21410879781338
