17
Coordinates from ORCA-job run
  C   0.57430035236654     -0.01176579962889      0.06645193519363
  H   1.70786695364563      1.73694868571682      0.06530621701274
  Cl  -1.88135616429366     -0.17042740310231     -0.06644813625410
  Br  3.02313035364076     -0.53140295192852     -0.56014936126672
  C   0.64165271529669      1.49858849012474      0.05409772361073
  H   0.44927147238643     -0.51491864585466     -0.87263164373825
  C   0.66420116741075     -0.76394191832603      1.36207226637623
  H   1.57399166072832     -0.48522315983109      1.89453891264433
  H   -0.20026512931684     -0.53989799995031      1.98658982244880
  H   0.69387617597133     -1.83479691811809      1.16875954569025
  C   0.02529102607212      2.14414532482951      1.30195317648675
  H   -1.04082022702871      1.92532311257166      1.35904849667937
  H   0.51165157183004      1.80209598778224      2.22019389769960
  H   0.16573029440870      3.22860117420728      1.23841095933787
  N   0.10950703262224      1.99668343327959     -1.21050508522798
  H   0.18409459515300      3.00771159942701     -1.22121093164057
  H   -0.87413385089337      1.74713698880104     -1.24209779505268
