14
Coordinates from ORCA-job run
  C   0.67001176518666     -0.06409363216020      0.04399169637487
  H   1.60967711977047      1.83804147351071      0.22726259472195
  F   -1.13265161357365     -0.08077580054408     -0.08919527336149
  F   2.45121309281272     -0.01552749829612     -0.10501063177578
  C   0.59725941020668      1.46129038101745      0.05925972758400
  H   0.66348266357343     -0.57314185833611     -0.90093683930940
  C   0.73307472956326     -0.80417632425835      1.35330345261817
  H   1.18930996351448     -1.77919534613145      1.17962291251823
  H   1.38228329447422     -0.26838904415554      2.04783797129072
  H   -0.26245702292280     -0.92147601438605      1.77444140911787
  C   -0.26634830034329      1.96420953925447      1.13547303841338
  N   -0.84904257717139      2.43513923502378      2.03891279149623
  C   0.13029983002861      1.97957513981688     -1.22896814723230
  N   -0.17637235511937      2.44051974964461     -2.26367470245641
