16
Coordinates from ORCA-job run
  C   0.33535127496685     -0.08173680870431      0.11696559978803
  H   1.61364626335302      1.55030056922188      0.58570420976931
  Cl  -1.81368416767615     -0.15633790955495      0.63545454992881
  F   2.05550199207258     -0.03839764617962     -0.75502239738256
  C   0.61528446259106      1.39394994563587      0.19534701306589
  H   0.05320949971653     -0.47538442799783     -0.83727575793312
  C   0.81000776793458     -0.95252500143280      1.24722914774522
  H   1.89768837697707     -0.97372336835427      1.22386091506656
  H   0.45269074401714     -0.57192288382204      2.20349464189494
  H   0.41669174527421     -1.96015668929442      1.11603259586211
  N   -0.28506671882423      2.22107788950197      1.08641051235937
  O   -1.06807302120689      3.01435632489782      0.58153081290095
  O   -0.09761388698291      2.05065907573735      2.28643428916084
  N   0.59314372943657      2.04840694974745     -1.14726161230279
  O   1.29603233141484      3.05205630829607     -1.24837842679287
  O   -0.13515039306430      1.59406767230182     -2.01771609313070
