15
Coordinates from ORCA-job run
  C   0.63743866639205     -0.02862490190868      0.03067771935018
  H   1.78625284468186      1.79619378961496      0.04128210118276
  F   -1.37642041981101      0.27579050453486      0.02599333300344
  Br  2.87755469072284     -0.56884641362302     -0.51284591955509
  C   0.73771908616815      1.49154785647206      0.02620142137670
  H   0.33523639848618     -0.48602559895354     -0.89102751623261
  C   0.56604938565407     -0.78044185939313      1.32941682495097
  H   1.33916463864922     -0.44417237639092      2.02213387111685
  H   -0.42298902061255     -0.60307736286231      1.74756261932629
  H   0.71011390738878     -1.84584841521884      1.15103929442341
  C   0.13269571637315      2.03498998911240      1.26727880386192
  N   -0.26223405196348      2.58267642806286      2.22919744745331
  N   0.11070050367832      2.00516115301963     -1.18389220973731
  H   0.10113580520241      3.01864185890023     -1.15168081829931
  H   -0.84292815100999      1.65010534863342     -1.10114697222151
