14
Coordinates from ORCA-job run
  C   0.52531244893837     -0.01630324847555      0.06378008427224
  H   1.72249809349847      1.70537715131485      0.20922348369397
  Br  -2.00068234250378      0.00373135807294      0.04426568814800
  Cl  2.86021464678772     -0.55070143003199     -0.61280758428911
  C   0.66652024928105      1.47775690558438      0.05228407516109
  H   0.39120971076989     -0.53588670702721     -0.86544047774485
  H   0.10461523476598      1.85978818904687      0.91805541783420
  C   0.68270604033150     -0.73093514365483      1.37550361141773
  H   1.64057698650413     -0.45693002159017      1.81862306762059
  H   -0.12239331790636     -0.45183036282635      2.05507941582315
  H   0.67260223414819     -1.80932532094931      1.22736517680854
  N   0.24799223190225      2.05132171078627     -1.22002864002035
  H   0.42844380924775      3.04793874515246     -1.20676479906242
  H   -0.75409602576517      1.91278817459763     -1.29387851966280
