16
Coordinates from ORCA-job run
  C   0.42551064341369     -0.06080152828149      0.07165514940239
  H   1.74249436706556      1.58598074258699      0.12739904476125
  F   -1.35990716512009      0.19022789303937      0.37615841622447
  F   2.09281645992094     -0.38110805075455     -0.57521669670001
  C   0.66317330665105      1.43817193904853      0.04667211700607
  H   0.08844987190254     -0.55240899576502     -0.82035382459940
  C   0.68078138558302     -0.82178462004092      1.34263554459125
  H   1.63987571621570     -0.51464228945372      1.76291739525832
  H   -0.12511971001412     -0.64544930840637      2.05246505734590
  H   0.74942626317590     -1.88770315690784      1.11904107722525
  C   0.04543950358385      2.12376963867362      1.18879565502200
  N   -0.33516248543614      2.76768467995134      2.09454660119307
  C   0.16890479172495      2.03187030216287     -1.27000841950975
  H   0.72124190861827      1.54965671274905     -2.07932949946961
  H   -0.89424645599229      1.81328077371514     -1.36033714625220
  H   0.33319159870719      3.11253526768296     -1.31788047149898
