16
Coordinates from ORCA-job run
  C   0.45702525920883     -0.00805974909491      0.13356760305591
  H   1.69637968070773      1.70390826048470      0.24301867045970
  Br  -1.99424203371079     -0.20342484380059      0.60349787989679
  Cl  2.56393851474390     -0.38127008713379     -0.98134465739068
  C   0.63857279658760      1.49931053547971      0.09329135400549
  H   0.13528406120513     -0.54403661798867     -0.73521847045507
  C   0.89779966865764     -0.67952043874085      1.40694068239917
  H   1.93150533396316     -0.41234216808201      1.62960548109993
  H   0.25990182474317     -0.38604302359281      2.24021289455183
  H   0.84241695191400     -1.76090808119063      1.29133816489587
  N   -0.11345024033013      2.31736168160677      1.00324644967128
  H   0.41300522100994      2.46523018490132      1.85143891364125
  H   -1.00018081218603      1.87216607852673      1.21200163694021
  N   0.39654669684863      2.02901657438670     -1.30994128165575
  O   0.95581370073462      3.08930372759011     -1.57497228512631
  O   -0.35496662409745      1.41567796664821     -2.06007303598963
