14
Coordinates from ORCA-job run
  C   0.60200679260307     -0.00913515006770      0.10903081931393
  H   0.97512490109910      1.90054387796543     -0.72717472505138
  Cl  -1.57428491518064     -0.51439265902759     -0.95258817708566
  Br  3.16330708833718      0.03597212673147      0.28574605487834
  C   0.44844128752064      1.49031044097459      0.14315780042003
  H   0.88226415314010     -0.48796451621525     -0.80669447803047
  H   -0.61497041432471      1.70239361891715      0.02739884090198
  C   0.32007551143822     -0.80037292338244      1.34715585498637
  H   1.01224861338592     -0.51900461289059      2.13786101770149
  H   -0.69147484203384     -0.57428950552381      1.68539059641726
  H   0.39826835661373     -1.86697658634961      1.14234019278895
  N   0.87845926773903      2.04785777114585      1.42690447091583
  H   0.67907924825014      3.04104621487412      1.42552253166131
  H   1.88449495141209      1.92714190284837      1.48344920018204
