14
Coordinates from ORCA-job run
  C   0.45283994334546     -0.02447087309350      0.11495730925172
  H   1.78933897980526      1.46963297759231      0.94736779322322
  F   -1.17790621720542      0.15031927152480      0.48526675377661
  H   2.17791297933634     -0.10483999094730     -0.59858889735950
  C   0.92075589637443      1.40238109871118      0.29993452778971
  H   0.24358694121461     -0.35331139720882     -0.88516909143757
  H   1.10157590607532      1.89093933003607     -0.65176209093424
  C   0.72357152441328     -1.03001139222982      1.21524986613350
  H   1.77055453695571     -1.30997514209110      1.28655126015385
  H   0.38668211056074     -0.59077816156230      2.15690845708869
  H   0.11439129268361     -1.91964782072279      1.04022994421580
  N   -0.12726828593064      2.26730775642253      1.00048225250975
  O   -0.82011170268408      3.01541075973506      0.31318486747464
  O   -0.17857397290243      2.20849085463632      2.22908093027400
