15
Coordinates from ORCA-job run
  C   0.43225610427948     -0.02594903494187      0.09963338441034
  H   1.62060309459701      1.69318446113258      0.34269053771628
  Br  -2.10326372659899     -0.05344958254165      0.35644214547984
  Cl  2.61628285958024     -0.49890150468372     -0.90389853744834
  C   0.58879589021199      1.46785778077136      0.05969825905340
  H   0.15383782058011     -0.56848674706565     -0.78240874569519
  H   -0.06306751546851      1.89525848869056      0.82666109936841
  C   0.72861010837996     -0.74015228325465      1.38637604027976
  H   1.76207058389338     -0.54760086491819      1.67678338472429
  H   0.06261305432029     -0.38058900573828      2.17133749719692
  H   0.59166407050331     -1.81470820104123      1.27277628570219
  C   0.27714361678670      2.07059978191382     -1.30043032135884
  H   0.93778995661582      1.63771135383966     -2.05349111157267
  H   -0.76138644471376      1.86868017043548     -1.56859599171870
  H   0.42895052703294      3.15454518740178     -1.28934392613766
