17
Coordinates from ORCA-job run
  C   0.64337377243476      0.00038663225882      0.03677178515635
  H   1.75976997487718      1.81798882332146     -0.01896363072477
  F   -1.39408886878876      0.11854195412816     -0.00415632699977
  Cl  2.81140256808319     -0.49061484954022     -0.41350568545846
  C   0.71074480908669      1.52052345770874      0.02816084865112
  H   0.40610329345386     -0.47884829224822     -0.89237352902883
  C   0.59866661639492     -0.77654017152969      1.32130914873349
  H   1.41353650395184     -0.48802569289804      1.98634989273582
  H   -0.36624678680744     -0.59209367926834      1.78853764458790
  H   0.70118877783327     -1.84082182016269      1.11057243545327
  C   0.09423949542071      2.12346328188690      1.29498647338826
  H   -0.95238355935459      1.82691107913074      1.33622487338928
  H   0.60720433881746      1.79234978732993      2.20360931878088
  H   0.17351048166278      3.21607362528940      1.24907624124874
  N   0.04941898581931      1.96790310897680     -1.20041673811924
  H   -0.05440260904609      2.97715160455111     -1.16235337466023
  H   -0.87404779383907      1.54051115106513     -1.11944937713381
