16
Coordinates from ORCA-job run
  C   0.44488776193578     -0.07905882855553      0.06283100031872
  H   1.72211777065942      1.63855558250274      0.05728640975089
  F   -1.25081866521213      0.01395682881291      0.17810091557121
  H   2.28818781647312     -0.36255526391146     -0.37697334536362
  C   0.65223919891285      1.44149056938018      0.04292575446208
  H   0.39082821831245     -0.60310307017338     -0.87016014708071
  C   0.71108228031227     -0.83220408350100      1.34935960104246
  H   1.55720033229805     -0.42328015922383      1.89867964329091
  H   -0.18761960299030     -0.80546864722852      1.97432172932280
  H   0.95881755679619     -1.86716360301537      1.11313083281087
  C   -0.01571793832257      2.15846917809567      1.22385516778329
  H   -1.09141620687881      2.00859570718833      1.18869623593403
  H   0.36505310947519      1.75071840987262      2.16337159950122
  H   0.21643367191945      3.22758445085913      1.19554217351092
  C   0.13480610751466      1.99508557995449     -1.21137365601387
  N   -0.25784141120558      2.48716734894297     -2.20308391484122
