15
Coordinates from ORCA-job run
  C   0.59357298469751     -0.06219284278651      0.01348044523129
  H   1.09270455448749      1.87922293403603     -0.70885100295395
  F   -0.90535476416777     -0.53452050111132     -0.72874964578960
  H   2.41613153803022      0.27957059457839      0.52305884743378
  C   0.37304994634826      1.44022475226562     -0.01472978964423
  H   1.14780399679341     -0.51213217885646     -0.78614179023241
  H   -0.63514912077625      1.60213529870476     -0.41133462189168
  C   0.33271214155304     -0.84783234495361      1.28218856300924
  H   0.94844790478600     -0.52241650457310      2.11592671163159
  H   -0.72682893675606     -0.74908940749188      1.53733950551306
  H   0.53047346756128     -1.90642157640222      1.09552017048412
  C   0.50104043710408      2.14245039551406      1.33246110509566
  H   -0.22897445566375      1.76064760550855      2.05302198606572
  H   1.50670653918440      1.96636613500692      1.72021333543805
  H   0.32923376681817      3.22100764056078      1.22703618060934
