17
Coordinates from ORCA-job run
  C   0.25885526697251     -0.04486686660792      0.13316092233171
  H   1.66789782658496      1.52366253381276      0.36033707510192
  Br  -1.95065689869968     -0.04830092520352      0.33455665411700
  H   2.22446817005509     -0.27663929307316     -0.81462975051376
  C   0.61418973985715      1.44072936295542      0.10327768566229
  H   0.27166385785314     -0.50018858947753     -0.83823039468107
  C   0.68211745016481     -0.89222173720770      1.31572010407734
  H   1.74565630991050     -0.77147545585597      1.50544681683370
  H   0.11949491272946     -0.61542015227881      2.20667506202106
  H   0.48524130660963     -1.94164861000435      1.08683051588465
  N   -0.06855501341118      2.20187212532310      1.21684532542095
  O   -0.82259348069463      3.13368919694248      0.94071583580476
  O   0.23503201547539      1.87835349528392      2.36650218722658
  C   0.33568978991406      2.07224952615184     -1.23966376039026
  H   0.97685770638996      1.55423369876110     -1.95485764667136
  H   -0.71274649564022      1.94918989954078     -1.51163154494475
  H   0.57453753592903      3.13728179093758     -1.23444508728078
