14
Coordinates from ORCA-job run
  C   0.31015658958274     -0.06171570323874      0.09952797720916
  H   1.28944047163599      1.75612525438478      0.61180319380193
  Cl  -1.81858861061900     -0.31900395796512      0.43864492204577
  F   2.20039425939910      0.07974611240970     -0.60867266703015
  C   0.39737875883583      1.43474833357348      0.08584899029972
  H   0.24628106501006     -0.57203951765786     -0.83977861548767
  H   -0.49424006020038      1.92254127966645      0.48542034066982
  C   0.79634011096496     -0.76706191487016      1.33701545941141
  H   1.87863893700567     -0.66895775479615      1.35523021408261
  H   0.34511887613348     -0.33442531484246      2.23266867846646
  H   0.51623538852225     -1.82002322829259      1.30193207804462
  N   0.55075559273870      1.97780410318879     -1.29354612294595
  O   1.13840395685166      3.05481620644561     -1.38944250613198
  O   0.01909466413894      1.38963610199425     -2.22622194243575
