14
Coordinates from ORCA-job run
  C   0.53990069805550     -0.00997727393702      0.06730211637680
  H   1.70868780677170      1.73402092219003      0.23431257431891
  Br  -2.01590295736499     -0.01539426376307      0.01841872706023
  Br  2.98729416715903     -0.58369423880883     -0.65889993018804
  C   0.65953829075234      1.48649309189022      0.05970244440492
  H   0.39909290518469     -0.53016323848817     -0.86088893233703
  H   0.08057055831960      1.85570145690488      0.92011984827197
  C   0.67222196233780     -0.72542846529146      1.38157889558029
  H   1.63077396370103     -0.47636998631058      1.83799946035575
  H   -0.13368754290669     -0.42573211388861      2.05207948179022
  H   0.63354296877989     -1.80362672187943      1.23506944101245
  N   0.24806502357736      2.05462347126892     -1.21655918825005
  H   0.40443266717048      3.05513767063272     -1.19820185766067
  H   -0.74901051153774      1.89119968948041     -1.30677308073574
