16
Coordinates from ORCA-job run
  C   0.29085734402627     -0.04659667842724      0.11538247285147
  H   1.70742646825287      1.55901170559443      0.19908115028309
  F   -1.34866939909316      0.18208972563891      0.49647165089566
  H   1.98732286982543     -0.35870019998383     -0.67778437703805
  C   0.63189951347506      1.44098218984488      0.07166883535046
  H   0.03378236188416     -0.53667125962670     -0.80330436185010
  C   0.71440425438665     -0.84851190002132      1.32517578758984
  H   1.64119943015577     -0.46486969832406      1.75196382743951
  H   -0.08099367410277     -0.80095833241835      2.07475203184275
  H   0.89218786414561     -1.88708649253270      1.04478131612849
  C   -0.00796667613064      2.17892559737093      1.17432452736078
  N   -0.40089784114227      2.85201276763876      2.05404448774645
  C   0.21640860811402      2.02650809457427     -1.27308128201396
  H   0.78609639747537      1.49840957430208     -2.04245090071822
  H   -0.85149295730735      1.85635672898386     -1.41559574606344
  H   0.42530543603495      3.09837817738611     -1.33626941980471
