16
Coordinates from ORCA-job run
  C   0.75761809262132      0.04419884073942      0.04208543443360
  H   1.42668427606277      1.82177329328553     -0.90217566903390
  F   -0.86308979155993     -0.28758496869171     -1.23704381665301
  Br  3.05341151913262     -0.26399851614174      0.77633076422222
  C   0.74321301580865      1.57678644713653     -0.07651947150655
  H   1.05641745892577     -0.53194772793616     -0.80692544106309
  C   0.04504293410016     -0.60385765528625      1.18642183410160
  H   0.35958473643988     -0.17190574625355      2.13545456999204
  H   -1.01954179239350     -0.43379328139901      1.02709946256322
  H   0.22860722447184     -1.67783071461628      1.18928414226799
  N   1.12246220376139      2.21016750416125      1.18443520695740
  H   1.08456919926448      3.20988874176553      1.01867960535447
  H   2.07509871287743      1.94915267531339      1.40783004273907
  N   -0.57209551000330      2.12221620664957     -0.40035649876460
  H   -1.09001145964561      2.08869708016841      0.47438619091414
  H   -0.99251081986398      1.39900782110506     -0.99754635652462
