16
Coordinates from ORCA-job run
  C   0.61033152420633     -0.00063907207087      0.04879361090401
  H   1.74624507607085      1.75844547235666     -0.08958184797496
  Br  -1.98465455286681     -0.27791977524128     -0.27179557080294
  Br  3.08069375589890     -0.51492568204797     -0.38436881721923
  C   0.68559560618824      1.51926030979687      0.02259715280279
  H   0.53107110102357     -0.51234768672702     -0.89016881897577
  C   0.58308128962741     -0.72068228109195      1.36687411865983
  H   1.47978039292491     -0.48939923361714      1.94488271365996
  H   -0.29866313453242     -0.41449623201040      1.92749885041271
  H   0.55098251738189     -1.79637571723988      1.20370628472761
  N   0.15660338659396      2.07870037608342      1.28592285239531
  H   0.26713469209965      3.08622294810713      1.22433046607616
  H   0.75186540422025      1.77458168834071      2.05187555086947
  N   0.03006433409608      2.05041740534792     -1.14779353062966
  H   0.18908402743326      3.04972992420007     -1.20211563529697
  H   -0.96375542036606      1.86039755581374     -1.06921737960829
