17
Coordinates from ORCA-job run
  C   0.48014559257594     -0.02048605278066      0.03374565420975
  H   1.74456663979520      1.68974463353313     -0.06891911674421
  F   -1.24910949157360      0.04646019340803      0.00307969345269
  H   2.42014323591133     -0.40557095612862     -0.23883673315138
  C   0.67836463397655      1.49310994682193      0.00329456795526
  H   0.53364916776332     -0.52511808421888     -0.91120350178588
  C   0.60628809825083     -0.80044531666229      1.32460348592821
  H   1.44826744040198     -0.47064215341904      1.92714346834314
  H   -0.32364748893943     -0.69931306926041      1.89397623856640
  H   0.77420790143191     -1.85246935965981      1.09107367956186
  C   0.13026121291537      2.15117462666978      1.27423918605013
  H   -0.93615659408073      1.94033803799478      1.36122927199501
  H   0.63814214192723      1.79004715065632      2.17387903427303
  H   0.27971693613140      3.23675087740537      1.22231612453569
  N   0.03404584852497      2.00560213540733     -1.21626657005567
  H   -0.01936751285073      3.01777801561859     -1.15298802086998
  H   -0.91152776216156      1.63789937461444     -1.17598646226403
