17
Coordinates from ORCA-job run
  C   0.56394885065212     -0.01251346877462      0.07170030126236
  H   1.70415341069896      1.72132111065207      0.07632274849176
  Br  -2.02459372105535     -0.23268590723607     -0.09527665927738
  Br  3.03850591521422     -0.53120097540012     -0.58835701994349
  C   0.63436790298788      1.49634663240502      0.05902551736110
  H   0.45277724996917     -0.51832182015870     -0.86814657812822
  C   0.68445477361235     -0.76189008680226      1.36676643224250
  H   1.59015680050307     -0.45362158157069      1.89079062844426
  H   -0.17953783082586     -0.56254923286167      2.00076899812557
  H   0.74843609687877     -1.83150707892992      1.17485569183432
  C   0.01984310613339      2.14696017210084      1.30554752562979
  H   -1.05044194844726      1.94413183516425      1.35373844935203
  H   0.49281661482873      1.79373013258538      2.22644132887698
  H   0.17634981815405      3.22947800999551      1.24745019517245
  N   0.11745922939238      2.00330487142400     -1.20757351555850
  H   0.23493650416709      3.01005969754118     -1.22954217592262
  H   -0.87564277286372      1.79381768986579     -1.24013186796289
