16
Coordinates from ORCA-job run
  C   0.52957057982825     -0.02235770903857      0.07202171169911
  H   1.75165869251748      1.71694221461976      0.26307099608585
  Cl  -1.83496320350183      0.08100644439153     -0.01786847449107
  Cl  2.79428386504396     -0.45116294986059     -0.52844121345762
  C   0.70648390859560      1.48428878593643      0.05994697257802
  H   0.38361369879660     -0.46499591895050     -0.89269318662573
  C   0.59388676746587     -0.86120279135355      1.31492051336578
  H   1.52370437865056     -0.70087246048350      1.85584581149486
  H   -0.23561904660623     -0.64162617296914      1.98165863341642
  H   0.54682148656102     -1.90935860871752      1.01900843253954
  N   0.01255484136562      2.14354698871941      1.28461258206445
  O   -0.73693184197957      3.09196811047465      1.07590766617038
  O   0.35316495800149      1.74887749795890      2.39664561940333
  N   0.29521071531614      2.04486542942963     -1.16871443775640
  H   0.43612608913033      3.04515327189576     -1.16898928890741
  H   -0.68979588918530      1.84421786794730     -1.29929233757952
