14
Coordinates from ORCA-job run
  C   0.46974702660939     -0.06874810986296      0.07081201004563
  H   1.63995452391073      1.71858469325195      0.26318630712277
  Cl  -1.88949058766261      0.03433749655664      0.28279280141314
  Cl  2.65625292742732     -0.47089781748781     -0.74245121633371
  C   0.61492173553826      1.42015859927481      0.04888847452345
  H   0.20946892562615     -0.59314162383691     -0.82540115832012
  H   -0.06436448690050      1.89755286649575      0.75157804231548
  C   0.71265832739668     -0.74748494354779      1.39211782503272
  H   1.70102330463903     -0.48759005653900      1.77065734797267
  H   -0.04526773365194     -0.45179980829668      2.11636290294897
  H   0.67316697646460     -1.82798607195251      1.26221981731571
  N   0.30251077995380      2.04231178274329     -1.27346314401723
  O   0.31269646788655      3.27379103859090     -1.28169369240882
  O   0.08213181276256      1.33310195461032     -2.24517631761067
