17
Coordinates from ORCA-job run
  C   0.81347962996840     -0.07653347391126      0.06126563221569
  H   1.63713692454196      1.59014347668863     -0.91438211841256
  F   -0.67796266186791     -0.55867991396982     -1.02295955007881
  F   2.46333936570485     -0.00953589679244      0.84002135396991
  C   0.80845871080398      1.43009547529948     -0.20554331433700
  H   1.27894989830877     -0.72630220661376     -0.64989101316310
  C   0.10429358559989     -0.61673488886406      1.27177392750879
  H   0.62767442284513     -0.33168772959934      2.18237081522831
  H   -0.91565974705798     -0.23520053624167      1.29404374335176
  H   0.05211294248547     -1.70403048716973      1.20048567010602
  N   1.06110077672339      2.12686486360654      1.06830387695978
  H   1.26198372160763      3.09900521217147      0.85720221578583
  H   1.90984646089230      1.68908519860898      1.41691048886937
  C   -0.46512778580782      1.99933418388179     -0.81053318271349
  H   -0.70130037342975      1.50113019739838     -1.74529110657517
  H   -1.30032628413395      1.84492816535591     -0.12666732033888
  H   -0.33515958718434      3.08029836015087     -0.96670011837648
