16
Coordinates from ORCA-job run
  C   0.68425138699906      0.00019726153995      0.08267640710706
  H   1.29505608905564      1.65276763342913     -1.09869268136877
  Cl  -0.92963561027237     -0.68625730438808     -1.36884307881226
  F   2.56415135313632      0.01857743423363      0.91045267021865
  C   0.69449132931801      1.52233574340427     -0.18599838428448
  H   1.32327943758661     -0.63312041064952     -0.49256389064747
  C   0.04797126981735     -0.50427437457133      1.33948491680140
  H   0.67601743277462     -0.18586490502098      2.16840063214758
  H   -0.95778185270464     -0.09727150476432      1.45622559651789
  H   -0.01779525413385     -1.59174235280728      1.32040693681325
  N   1.25239686929727      2.17746369919367      0.98901210739209
  H   1.45793644127232      3.13461243331005      0.72886955935000
  H   2.10458261966097      1.65275347762336      1.19742871103034
  N   -0.58406320198136      2.18696447339889     -0.41683220459273
  H   -1.07668525118285      2.16622736175614      0.47009921707945
  H   -1.11871305864309      1.63760133431244     -1.07868651475202
