13
Coordinates from ORCA-job run
  C   0.61957725320404     -0.04974786862754      0.05901893230835
  H   1.77966891425470      1.75426234274531      0.02382197894391
  Cl  -1.76548121438095      0.05317571853833     -0.19422686989370
  Cl  2.88289502276168     -0.49149067883297     -0.41583501422783
  C   0.72811630696898      1.46518863012992      0.06019238542939
  H   0.49064371386782     -0.54834385001304     -0.87882296346883
  H   0.22135901009610      1.86663830894911     -0.81697826628184
  C   0.62324293557013     -0.79243867892542      1.36399664340537
  H   1.50230267952665     -0.51458592391829      1.94616668480881
  H   -0.27302110250473     -0.55639548686991      1.93567527983331
  H   0.66092528057251     -1.86450766547273      1.17694850450276
  C   0.14595050270770      2.08009541473380      1.25355476864962
  N   -0.23910930264465      2.61837973756343      2.22273793599069
