14
Coordinates from ORCA-job run
  C   0.43610347442120     -0.04750606528103      0.11909356534229
  H   1.83425160288177      1.49796888081641      0.67123018462703
  Br  -1.77534138729474      0.03013898264314      0.00591437650933
  H   2.50394862631550     -0.15813447447047     -0.62270709025810
  C   0.84763927787738      1.41038887809990      0.22899557767365
  H   0.56649933266259     -0.46013818160110     -0.86093029021765
  H   0.82976940429815      1.89200380183493     -0.74458867012470
  C   0.66518601433443     -0.95809232279617      1.30523390168100
  H   1.72940846595469     -1.00605645670048      1.52718745979061
  H   0.12180146397983     -0.58725921759058      2.17370386504765
  H   0.30534262003411     -1.96180061167795      1.07079854604600
  N   -0.03393609788923      2.24344838755046      1.12309320564272
  O   -0.55362681421403      3.25258087833460      0.64625278200521
  O   -0.09969598336165      1.92390752083834      2.31042258623494
