17
Coordinates from ORCA-job run
  C   0.78718398282189      0.04234466001873      0.08074630121172
  H   1.67697957767539      1.98640820900569      0.12810129916318
  F   -1.27850005267196     -0.05989890961784     -0.18510093531054
  Br  3.15953018490319     -0.23940765742938     -0.18481046399659
  C   0.67370969630366      1.56104062548485      0.06434969441584
  H   0.67577836009122     -0.45902903930715     -0.86110833429093
  C   0.67630409906810     -0.74187036062955      1.35754458431697
  H   0.92138156770524     -1.78733153499577      1.17113351877113
  H   1.35978245856372     -0.36587127508534      2.12001374519853
  H   -0.35662784015161     -0.66824268514481      1.69242241989220
  C   -0.14414827281765      2.07907626258636      1.25317768842121
  H   -1.14360293543588      1.65323867809879      1.18398765989251
  H   0.30715475188561      1.81339912598569      2.21458802701227
  H   -0.19607578021347      3.17308692553149      1.20230596157916
  N   0.09940275908033      1.92760915860954     -1.23201228707259
  H   -0.11471904239141      2.91994179811459     -1.22169056590484
  H   -0.77554351441637      1.40036601877412     -1.23926831329921
