14
Coordinates from ORCA-job run
  C   0.59607055887500     -0.01108344313775      0.11212716067814
  H   0.99565398524970      1.88857603471460     -0.73061060226979
  Br  -1.64704359336804     -0.58827552625748     -1.01287485857329
  Cl  3.04866263910327      0.09548000394610      0.29900618053016
  C   0.45153239673529      1.49123608763735      0.13451477536728
  H   0.90881205056684     -0.49644771042515     -0.78946164858144
  H   -0.60666000131567      1.72222859435941      0.01141868996424
  C   0.33733107729433     -0.79109990237798      1.36283284758191
  H   1.09078473722117     -0.54623125883661      2.10907791706932
  H   -0.63932300921845     -0.52239958944855      1.76500734097182
  H   0.35796086213545     -1.85940567471315      1.15247991522358
  N   0.88117189442332      2.04586544249149      1.41974861514210
  H   0.70474537616495      3.04320491050866      1.41110596563691
  H   1.88334102613282      1.90148203153905      1.48312770125906
