15
Coordinates from ORCA-job run
  C   0.30483752189209     -0.02619561759231      0.12303309044971
  H   1.57605862273371      1.66159636717470      0.36008570353027
  Cl  -1.79203731831280     -0.08497545923812      0.39826478049286
  H   2.25638602125359     -0.27810394397174     -0.82669472544877
  C   0.54376487621754      1.46887678871607      0.07110114723442
  H   0.28604079932814     -0.56803292718431     -0.80203689125414
  H   -0.11029870395535      1.94520505405452      0.81125734767224
  C   0.74144759547414     -0.75037808955879      1.37689267809749
  H   1.82449123120389     -0.72794746161479      1.45835108989921
  H   0.28887703968313     -0.26891423393929      2.24876198774416
  H   0.40408248266744     -1.78873157387105      1.35503229283216
  C   0.28246158033897      2.04233784969835     -1.31222898249959
  H   0.98124769054198      1.57731018988037     -2.01166247905840
  H   -0.74175217272519      1.82766573156628     -1.62618917578783
  H   0.42729273365874      3.12828732588011     -1.32973786390380
