14
Coordinates from ORCA-job run
  C   0.43032968526795     -0.04096652686198      0.11426429052364
  H   1.82588331471516      1.47855702164741      0.76019709904359
  Cl  -1.64389921339877      0.05934713551517      0.13850955600121
  H   2.41498054588944     -0.14983272204697     -0.63069554422515
  C   0.87314384990446      1.40601957715666      0.24845638632171
  H   0.48497728381921     -0.43823765225497     -0.87732738436601
  H   0.92236749019666      1.89313385281444     -0.72048865358727
  C   0.67661831648368     -0.97228275950487      1.28046485344679
  H   1.74367835130507     -1.05873565458062      1.46984606393341
  H   0.16968610759061     -0.59062342479888      2.16695399351292
  H   0.27117979665445     -1.95969318016859      1.05184661222304
  N   -0.05550622320433      2.25082457950332      1.09384483853200
  O   -0.60715733643355      3.21592930390205      0.56582994566971
  O   -0.12893196879002      1.97801044967781      2.29199794297043
