16
Coordinates from ORCA-job run
  C   0.53273590974474     -0.00461513638784      0.04728151892723
  H   1.69177180293063      1.79488054285905      0.42368371891586
  F   -1.13440445692822      0.06798572511120     -0.12085806143149
  H   2.50903592351698     -0.15548051542048     -0.09859770259262
  C   0.70164762060288      1.50533130946131      0.08933020993795
  H   0.70308895709489     -0.43352188975494     -0.92105596493060
  C   0.63156760027239     -0.87128770262903      1.28164831453811
  H   0.96417221666411     -1.86603426160289      0.98467240404762
  H   1.34672696470886     -0.48455549866845      1.99929116753128
  H   -0.35350056125043     -0.93771551842527      1.75270875398142
  N   -0.22039790662525      2.07276600370058      1.21245852453312
  O   -1.11214660755655      2.86287375090834      0.90691055446887
  O   0.05145863136912      1.75715788216450      2.36900922292408
  N   0.36332236967669      2.06139693697314     -1.17284843977146
  H   0.31607498972637      3.06973195901389     -1.11286939361489
  H   -0.56138345394720      1.71037641269691     -1.39312482746447
