15
Coordinates from ORCA-job run
  C   0.39923867956425     -0.05552438380573      0.05459420295296
  H   1.72390624178503      1.54401607281970      0.07985830222549
  Br  -1.82097095771088     -0.16354215611025     -0.07800622072500
  H   2.52354592155094     -0.37188285953837     -0.44493571953017
  C   0.63694875883087      1.45047959686100      0.04318693680121
  H   0.63441181022551     -0.53399040784298     -0.87955303991834
  C   0.65251094030069     -0.77775260536663      1.36232941018333
  H   1.65134062586580     -0.56424606446685      1.73190452732843
  H   -0.08995247210134     -0.47816433460546      2.10661588168999
  H   0.57322205397717     -1.85409625753174      1.19993266498807
  C   0.09336008389273      2.09589083922245      1.25891832279863
  N   -0.27605651020728      2.70651017822171      2.19419236762398
  N   0.17062246933310      2.07042114149723     -1.19130934728003
  H   0.39481567233977      3.05857348160012     -1.17071813428428
  H   -0.83745331764640      1.97137775904578     -1.23682015485425
