15
Coordinates from ORCA-job run
  C   0.38229207266787     -0.06444203780942      0.10785472312689
  H   1.71496469603893      1.51202972288212      0.48976523180941
  Br  -1.93756316503392     -0.06093061363460      0.34116506249336
  F   2.22878097069590     -0.10938319594235     -0.62991221765954
  C   0.68007979830249      1.42546084752421      0.15889917352019
  H   0.23677914150210     -0.48832253135972     -0.86470450566544
  C   0.74498474562334     -0.93247328777729      1.28056566627268
  H   1.82355105260576     -0.87100614946779      1.41432533908234
  H   0.22778501771673     -0.62256026164024      2.18636441049670
  H   0.46941427623663     -1.96327556840156      1.05471219714971
  N   -0.11539062130111      2.21897155092937      1.17693567528105
  O   -0.82348505679902      3.14522805826542      0.80134799341496
  O   0.08036567736295      1.89647892948699      2.34542949280694
  C   0.55449741488913      2.03683352615879     -1.15807739222653
  N   0.47296397949224      2.54061101078604     -2.21490084990269
