16
Coordinates from ORCA-job run
  C   0.75549606395577      0.03819446982185      0.03838316589063
  H   1.44844642752794      1.81233545493216     -0.89089427878337
  F   -0.84285314417940     -0.28686233430755     -1.20918493666102
  Cl  2.90408003176130     -0.20089485245613      0.77572725219477
  C   0.74638827616799      1.57241325570146     -0.07956305729010
  H   1.07979912421035     -0.53933318060744     -0.79970651914538
  C   0.05605752849310     -0.60996121218403      1.19095271098412
  H   0.36854536771500     -0.16063223074233      2.13236728134080
  H   -1.01252067841432     -0.46514954550100      1.03748371456349
  H   0.26645853320309     -1.67895143073443      1.20803216514014
  N   1.11171535609942      2.20045065083792      1.18836972251723
  H   1.09663858410568      3.20022380870317      1.02123171204239
  H   2.05415874713285      1.91967441191481      1.42844831190883
  N   -0.55565635921364      2.13503773931210     -0.42436918641242
  H   -1.09121456377875      2.09205450727228      0.43924410817880
  H   -0.97007929478636      1.42237048803717     -1.03508216646891
