17
Coordinates from ORCA-job run
  C   0.54634093337230     -0.06451967466701      0.06652647312178
  H   1.69435923000442      1.69909529582080     -0.07368967685629
  Cl  -1.85825508239822     -0.09732942741002      0.03208521218393
  Cl  2.79238118694015     -0.48921473614511     -0.49976662567810
  C   0.63889858535566      1.44545244505068      0.04836521506782
  H   0.37288691182636     -0.57318079366928     -0.85957235444501
  C   0.65621813044770     -0.78592410276799      1.38302542875450
  H   1.57809960699977     -0.50906278065228      1.89429422256787
  H   -0.19651264106672     -0.55856626431397      2.01998004025608
  H   0.68212825754957     -1.85881978333712      1.19875405149316
  C   0.09918526107359      2.16231389371737      1.27005096216301
  H   -0.97189206842370      2.00140049180332      1.36804397516111
  H   0.60783110500002      1.77798237614519      2.15675162511615
  H   0.30189881326263      3.22986172060803      1.19217272234536
  N   0.02528084272244      1.98865894381496     -1.21954749212935
  O   -0.51925207830520      3.08979801741309     -1.16117334703569
  O   0.18828300563926      1.34231437858929     -2.24675043208628
