15
Coordinates from ORCA-job run
  C   0.68404532068888     -0.04315420250266      0.06082301792982
  H   1.01007884618488      1.88788743590014     -0.74819777819325
  F   -0.87724605338142     -0.56591847759126     -0.80155400355132
  F   2.40537349148386      0.26890908691795      0.63753784577954
  C   0.35327204895443      1.43400951322683     -0.00039694303158
  H   1.16342002570693     -0.51070630535873     -0.77596583083869
  H   -0.67570613447134      1.51908441817609     -0.34905968137900
  C   0.30352679630945     -0.85389505661907      1.27219297883922
  H   0.95383697142118     -0.61269440400512      2.11179359554664
  H   -0.74183772984021     -0.66771977841931      1.52119909982491
  H   0.39697959390614     -1.91547303948028      1.03740967657066
  C   0.54076607024642      2.16874188650530      1.32396918778583
  H   -0.11286632827454      1.75940829831860      2.10012902949860
  H   1.57367562636331      2.05559785083125      1.64430951294862
  H   0.29825145470203      3.23294277410028      1.21625029227001
