16
Coordinates from ORCA-job run
  C   0.37690326075130     -0.05972731808984      0.10275532322868
  H   1.65462291058081      1.54342056253331      0.24516247977889
  Br  -1.97012963198180     -0.17356533640543      0.31148630293913
  F   2.26526360397478     -0.15884484864982     -0.65732742820127
  C   0.57492774316353      1.44481766158277      0.09813772397934
  H   0.27615440039855     -0.55827277666536     -0.83977357262898
  C   0.75149887212466     -0.82846331354419      1.33658401037820
  H   1.83874866912459     -0.80692237576077      1.39754429461061
  H   0.30084152399431     -0.38530185550383      2.22674157371623
  H   0.40987099515034     -1.86081587226553      1.25932544028361
  C   -0.08095865029988      2.14972893652723      1.20340606684689
  N   -0.50415590783172      2.80422374652490      2.08299310948035
  C   0.23674519950546      2.05724542127414     -1.25720281477818
  H   0.87824349974677      1.56011749698162     -1.98560259294693
  H   -0.81420938101265      1.89051216908714     -1.49861500342421
  H   0.44250289261095      3.13112770237363     -1.26645491326236
