17
Coordinates from ORCA-job run
  C   0.55980208571999     -0.05764026897825      0.07123280077459
  H   1.69631751914417      1.71716712860038     -0.04809522723785
  Br  -2.01244880102909     -0.16638748917847     -0.02380544553380
  Br  2.94943784283737     -0.52597855571103     -0.55664211324935
  C   0.64038497233627      1.45471280114679      0.05747957631463
  H   0.39099941512736     -0.56671327915633     -0.85643886851390
  C   0.65444622644424     -0.77840878848957      1.39050470980573
  H   1.58762780310029     -0.53264428927998      1.89834063648628
  H   -0.18564900723533     -0.51794188625360      2.03249117682909
  H   0.63752542462604     -1.85284853541824      1.21234743066583
  C   0.08379768176196      2.16264698073678      1.27763030441114
  H   -0.98382117541245      1.97613436459543      1.37632441074317
  H   0.60265431010075      1.79382007830212      2.16511366276947
  H   0.26052932705699      3.23446745485196      1.19573294202859
  N   0.04139921813866      2.00107814463872     -1.21697955924256
  O   -0.50255603864312      3.10269566448982     -1.16247320017130
  O   0.21743319592590      1.35610047510347     -2.24321323687976
