16
Coordinates from ORCA-job run
  C   0.63880626245473      0.00124274763361      0.05148252756395
  H   1.70678701212166      1.82574893445038      0.38298327965759
  F   -1.12763287038960      0.06457296212499     -0.18171477370622
  F   2.50604175011014     -0.08737785564686      0.00741231720493
  C   0.71036912960327      1.51399057465353      0.07965669436734
  H   0.72345824663282     -0.43627533060426     -0.92430970001060
  C   0.61289626381502     -0.86314829080081      1.28232540615849
  H   0.87372568777549     -1.88012093117863      0.98420663176638
  H   1.36044064011242     -0.52153047083266      1.99181919146464
  H   -0.37474885277093     -0.85663336949006      1.73917113962036
  N   -0.19035774718366      2.06235670448582      1.21358284568611
  O   -1.08460805726097      2.85701223720209      0.92977431745410
  O   0.09847093844699      1.73647731499074      2.36304693877173
  N   0.32883587957332      2.04446815943226     -1.18239050780149
  H   0.23050827755008      3.04928420994284     -1.12318675030722
  H   -0.58322256059075      1.63922240363702     -1.36621955789013
