14
Coordinates from ORCA-job run
  C   0.57457054630344     -0.01316029633405      0.12030140403793
  H   0.81566448274139      1.87684266081232     -0.79947460438584
  Br  -1.37591909141894     -0.64689970881261     -1.11222215029446
  F   2.59625600850547      0.26348026774288      0.56469578712614
  C   0.37354033089226      1.49034853102815      0.12978263818185
  H   1.14961115662728     -0.46191449180460     -0.66190572031007
  H   -0.69515889252747      1.70932775393565      0.11324979385755
  C   0.31492086560967     -0.78382600221815      1.37923646528742
  H   1.12145401455062     -0.54021972265429      2.06717832993828
  H   -0.64348648462333     -0.50230578079081      1.81689467987303
  H   0.31240596516915     -1.85494561528879      1.17536831246750
  N   0.95140985335996      2.06112968693284      1.35102161074946
  H   0.95777496014844      3.07049725363475      1.25574172051207
  H   1.90999628466202      1.70477546381671      1.32763173295916
