14
Coordinates from ORCA-job run
  C   0.45957958957488     -0.06305225430477      0.07535461830811
  H   1.55088581595329      1.76022495922324      0.40334180298198
  Br  -2.05891431287314     -0.11308528772081      0.29900459601067
  Br  2.78645650503458     -0.41625673725353     -0.85543732932671
  C   0.56884773555200      1.43110410562620      0.06862862653089
  H   0.21219608855845     -0.58684968725306     -0.82567713764676
  H   -0.20061602599009      1.88356579217752      0.69403936471805
  C   0.71674875393908     -0.74619614027096      1.39350056693472
  H   1.74540568896069     -0.58186341475065      1.71379543189332
  H   0.03528101031107     -0.36412369285050      2.15401341140144
  H   0.54832797792492     -1.81747616716027      1.29191003293982
  N   0.38624939034217      2.05425828815040     -1.27785107141362
  O   0.59904733403330      3.26631026628498     -1.32158037444613
  O   0.02591444867882      1.36562997010221     -2.22261253888580
