16
Coordinates from ORCA-job run
  C   0.30983732251352     -0.06545807685197      0.11065041398767
  H   1.66076000211393      1.53965968993606      0.23857864659175
  Br  -1.92027883758257     -0.15358783205327      0.28239242266706
  H   2.26645080953525     -0.24545449384848     -0.79461141196448
  C   0.58352069088069      1.43893153114109      0.09408856415827
  H   0.34925149063312     -0.55758290922159     -0.84127080622446
  C   0.72762129602277     -0.81983893818803      1.35425394365875
  H   1.79984576810251     -0.72297857706871      1.50919608210478
  H   0.18966637682737     -0.42979116051941      2.22246855481314
  H   0.48056933913050     -1.87803700853004      1.24893305649190
  C   -0.05018113972039      2.14963188686676      1.21086827687008
  N   -0.45677643680612      2.79874581554292      2.10319249173128
  C   0.22933271844636      2.06767072351026     -1.24969787158731
  H   0.83995484971357      1.56508779392473     -2.00416889973948
  H   -0.82908475111465      1.92483666860323     -1.47120239422734
  H   0.45638050130417      3.13744488675647     -1.25451106933161
