15
Coordinates from ORCA-job run
  C   0.53362952575609     -0.08458802254841      0.06115186160854
  H   1.73593750554967      1.67660319554443     -0.01746330194849
  Cl  -1.83037194755703      0.10457632572158      0.06748263813979
  Cl  2.72448134280131     -0.51024878704092     -0.54255976761178
  C   0.67273712025050      1.42175040225741      0.03553281382978
  H   0.31582268732729     -0.58059181124685     -0.86273244953608
  C   0.63619841433894     -0.78050011153922      1.39239161259929
  H   1.56467313485750     -0.50771507675851      1.89387635089760
  H   -0.20773855510258     -0.52273438730618      2.02914218449400
  H   0.64492621602780     -1.85717560830120      1.22738895310465
  C   0.11419597127409      2.08860154302140      1.20780649945470
  N   -0.19128115895022      2.63554827252622      2.20102054692662
  N   0.11307388259052      2.03075193223641     -1.23170981516330
  O   -0.29819995335486      3.18328572895226     -1.15470482822646
  O   0.21129581419100      1.36590640448158     -2.25126329856886
