16
Coordinates from ORCA-job run
  C   0.47054831600004     -0.06144007425776      0.08057989945691
  H   1.69185496631244      1.64654296764299      0.22904308082920
  Cl  -1.92856864511755     -0.03388160139217      0.24846246622165
  Cl  2.58809187201122     -0.47525753985336     -0.82867233308567
  C   0.62600512169888      1.45040985010492      0.07631721116501
  H   0.16626520799963     -0.55598331342104     -0.81876457879272
  C   0.69599892254310     -0.80144272338216      1.36688692189150
  H   1.69496219976240     -0.58466456569211      1.74804518106078
  H   -0.04528821167129     -0.50172833013890      2.10702646881372
  H   0.61372560881679     -1.87451445488915      1.19858246658653
  C   -0.04543267361874      2.09564131250198      1.21087669559409
  N   -0.46189905134442      2.71455210663417      2.11842818852598
  C   0.21203957286228      2.07403691063064     -1.25369908305595
  H   0.81400508239925      1.62350580399714     -2.04486850094295
  H   -0.84478880942366      1.88102329019056     -1.43469661629100
  H   0.38935052076965      3.15248036132425     -1.24438746797711
