15
Coordinates from ORCA-job run
  C   0.91605639772372      0.12035686165792      0.41543431558230
  H   0.18445472290245      1.46214064159164     -1.05147767607788
  F   1.11746058367595     -0.38365017122787     -1.35452024958135
  F   1.08088295394215      0.67867508126946      2.13143900345333
  C   0.46085324199068      1.50980026075695      0.00188330739762
  H   1.97097863118009     -0.07060100082572      0.46228120089640
  C   -0.09093122763139     -0.96458889870233      0.67159701149133
  H   -0.50235041374207     -0.86520208267812      1.67459195176512
  H   -0.88717566165669     -0.90449409972048     -0.07174825964994
  H   0.38845751723720     -1.93673092342136      0.55387880602498
  N   1.49693638013895      2.53056697447659      0.17345342594946
  H   2.24241650520562      2.26579466263633     -0.46387666301435
  H   1.83604261740215      2.35159274226335      1.11581746308990
  C   -0.74172423285999      1.91668999691773      0.75053219496148
  N   -1.74664801550880      2.25454995500593      1.25428416771161
