17
Coordinates from ORCA-job run
  C   0.71895959496899     -0.05961812504722      0.03588374673063
  H   1.64560307117847      1.60181281033163     -0.83864119101059
  Br  -1.29772943847494     -0.95678867671323     -1.36300201716711
  Cl  3.11288846732743     -0.18094191043782      0.71663741137076
  C   0.78895221293494      1.44377284503180     -0.17081354018075
  H   1.14516335099213     -0.69987260003101     -0.70884872461523
  C   0.16430798543547     -0.61196779871007      1.31141197918787
  H   0.76961925581868     -0.28142950598086      2.15308259427019
  H   -0.85090101727376     -0.24317492015717      1.46061938795214
  H   0.14727418811565     -1.69935935660311      1.27138240791071
  N   0.98528873657104      2.08706590263991      1.13439111617959
  H   1.05434536614555      3.08675946525390      0.97882221445546
  H   1.88460966445387      1.76783500503742      1.48343105475599
  C   -0.43863430586601      2.08529648921758     -0.81442133407801
  H   -0.61567005301292      1.69344601188619     -1.81225473665218
  H   -1.32770783306522      1.90211277029880     -0.21163754674285
  H   -0.26352924624937      3.16723159398322     -0.87563282236658
