13
Coordinates from ORCA-job run
  C   0.50758535552843     -0.06027005114574      0.06318690462514
  H   1.57569465404907      1.75775291974253      0.42370458146567
  Cl  -1.88134126805796     -0.08228822834934      0.20819356363204
  Br  2.82624053453159     -0.40756000785376     -0.81142870198088
  C   0.59313628815096      1.45051985581045      0.05891327490640
  H   0.27044682465395     -0.59606164119014     -0.83295507535432
  H   -0.17071191622285      1.85008752099974      0.72937119810184
  C   0.72027914096909     -0.74620994162824      1.38543025607594
  H   1.72838998983571     -0.55619938430986      1.75357424589466
  H   -0.00731709848250     -0.38122636450728      2.11086434328544
  H   0.58537720908031     -1.82132781089114      1.27429448250810
  C   0.39204737013365      2.04342101729286     -1.25952618302574
  N   0.23594291583055      2.57008211602993     -2.29623289013430
