16
Coordinates from ORCA-job run
  C   0.66592867888582      0.00181651693567      0.08683186077654
  H   1.26660130278770      1.64117581062385     -1.11963185458116
  Br  -1.03261813877183     -0.76375736184573     -1.45813181327439
  F   2.59329070174172      0.00094385381138      0.89828011263748
  C   0.68766811459178      1.52159550400834     -0.19161596900820
  H   1.31307831086135     -0.63591860390234     -0.47510690548580
  C   0.05222846275205     -0.48655719610485      1.36108972656320
  H   0.69844215396939     -0.14870633878955      2.16891544126156
  H   -0.95241810236575     -0.08187930709626      1.49537406883770
  H   -0.00370685293542     -1.57473792704041      1.36474145420986
  N   1.28503102987075      2.16913264202255      0.96869662417337
  H   1.50329177516295      3.12106884315889      0.69956244319508
  H   2.13204324241176      1.62627841161944      1.15915591812440
  N   -0.58691690815618      2.20355144911303     -0.39042381615176
  H   -1.06383095307612      2.18315799858747      0.50495613589247
  H   -1.14265281772998      1.67380570489849     -1.05125342717035
