16
Coordinates from ORCA-job run
  C   0.53776309941917     -0.07282937382467      0.07660708014832
  H   1.70660430414283      1.66449062653082      0.14463514314341
  Br  -1.99932914893338     -0.25077214189721      0.07297194780610
  Cl  2.77132671521882     -0.45633006395520     -0.67339064730953
  C   0.63714800590174      1.44554392663840      0.07425692762279
  H   0.33826509976258     -0.59528036114196     -0.83598431141466
  C   0.75529337990705     -0.79381841392984      1.37843171334622
  H   1.68122041218480     -0.44737323247743      1.84065240939662
  H   -0.07728845929276     -0.62692404727468      2.06027288266392
  H   0.85123987332566     -1.86202322799197      1.19061502942546
  C   -0.04376032325666      2.16247438094787      1.24791313648623
  H   -1.12114167026345      2.01894143410068      1.21718989659795
  H   0.34203730437524      1.77539495939389      2.19335434631510
  H   0.18943095761063      3.22953794060166      1.19654647839766
  C   0.19676173960871      2.01383476974078     -1.20055265355567
  N   -0.12733128971099      2.54392282453883     -2.19700937906993
