15
Coordinates from ORCA-job run
  C   0.24320718063857     -0.07973888306778      0.14154702851247
  H   1.66455617192344      1.47056082830717      0.68799054117419
  Cl  -1.73448871829921     -0.06709096721139      0.53512526738289
  H   2.08335148896549      0.03336203159423     -0.82236234797049
  C   0.71285040672631      1.37188163970790      0.17796259004042
  H   0.17306558445690     -0.49287849283938     -0.84651354392113
  C   0.75897221351832     -0.97253405027440      1.25181582847152
  H   1.84005136019196     -1.06731645406946      1.18553172898158
  H   0.47391390559617     -0.54904601504745      2.21587109072777
  H   0.30134748379014     -1.95969854050204      1.16698421276766
  N   -0.21168672975175      2.24269441599463      1.11590205087027
  O   -0.97140425546700      3.07647387954967      0.63896759062931
  O   -0.02672518463549      2.05445787158683      2.31805764159809
  C   0.74924625106231      1.99557640597426     -1.13650466772134
  N   0.68376284128382      2.60651633029724     -2.14060501154323
