16
Coordinates from ORCA-job run
  C   0.48320327667682     -0.08552992892574      0.06161798050831
  H   1.69674486521639      1.54146139319281     -0.00211578108449
  Br  -1.86118519146702     -0.32017986815596     -0.04587136379470
  F   2.49741404616503     -0.18733366084646     -0.28326847946874
  C   0.60719254846234      1.42936656345801      0.03306542879734
  H   0.55958451609190     -0.60749031844379     -0.87113733310211
  C   0.71535949297999     -0.80576322811073      1.36352756313139
  H   1.71547948539339     -0.54572510609307      1.70533599289765
  H   -0.03703821880856     -0.55451454793764      2.11120251213023
  H   0.67926617643168     -1.88102605940514      1.18743791800112
  C   0.04161974036803      2.16094856648498      1.25052655536945
  H   -1.03384577838237      2.00382490443970      1.33314881502897
  H   0.52626543931733      1.79896214605679      2.15948647961635
  H   0.24230812102261      3.23210682557064      1.16323185260835
  C   0.08643848628800      2.01300620637924     -1.20249505392929
  N   -0.28056700575555      2.55667611233637     -2.17718308670984
