13
Coordinates from ORCA-job run
  C   0.38891057727879     -0.05420053453663      0.08225563938087
  H   1.60458612694900      1.62315382668096      0.38902565397632
  Br  -1.90920061765854     -0.15988648614802      0.25530206353775
  F   2.35936942532009     -0.10390619486999     -0.56069639539213
  C   0.57762578751917      1.44779996949773      0.06884158486228
  H   0.37708624769538     -0.58311131129148     -0.84973628719227
  H   -0.12907820213673      1.94658358578201      0.73667047810792
  C   0.76725634230262     -0.77328817901859      1.34798449569339
  H   1.85162616798144     -0.71484533809753      1.41486017939536
  H   0.28569964819175     -0.31848281383135      2.21656244142882
  H   0.45818685922915     -1.81780508252558      1.29685346273768
  C   0.43347303737542      2.01446082660245     -1.26806557027238
  N   0.31022859995246      2.51424773175601     -2.32246774626361
