15
Coordinates from ORCA-job run
  C   0.40999163673241     -0.02079191698025      0.08489305596013
  H   1.67366248908626      1.66975950552817      0.25358845551705
  F   -1.38084577931491      0.15111615685152      0.52188919158569
  F   2.05339902113232     -0.36430979869631     -0.68723783341887
  C   0.62033439953301      1.46914712058504      0.04562746237332
  H   0.02834234046249     -0.53651042531083     -0.77469477411949
  H   0.00003138940763      1.92112257213388      0.82247907290110
  C   0.73850792017015     -0.76712505047198      1.34783832542406
  H   1.80174139783834     -0.66394688322860      1.56453674692434
  H   0.13094642563114     -0.37944878845156      2.16573915674908
  H   0.51114367256868     -1.82825862672013      1.22523635268551
  C   0.24274776257150      2.03129154485255     -1.31641120943879
  H   0.86349378413528      1.55210595448699     -2.07600865431294
  H   -0.80852099873073      1.80710735665076     -1.50872703730768
  H   0.38792453877644      3.11674127877076     -1.37451831152251
