13
Coordinates from ORCA-job run
  C   0.38058980893402     -0.06986439524987      0.06805509427911
  H   1.64464321020179      1.63967092803783      0.31446897207654
  Br  -1.82362883437394     -0.17494634790608      0.09192659579762
  H   2.47817614997732     -0.22695578402756     -0.63780676981043
  C   0.60674985906085      1.43843706717463      0.05944618631615
  H   0.55320518694593     -0.59583813770770     -0.85212736323257
  H   -0.05340987206148      1.89891443617076      0.80363147253389
  C   0.72835430970730     -0.75930343225264      1.37209525168700
  H   1.80373951594427     -0.74385088825575      1.52393647266255
  H   0.21918214980885     -0.25669782935350      2.20026982870507
  H   0.38506648555341     -1.79552298063089      1.34807974147518
  C   0.33202746229993      2.05939718036082     -1.23407100953497
  N   0.12107456800172      2.60728018363994     -2.25051447295508
