16
Coordinates from ORCA-job run
  C   0.62922026239161     -0.06634532154907      0.04923448050289
  H   1.73688219188643      1.76774596154418      0.07021836530676
  F   -1.39612574679051      0.08431905011347      0.17791868658884
  Cl  2.65555261990514     -0.48375210215384     -0.61433241392509
  C   0.68723750389729      1.46153095626250      0.05801681677542
  H   0.23438402023087     -0.55638731313861     -0.81708041273673
  C   0.69032624221288     -0.80505395523909      1.35827494996002
  H   1.54350390613307     -0.48035365103423      1.95768006983631
  H   -0.24715328219145     -0.63398969621233      1.88078640468835
  H   0.80739605813213     -1.87171461870402      1.16487016217423
  C   -0.01647939536002      2.11201639355344      1.25528495945673
  H   -1.06032479511263      1.81367939899263      1.22780405561921
  H   0.44258470044388      1.76742727760393      2.18511162469205
  H   0.09374517693562      3.19940994255034      1.20230197586982
  C   0.12180210624390      1.97892802722594     -1.18966228109049
  N   -0.28431156895822      2.46132965018478     -2.17991744371831
