15
Coordinates from ORCA-job run
  C   0.50530944453195     -0.05436280136222      0.05815163618163
  H   1.69932660517096      1.59416973784026     -0.08799152612853
  Br  -1.81937883668506     -0.29629855389888     -0.24369507618650
  F   2.60833213899209     -0.24020794127271     -0.17620521504528
  C   0.62464959896529      1.44844492621094      0.03284929776804
  H   0.68803299526459     -0.57635270466587     -0.85960449343562
  H   0.11758768204880      1.83283918141185     -0.85550783462687
  C   0.65921937917695     -0.79832676815452      1.35553631038550
  H   1.65854324560438     -0.57050526275019      1.72195504740215
  H   -0.10656043453661     -0.51899453044665      2.08059131648100
  H   0.59272404379080     -1.87177297342053      1.17606404825796
  C   0.10770140904795      2.16069091808574      1.27616940258856
  H   -0.94985392958097      1.94344006537006      1.44044863492533
  H   0.66704605362511      1.86021523368393      2.16575109819183
  H   0.22289060458380      3.24404147336879      1.16592735324080
