15
Coordinates from ORCA-job run
  C   0.78382610482761     -0.08245276097589      0.03864785893441
  H   1.48842350204817      1.74264086386985     -0.76003218145207
  F   -0.54767178797110     -0.51313617491310     -0.96523462556100
  H   2.40927723788913      0.28961289179766      0.80521307445047
  C   0.67439468302767      1.43636334417374     -0.08808762020111
  H   1.45434426155421     -0.59508406159112     -0.62343185430884
  C   0.20821970191352     -0.76961837185284      1.25847782269265
  H   0.80305013662993     -0.63080943726972      2.15648612847007
  H   -0.79478119534042     -0.37357164983540      1.42868729251812
  H   0.10844523791185     -1.83548443771012      1.04074097993994
  N   0.74797309310087      2.09634050447835      1.22633431003522
  H   0.83406987553579      3.09751958476972      1.07538068525930
  H   1.63630193441498      1.73824572470185      1.58593182939708
  C   -0.58474523310526      1.90288464969603     -0.71322504172331
  N   -1.49541755243697      2.46144933066098     -1.20231865845094
