18
Coordinates from ORCA-job run
  C   0.42102565372428     -0.05198699911248      0.09426747280482
  H   1.71178895180041      1.58685567021266      0.09983106569203
  F   -1.38615301370654      0.05203820744850      0.44162331756513
  F   2.11281536065849     -0.38487403157821     -0.61215891208420
  C   0.62889450554292      1.45151141210112      0.05540246943477
  H   0.09410338484546     -0.56748739868919     -0.78721689557926
  C   0.75387653616431     -0.81493026438215      1.34714435574820
  H   1.70267484386978     -0.45434426136242      1.74907657014384
  H   -0.04397956765298     -0.70556006422374      2.08046220409053
  H   0.88634665696406     -1.87027119953472      1.10458148904866
  C   -0.00697876820778      2.19435097977499      1.22823216197928
  H   -1.08764170970518      2.07950931260686      1.19614001630802
  H   0.34472560752315      1.79395201622360      2.18423049846052
  H   0.26637118868921      3.25691587742682      1.19007380096242
  C   0.12763078324258      1.98877943192185     -1.27858176718364
  H   0.67203875160026      1.49673629054320     -2.08852519298418
  H   -0.93711919837163      1.76229015013068     -1.36751503753764
  H   0.27495003301922      3.07258487049264     -1.36371761686929
