14
Coordinates from ORCA-job run
  C   0.46559568624977     -0.06551228653310      0.07400395832002
  H   1.55647548389176      1.76375836922944      0.36905478238467
  Cl  -1.91811654471868     -0.05776157148012      0.30472820482571
  Br  2.77155195172030     -0.44323990352145     -0.82783689190574
  C   0.56809724745016      1.42792300589393      0.06074157295034
  H   0.20062757414563     -0.59310450683950     -0.81932298434860
  H   -0.18937421527801      1.87583367571953      0.70238379251216
  C   0.71634976370669     -0.74186820247145      1.39618735380108
  H   1.71502540983190     -0.50622304404347      1.76306374330718
  H   -0.02578905721465     -0.42127804784650      2.12692751320443
  H   0.63898049959350     -1.82162418475337      1.27615070705172
  N   0.34739235867057      2.04542391665449     -1.28223255517571
  O   0.49022593443157      3.26803183455281     -1.31952767784959
  O   0.03836790751951      1.34183094543875     -2.23389151907767
