13
Coordinates from ORCA-job run
  C   0.45377849417233     -0.05920444081674      0.06379036302111
  H   1.82837879968379      1.62041109452814      0.10687807577607
  F   -1.23213509034675      0.18846826927044      0.18457965590273
  H   2.25344308467599     -0.44203396796712     -0.41007274242579
  C   0.75964752689559      1.43423407640166      0.05060164240696
  H   0.34423016673751     -0.56800247355059     -0.87178543619276
  H   0.37982862273305      1.85513029512033     -0.88405917457261
  C   0.66814457916884     -0.83810736271928      1.34238858095260
  H   1.49554575166456     -0.43488958511703      1.92534654849481
  H   -0.25120570181169     -0.80065405728594      1.93432095249317
  H   0.91539386195532     -1.87371074806820      1.10972302360504
  C   0.10115310284094      2.14740245638387      1.15338099207267
  N   -0.33913319836945      2.79118644382047      2.03115751846601
