15
Coordinates from ORCA-job run
  C   0.40369551779466     -0.05493640097065      0.05105555298822
  H   1.73039316714999      1.55456755707163      0.07898156087418
  Cl  -1.68520128593754     -0.08756722209466     -0.03032254439372
  H   2.47003075247425     -0.38169984730327     -0.42811203467398
  C   0.64611241544593      1.44899750016793      0.03896182272204
  H   0.58338599389678     -0.53597501443140     -0.89107284444554
  C   0.65061805020628     -0.78270728102385      1.35521066261887
  H   1.62229046079793     -0.52880103313798      1.76816225546886
  H   -0.13150382870696     -0.52935450600027      2.07614886870754
  H   0.63082891276946     -1.85862687059726      1.17580258118426
  C   0.09475252116932      2.09196293283912      1.25380332679575
  N   -0.28619204608259      2.70427938537757      2.18293745695668
  N   0.17070846460733      2.06425606418093     -1.19437815240178
  H   0.36314924949246      3.05872967553593     -1.16480625079341
  H   -0.83357834507732      1.93494506038625     -1.24218226160798
