15
Coordinates from ORCA-job run
  C   0.56406876541233      0.00541809581516      0.08219418889367
  H   1.77064232014945      1.71060918874027     -0.28423142278374
  Cl  -1.51476309260514     -0.09991231508554      0.14046458009156
  H   2.58944849416322     -0.25699262689505     -0.25531264666231
  C   0.72743085967973      1.53074813603750     -0.03998194252267
  H   0.71224032021278     -0.57148658435769     -0.81535573220352
  N   0.83439486972476     -0.51733263544547      1.40752403728080
  H   1.75198869448076     -0.93481018698257      1.33481845623620
  H   0.13241234934343     -1.21204045268014      1.63225848521088
  N   0.34663164551685      2.29417476093846      1.11721965277456
  H   0.76920408070219      1.78840925662959      1.89183597773195
  H   -0.65594507845839      2.18412013754582      1.23348900422651
  N   -0.02564444414464      2.01595017389307     -1.24849292100678
  O   -0.82961168871256      2.93638648050931     -1.13174769209829
  O   0.25866190453519      1.46080857133728     -2.30867202516882
