14
Coordinates from ORCA-job run
  C   0.78116160564481     -0.07389646662104      0.03489220347012
  H   1.70394877133291      1.88548091580782     -0.06595241700172
  F   -1.18249645844477      0.08343047563297      0.05950166887388
  Cl  2.91054064546690     -0.30607445582725     -0.33229731428993
  C   0.70727421920553      1.44472151825697      0.02713470820144
  H   0.57507520695514     -0.56859932499012     -0.89675558167895
  N   0.74367475196895     -0.69538111080626      1.31095985681122
  H   1.24403884877839     -1.57182605545771      1.27072807213105
  H   -0.24739701925228     -0.84153012243377      1.47312189183093
  C   0.06736155383200      1.97847798840149      1.22530620405843
  N   -0.34017005570328      2.47068454728129      2.20943798606456
  N   -0.02162096913593      1.92301892706898     -1.20366598603563
  O   -0.74400031812430      2.90666742750395     -1.09875590664636
  O   0.24779921747594      1.34597573618270     -2.24889538578908
