17
Coordinates from ORCA-job run
  C   0.45668248206723     -0.05572002578408      0.12652048191529
  H   1.63798812862098      1.65634630437705      0.24683173066657
  Cl  -1.65957556671710     -0.35520733604649      0.44341770111024
  H   2.33884777793771     -0.23010931828834     -0.76867210177762
  C   0.57591595381281      1.46050968727007      0.10394842027461
  H   0.40187334159813     -0.58337205436348     -0.80827148550624
  N   0.93143412098926     -0.70478568339640      1.32539058060983
  H   1.89265972898371     -0.93714901901816      1.10804449323043
  H   0.40458088709690     -1.56268308948071      1.44312487328335
  C   -0.16319580535975      2.15909785999082      1.24547331069411
  H   -1.23553567343971      2.22177303154741      1.05947330486471
  H   -0.00942327233015      1.60847451415874      2.17509710014559
  H   0.23296413870248      3.17511988770000      1.36354049456910
  C   0.18052025749300      1.99128340977731     -1.26480477375103
  H   0.82274895511939      1.53674093408556     -2.02449024886100
  H   -0.86251035600563      1.74338324188052     -1.48028638901175
  H   0.29520490143074      3.08004765559017     -1.31158749245620
