14
Coordinates from ORCA-job run
  C   0.55951277989276     -0.05908323489702      0.04778799380392
  H   1.63910508322882      1.74758830986124     -0.14843763560325
  Br  -1.67240709122624     -0.41883058622696     -0.41322261595435
  H   2.71068290251799     -0.22972219327161     -0.03414351289072
  C   0.60292475000437      1.45922723071008      0.01360098625571
  H   0.87648772019986     -0.58267023956523     -0.83960258952280
  H   0.01894036018995      1.79681004151078     -0.84844698392901
  N   0.59258167912511     -0.70737995114517      1.33645504327028
  H   1.58359753378363     -0.82553778294273      1.51069479577648
  H   0.17431188081862     -1.62511781908232      1.23000041804211
  C   0.07308777844911      2.10715830458035      1.28613842391420
  H   -0.94567114328131      1.77721687239147      1.49394769605264
  H   0.69175477089492      1.83694010579593      2.14283554910226
  H   0.07647099540242      3.19810094228117      1.18223243168257
