15
Coordinates from ORCA-job run
  C   0.54461300945921     -0.08823914518373      0.08742993682145
  H   1.66768799675592      1.61846966088307      0.25046581325654
  Cl  -1.64865865794075     -0.40121284867270      0.33858551965009
  F   2.42846047776366     -0.09834949395725     -0.53783051864756
  C   0.60109714819902      1.43139542131524      0.10645850646635
  H   0.44331737853505     -0.61158497468527     -0.84509489194203
  N   0.95728155011244     -0.71728363789080      1.29935956902038
  H   1.93191276702526     -0.92404351639823      1.09654451734997
  H   0.43166200736087     -1.57291665200638      1.41570000838540
  C   -0.18340504808308      2.12183351231879      1.22254089253271
  H   -1.24713222298339      2.16503612484482      1.00222779550547
  H   -0.03758680846847      1.55038683522275      2.13943596941140
  H   0.20243466802605      3.13676305416189      1.35990767756431
  C   0.26359390828707      1.98107790579281     -1.20527792219150
  N   -0.01122817404884      2.47513775425499     -2.23454287318298
