15
Coordinates from ORCA-job run
  C   0.57421482767244      0.04558021106156      0.09752301321850
  H   1.75328191258847      1.77981198789207     -0.04739049469367
  Cl  -1.54813350598013     -0.17823216752562      0.19504817379749
  H   2.62059615286396     -0.29007825378039     -0.41377139678631
  C   0.68762073713716      1.56853513049602     -0.02007245717897
  H   0.67655969778814     -0.53676786146274     -0.80222119791186
  N   0.88726392266754     -0.49717671418769      1.40353232479600
  H   1.85359211477413     -0.78493647771520      1.29965057959478
  H   0.30934128763931     -1.31809545515431      1.54521129040385
  N   0.14415932655415      2.29587716771106      1.13279235066746
  H   0.60246407229229      1.90486610223629      1.95200467359386
  H   -0.82723969420182      2.01040713525198      1.22205704273076
  N   0.11248433650520      2.01189752735106     -1.27767612756449
  H   0.13711927551694      3.02553234756889     -1.26665951516755
  H   -0.86205446381780      1.73142932025703     -1.28918825949986
