14
Coordinates from ORCA-job run
  C   0.80200863236844      0.04058095433963      0.08772733453809
  H   1.72617503030207      1.97007988526306      0.03376026603557
  F   -1.20023862069300     -0.01994016230612      0.36342409459663
  Br  3.02327365845084     -0.25437672802927     -0.70455301506775
  C   0.71104797669586      1.57110353999974      0.00306909050375
  H   0.49082262232476     -0.57625034242306     -0.73674225610437
  N   0.99320176505358     -0.46933695864732      1.40502668644362
  H   1.50555288991818     -1.33917907887667      1.34116583783141
  H   0.03486967909724     -0.65912296286393      1.68998138156475
  N   -0.04925403179565      2.19348395136028      1.08065196200761
  H   0.46414386280766      1.98597603165754      1.93143140907546
  H   -0.90005224738143      1.62941251146975      1.10823331518951
  C   0.13330079705413      1.94662531131761     -1.29408489735494
  N   -0.30333201420270      2.26352404773873     -2.33612120925934
