17
Coordinates from ORCA-job run
  C   0.42836805863623     -0.05835949834537      0.13915916993206
  H   1.64225037228951      1.57458597010837      0.27888610527940
  Cl  -1.82289180772465     -0.34703356239900      0.54672688163921
  F   2.29744925324766     -0.19551401247082     -0.76001959796879
  C   0.56772424922582      1.44072193796791      0.12868465887763
  H   0.19164140808204     -0.58585155366945     -0.76546643534215
  N   0.93082173353120     -0.72338460360530      1.27133972748613
  H   1.92953065961275     -0.69444879288938      1.05678836302627
  H   0.62657882555118     -1.68846496227127      1.23665088941371
  C   -0.16954708707623      2.15925429872546      1.25564432987637
  H   -1.23380915478300      2.24956590841866      1.04040247475366
  H   -0.06087566012693      1.60540484618081      2.18926450199463
  H   0.25562217422236      3.16226230682990      1.38322502262183
  C   0.22475418592591      1.97994438453474     -1.25103356519698
  H   0.88269039865778      1.49972271780369     -1.97645512809425
  H   -0.81904360429313      1.76037468711575     -1.49413151388844
  H   0.36991599502151      3.06496992796530     -1.29691588441027
