13
Coordinates from ORCA-job run
  C   0.58468280139960     -0.07140195905000      0.01199268359856
  H   1.80819848268121      1.55363460067222      0.04518712774621
  Cl  -2.34003130580228      0.15967009854538     -0.11429424774179
  F   2.89967244967314     -0.15419785068148      0.15827180524850
  C   0.72701022458583      1.40878119154094      0.01278237977109
  H   0.22691163485400     -0.55111298246870     -0.88854966667576
  H   0.26781566114519      1.77042510901183      0.94441640363501
  N   0.73714767255615     -0.78608803161600      1.09225007081463
  H   1.53108643340025     -0.43714087930775      1.62345909373339
  H   0.74420949386863     -1.78277946091524      0.95429632657572
  N   0.14542049880717      1.96385252113528     -1.20329066956504
  H   0.29422352301079      2.96490788577168     -1.20558632542019
  H   -0.85501757017967      1.78591975736183     -1.15627498172032
