14
Coordinates from ORCA-job run
  C   0.32045880666091     -0.03458259020205      0.14532319682743
  H   1.51552874641619      1.63595973210001      0.48214758326452
  Br  -2.08703392448714     -0.20496509945321      0.51473308179773
  F   2.31929987259776     -0.16311515916837     -0.68600070681446
  C   0.49887549714114      1.45372825342724      0.13122715536613
  H   0.10442637613279     -0.55229763247529     -0.77303952916824
  H   -0.20516454588367      1.90563828103766      0.83274466859278
  N   0.82078767597647     -0.71263820091183      1.25361062052610
  H   1.82361101603031     -0.59094000466079      1.06881210456023
  H   0.60758295358881     -1.69799196785563      1.15733448119911
  C   0.33937264255461      2.01139902950478     -1.27334590420667
  H   1.09554389770094      1.53524347278643     -1.89716854998351
  H   -0.65939715482070      1.79380417660145     -1.66136585807600
  H   0.48481814039159      3.09643770926960     -1.29138234388513
