14
Coordinates from ORCA-job run
  C   0.46024590725652     -0.09154439517729      0.07556115087935
  H   1.66569352663184      1.52390345137394      0.65101379166762
  Cl  -1.68565293982817     -0.23542559149500      0.48758012906254
  F   2.23598259000490     -0.04874288820367     -0.64954327924680
  C   0.67789245809915      1.41570608175831      0.20925521152123
  H   0.23985481209885     -0.47022580584213     -0.90690086823512
  N   0.91572061784685     -0.89215770590666      1.16127653231139
  H   1.79469068873579     -1.27652808532748      0.83891553084926
  H   0.24084232007409     -1.61526616175330      1.35920578500030
  N   -0.24537735219841      2.14980259719182      1.15983721403371
  O   -1.07448982190826      2.92878544983419      0.70143494144427
  O   -0.04657623131879      1.93222153256253      2.34926706425897
  C   0.64328633695673      2.06293298307519     -1.09659186142894
  N   0.62371708754888      2.59743853790958     -2.14114134211780
