16
Coordinates from ORCA-job run
  C   0.34592412047421     -0.07319893469469      0.10599549029839
  H   1.64411249670136      1.57214870437120      0.48376887813225
  Cl  -1.73191721423714     -0.16054372223209      0.41327364837660
  H   2.21696085954600     -0.18747611270810     -0.74260333028471
  C   0.62419287553464      1.42872360228819      0.14209996979349
  H   0.26303735189321     -0.49366083695516     -0.88109410277630
  N   0.76882850083822     -0.85330533895879      1.23290947439649
  H   1.72886310103288     -1.10365531384650      1.04211356171423
  H   0.19618262310704     -1.68655645777775      1.27776298107985
  N   -0.18141349736017      2.14849732217229      1.20702972056424
  O   -1.06271334747258      2.93678238413037      0.86367243638362
  O   0.14872155495700      1.94401024899777      2.37295279603416
  C   0.38422618242453      2.05452811249200     -1.21127546654827
  H   1.06272561953405      1.56265658163559     -1.90908147930191
  H   -0.65087933791388      1.90210841947930     -1.51751883787432
  H   0.58610811094062      3.12712134160636     -1.19399573998778
