14
Coordinates from ORCA-job run
  C   0.56731625221024     -0.00194724492911      0.11442820346854
  H   1.78101320584769      1.65844128814346      0.04876713333591
  Br  -1.77193621408995     -0.21202951098840      0.37723753004632
  F   2.49961584646889     -0.14056860860074     -0.50172817384929
  C   0.69777817498946      1.51978958931347      0.02586301017377
  H   0.47092312852062     -0.60189385682756     -0.77282924373186
  N   0.97406393902942     -0.53066712381857      1.37499101207132
  H   1.95767834969283     -0.72036419015025      1.17942033100758
  H   0.48200381292988     -1.39853668437118      1.54152569116518
  N   0.10451307013215      2.29886044033099      1.10492708501274
  H   0.46265636969728      1.87868057488570      1.95789266740024
  H   -0.89070929832371      2.09661604246272      1.10464428231932
  C   0.23363035136856      2.01034810175659     -1.27443787856584
  N   -0.13702698847336      2.42585118279286     -2.30773164985392
