16
Coordinates from ORCA-job run
  C   0.37117581656133     -0.06883185447988      0.09516253499521
  H   1.65570786754395      1.59481030498772      0.49968401683514
  F   -1.19427773862044     -0.03393938254792      0.66643844924331
  H   2.01193826901113     -0.18100611660641     -0.77675268343856
  C   0.65014453450468      1.43324825707490      0.12679591711593
  H   0.06073403820980     -0.48019406561711     -0.85305573357212
  N   0.89132402759778     -0.88419556831003      1.16383089346009
  H   1.61085425168621     -1.47697776203510      0.78449218454682
  H   0.11049438811821     -1.42204066911708      1.51627335215638
  N   -0.21705564321565      2.12100802411005      1.17072146111385
  O   -1.19782001862167      2.77425704786951      0.81654667239173
  O   0.15044580124599      2.01410224901521      2.33915296866655
  C   0.40320230127397      2.07277291062815     -1.22070051469819
  H   1.07073878728932      1.58465053341423     -1.93042702441095
  H   -0.63694648105159      1.92353423512517     -1.51124474227277
  H   0.60229979846697      3.14698185648859     -1.20090775213245
