14
Coordinates from ORCA-job run
  C   0.60668466366065     -0.03835049034632      0.02626719642808
  H   1.73398206944568      1.78834063223682      0.08060570457942
  F   -1.08636321916758     -0.04475562518544     -0.02831192089529
  H   2.51955529427241     -0.19115937358606     -0.15400455057969
  C   0.69215949123237      1.48529225108099      0.03431203676731
  H   0.71675377789334     -0.50983330652028     -0.93478387379831
  N   0.69235843299116     -0.73668617424872      1.28104033954643
  H   1.55184433652823     -1.26102724021210      1.27219789703191
  H   -0.11879897013835     -1.34090158028548      1.33082974527648
  C   0.01774556216853      2.01375717277108      1.24459732872307
  N   -0.49429193185721      2.57624134950016      2.14029452145971
  N   0.09627045011912      2.00666949413826     -1.19801613620972
  H   0.05995116694410      3.01862175451901     -1.14978138690575
  H   -0.85255112409247      1.64954113613808     -1.20565690142365
