14
Coordinates from ORCA-job run
  C   0.66141653403094     -0.03402362903618      0.02315805109534
  H   1.75218240588174      1.77564123101964      0.10659176609681
  F   -1.11606511593384     -0.02523331239287     -0.01934841614601
  F   2.49872153962451     -0.16521577073429     -0.14408226912481
  C   0.70535225881588      1.48312274638834      0.04110246767668
  H   0.65406379171283     -0.51394980285402     -0.94100394482851
  N   0.71426469405926     -0.72950088426010      1.27159009318094
  H   1.54034392290740     -1.30696240839620      1.23010473354889
  H   -0.13205884976399     -1.27435229028720      1.34588215013193
  C   0.00906908045708      2.00672238516950      1.23836426264999
  N   -0.51153670726164      2.57034413621752      2.12817532855764
  N   0.12268737190585      2.00225537428602     -1.19748126404118
  H   0.05259463159679      3.01178684643030     -1.13496928011074
  H   -0.81573555803282      1.61511537844954     -1.20849367868698
