17
Coordinates from ORCA-job run
  C   0.40499786903925     -0.06000744626037      0.14985022560775
  H   1.63922787276830      1.54876954090971      0.29094374010795
  Br  -1.99781744746591     -0.41087791031691      0.52878913495106
  F   2.35363794911756     -0.19397638222808     -0.74370172408840
  C   0.56221964425021      1.43556035592427      0.13694790663021
  H   0.18689689977843     -0.58319313589866     -0.76292732775123
  N   0.92660757788595     -0.72874788385832      1.26163143370122
  H   1.92555056536402     -0.62300547281037      1.05453145009244
  H   0.69838621595681     -1.71239064786039      1.18147632380094
  C   -0.16840624023895      2.16720540089058      1.26017750356145
  H   -1.23223517705847      2.26342282023042      1.04322068880337
  H   -0.06354872682359      1.62137576870352      2.19940038134389
  H   0.26354315187454      3.16798902689889      1.38059224974415
  C   0.24066173317068      1.97996408267768     -1.24584089037977
  H   0.89852506395120      1.48801138184840     -1.96349737560141
  H   -0.80504940434206      1.78185373915406     -1.49974307114004
  H   0.40798245277203      3.06179676199557     -1.28910064938360
