15
Coordinates from ORCA-job run
  C   0.56699552286266      0.03348203275287      0.10619259786266
  H   1.77866915860943      1.69035186825372     -0.05443976740181
  Cl  -1.70082171658147     -0.11360138263962      0.20719975063762
  F   2.59686751737492     -0.20039655365147     -0.29426686771716
  C   0.69969244636035      1.54197959066274     -0.01934421464647
  H   0.51215149698567     -0.56312952592980     -0.78748595838537
  N   0.84494051285258     -0.51535862958099      1.38002993353600
  H   1.86372787054071     -0.59579735941200      1.28508083885026
  H   0.45089165147858     -1.44715658002377      1.41586456621851
  N   0.17659699947119      2.29089910491112      1.12453841782010
  H   0.66105214467076      1.94677824066702      1.94831132389849
  H   -0.78697162603567      1.98808465994417      1.24386793535211
  N   0.12962667330687      1.98464483414305     -1.27852419176833
  H   0.18088067750507      2.99725402792324     -1.27623362156428
  H   -0.85302932940165      1.73061567197971     -1.26995074269233
