13
Coordinates from ORCA-job run
  C   0.79215005487385     -0.07262128055199      0.03539834832646
  H   1.64514683053343      1.89538758376345      0.21518616809993
  F   -1.17812601136036     -0.06543078791140      0.12004595272157
  Cl  2.88320177797620     -0.17900577085330     -0.50028126323795
  C   0.65555662610850      1.45012253517987      0.07240859817276
  H   0.53952848504610     -0.58325267172746     -0.87644203979448
  N   0.86265784365840     -0.69669454401776      1.30930373155161
  H   1.39418826876938     -1.55298541079069      1.23137408249456
  H   -0.11173909516998     -0.89657898089330      1.51595626515152
  C   -0.18462394137961      1.91006918426037      1.18638741061225
  N   -0.72945748655957      2.40665364375393      2.09965183644819
  C   0.12225087623450      1.94182692136500     -1.19975980640941
  N   -0.24518422873086      2.37218957842331     -2.22750928413701
