16
Coordinates from ORCA-job run
  C   0.61778830800280     -0.04074850887899     -0.00522640852287
  H   1.76989587321593      1.62812649221955     -0.10026638325233
  Cl  -2.37307407361922     -0.16757464720966     -0.36926061706145
  F   2.86920298858877     -0.00789057536060      0.42961229351291
  C   0.69647422983914      1.45183054603037     -0.01198911441893
  H   0.36365974754495     -0.52206149469257     -0.94069417536883
  N   0.65244064813322     -0.76420789678006      1.07688367500354
  H   1.36757642148332     -0.41663808682066      1.70973845836023
  H   0.64760742696153     -1.76137075878901      0.94075856861111
  C   0.17325146514673      2.04678604198383      1.29697420184263
  H   -0.86681718360825      1.74867393307030      1.44502974597482
  H   0.77371495073045      1.72776251761915      2.15382126560308
  H   0.23198478732479      3.13818889626810      1.24315991645306
  N   0.01430205629360      1.92135428381776     -1.21746382793843
  H   0.05782584789678      2.93313790069902     -1.24046504125429
  H   -0.96203349393450      1.63717135682345     -1.15683255754427
