16
Coordinates from ORCA-job run
  C   0.45638589673826      0.02478212605104      0.18020823758405
  H   1.74765425486178      1.61194264355685      0.10725044445527
  Br  -1.90024530918412     -0.16259960309461      0.67044171696591
  F   2.34388725990255     -0.24186446210634     -0.74407669471129
  C   0.66043105480371      1.52511769553062      0.05470652092824
  H   0.22369852747850     -0.57804434565850     -0.67926625811272
  N   0.99787445925845     -0.54366989214448      1.35142819333718
  H   1.98105337144632     -0.57080696841357      1.05710071962013
  H   0.67095649481951     -1.49946021107490      1.42839686341627
  N   0.09798076948125      2.33867242114029      1.13185352305267
  H   0.41402944783893      1.91803556546871      2.00126328796383
  H   -0.90606504199083      2.18514145463001      1.12265764454185
  C   0.21312581596563      2.01466735580757     -1.30746429398354
  H   0.76547437830615      1.46194178042877     -2.06890203463880
  H   -0.86054515778530      1.85307437941995     -1.44144332385627
  H   0.42295377805921      3.08293006045860     -1.40434454656276
