15
Coordinates from ORCA-job run
  C   0.59029093915120     -0.09504409090404      0.03558434266852
  H   1.65998187538377      1.69559788161442     -0.18115406541874
  Br  -1.72991333980207     -0.50197146414442     -0.19976222490785
  F   2.54252591083674     -0.03404642493023     -0.10221399234700
  C   0.61717674955926      1.42152992783842     -0.04085010502640
  H   0.71157658936201     -0.62228654918899     -0.89202399834241
  N   0.72499136142981     -0.64158564922096      1.34410879754351
  H   1.70441126909199     -0.89430135853480      1.40167265936108
  H   0.11949540047691     -1.44221211383609      1.44444513052547
  N   0.18904552439804      2.06399966533680      1.23869780271639
  O   1.10987692651904      2.53843493826482      1.90602791348596
  O   -0.99385398356803      2.06906495307468      1.54628414584525
  N   -0.12142793212922      2.00080896516047     -1.20364380321792
  O   -0.74146267239802      3.04655692494003     -1.04420806418829
  O   0.06275538168861      1.42782439452985     -2.27075453869755
