15
Coordinates from ORCA-job run
  C   0.71972243245841     -0.03944623807586      0.03112988522286
  H   1.67084480200771      1.67984038797155     -0.82673485713445
  F   -0.71595248943028     -0.39844472068298     -0.74160488689686
  H   2.36876928330679      0.23735209681628      0.72693288339871
  C   0.79855905546145      1.47361515738547     -0.21377515608359
  H   1.28987777949388     -0.67286907296575     -0.63155929278632
  N   0.23956984419794     -0.47553631112156      1.32540123086831
  H   1.01961209116773     -0.83750506729374      1.84950603258620
  H   -0.45340228700811     -1.19010720952282      1.14813362464460
  N   0.79749105941467      2.31855678200542      0.95918220070196
  H   1.63373062593109      2.00540118573725      1.44600864234504
  H   0.02071485124849      1.98932045706493      1.52645482615610
  N   -0.36802905255049      1.95542841298331     -1.06253888437674
  O   -1.40972519579121      2.27594083734835     -0.50272316102881
  O   -0.18062279990804      2.01250330235020     -2.27780308761703
