14
Coordinates from ORCA-job run
  C   0.66139588049374     -0.08372066679086      0.02930073791523
  H   1.75646236185171      1.74901425161751     -0.10744276608030
  F   -1.11377887116764      0.03479619779319      0.01605386074397
  F   2.43398464906209     -0.21114925523144     -0.11203287739344
  C   0.71723629598219      1.43856613827149      0.00884164730998
  H   0.60184602443070     -0.58774317219376     -0.91981914282401
  N   0.67254554744096     -0.72595066068710      1.30312520412364
  H   1.46231915143078     -1.35216210882846      1.31301480019604
  H   -0.20941763308710     -1.20380799969730      1.40766373578363
  C   0.14101453387233      2.03400718138282      1.20965142640767
  N   -0.24311988106952      2.55541127202072      2.18796580313038
  N   0.00920316740131      1.97019507580399     -1.20997542046325
  O   -0.77846265296374      2.90172725590978     -1.08403971829025
  O   0.33396142632220      1.46196649062944     -2.27754729055929
