15
Coordinates from ORCA-job run
  C   0.57082727488055      0.04801254675323      0.09877031451546
  H   1.75129975616184      1.76769126364720     -0.04353948092111
  Br  -1.68831660157247     -0.25056241706418      0.17691333973053
  H   2.66249811275156     -0.31098849631632     -0.42705198230686
  C   0.68192357272763      1.57053847899865     -0.01621370749442
  H   0.71306126770718     -0.53246839194227     -0.79882252937569
  N   0.90557032534373     -0.48782742831009      1.40505375429115
  H   1.86876654111640     -0.78152904135425      1.27327197720662
  H   0.32973654039078     -1.30711858700658      1.56455694401519
  N   0.14779085900772      2.29973693042409      1.13952798468071
  H   0.59834795726876      1.89637800328366      1.95722078792000
  H   -0.82948256254844      2.03175035658131      1.22473050295473
  N   0.11538639953085      2.02486060505750     -1.27347649666979
  H   0.15832700201033      3.03801250552409     -1.26167089520106
  H   -0.86446644477643      1.76216367172394     -1.28843051334544
