13
Coordinates from ORCA-job run
  C   0.57464675237419     -0.09633787255062      0.04063447120960
  H   1.68826510170109      1.64528854727250      0.19917885106805
  Cl  -1.61611298613011     -0.25815189855393      0.03620753983715
  F   2.46941339157237     -0.08070690477849     -0.30988159539621
  C   0.62156344597521      1.43070193331516      0.07691454420743
  H   0.58001216029075     -0.58248682566050     -0.91865019358295
  N   0.81722094133293     -0.74052894646744      1.28870819232531
  H   1.75096015275197     -1.11891258787698      1.19329742027507
  H   0.13085224656524     -1.46413983986995      1.44295257184754
  C   -0.09779126376226      2.02379977458932      1.20711435159055
  N   -0.58109079488928      2.59020902008271      2.11437544910391
  C   0.19532803602669      2.03513949215891     -1.18542711354644
  N   -0.08771718380878      2.54580610833929     -2.20370448893899
