16
Coordinates from ORCA-job run
  C   0.33526800180692     -0.07216475358857      0.11011825602596
  H   1.64661245026204      1.55812747188118      0.47482528472900
  Br  -1.89048440128277     -0.21419272760520      0.35757381928667
  H   2.26576370364742     -0.20406573029150     -0.75623294704021
  C   0.62061581832984      1.42957099885487      0.14375504453012
  H   0.30391321129086     -0.49675659341474     -0.87922134657769
  N   0.75587633865672     -0.84234833544981      1.24529317251223
  H   1.72993235792190     -1.05276728789864      1.06792439482968
  H   0.22201333249107     -1.70266858103283      1.26097806954455
  N   -0.16769704908303      2.15094186878762      1.21655392762480
  O   -1.05469918350176      2.93680030530097      0.88120429896148
  O   0.17647995665547      1.94914902532714      2.37934472487433
  C   0.38604469177941      2.06142194220024     -1.20771957469745
  H   1.07772038057730      1.57927987328957     -1.89994320530898
  H   -0.64408896829778      1.90244083798950     -1.52742378816733
  H   0.57968935874641      3.13541168565017     -1.18102013112718
