13
Coordinates from ORCA-job run
  C   0.82320763311740     -0.06991168239718      0.03365310563310
  H   1.66968662420778      1.92775754742228      0.04278037200917
  F   -1.23184077054798      0.01105000611451      0.08842263688748
  Br  3.12232985158245     -0.36177034340234     -0.43391149238698
  C   0.70164425744527      1.42561911279932      0.02244655452308
  H   0.61361216275378     -0.61339252823190     -0.86925582173844
  H   0.08575872238251      1.73839640032635      0.85772780790509
  N   0.79447503738799     -0.64542160679099      1.32615323230968
  H   1.13289235489461     -1.59694363430311      1.26763747254792
  H   -0.21277530544751     -0.64670440287816      1.49763694107165
  N   0.01451118206414      1.92375620953777     -1.19815161262070
  O   -0.63130951183871      2.96352339962155     -1.07866883350224
  O   0.19902776199825      1.33391152218190     -2.25664036263879
