13
Coordinates from ORCA-job run
  C   0.55617284600929     -0.09711938321290      0.04762050750058
  H   1.69595380400452      1.61695347587854      0.21799736835266
  Br  -1.78372925532218     -0.31108143878162      0.03930334384687
  F   2.48306457020854     -0.07544015949853     -0.32799534516044
  C   0.62392633479510      1.42942874527701      0.08714485088023
  H   0.56033366829669     -0.58200532036432     -0.91238294292841
  N   0.81633265049416     -0.74304545122776      1.28956301033090
  H   1.78066069067335     -1.04352578880928      1.20012281616067
  H   0.19175611820851     -1.52748579874775      1.40705325556076
  C   -0.09338183609996      2.03801272128668      1.21028338204816
  N   -0.57609709157478      2.62476104648830      2.10524638739613
  C   0.22533444375793      2.04160234599469     -1.18043305215734
  N   -0.03477694345119      2.55862500571693     -2.20180358183077
