14
Coordinates from ORCA-job run
  C   0.34632645387877     -0.03419479296501      0.13465594020328
  H   1.54724932928010      1.68666826143909      0.42027330073729
  Br  -1.91768452796056     -0.23326459451892      0.39671458507140
  H   2.32537107682865     -0.24670220799685     -0.79310967458927
  C   0.53054092549504      1.46431756284985      0.09811633618269
  H   0.32202332817449     -0.57576818989499     -0.79608409761936
  H   -0.15372711656820      1.90333681502317      0.83063784244713
  N   0.78713900116314     -0.67105757659270      1.34167634498907
  H   1.79215868536929     -0.73062309970812      1.22030727960458
  H   0.41989363662470     -1.61631203981477      1.35143051194222
  C   0.28716218160612      2.03043097101352     -1.29127400567701
  H   1.00864217366967      1.58367293255474     -1.97932382043635
  H   -0.72612781033381      1.79653153765735     -1.62694968006181
  H   0.40974266277263      3.11864442095365     -1.30344086279383
