16
Coordinates from ORCA-job run
  C   0.61869367089426     -0.07925965326824      0.01970276319407
  H   1.66237244628179      1.73568723289575     -0.41671520298880
  F   -0.95392095983095     -0.24680194362721     -0.48969262220471
  H   2.40368638765469      0.03056398919805      0.53781601770020
  C   0.67788175470326      1.44604536273549     -0.06331566495155
  H   1.05770778052146     -0.59943081066980     -0.81957073804189
  N   0.35935724206304     -0.72749336395961      1.28823910582241
  H   1.21270341494655     -1.17215637851910      1.58308229523778
  H   -0.38098521751553     -1.39830773703940      1.12399091147619
  C   0.32147253266881      2.11801248622958      1.23878288182190
  H   -0.67199761533632      1.80680255267923      1.55609228816453
  H   1.04635752171326      1.79076550450866      1.98261529391813
  H   0.34640168595214      3.20603720905897      1.13955259796237
  N   -0.23977938228942      1.93663926885459     -1.17457177052119
  O   -1.24709869041002      2.58770244007384     -0.90643553958399
  O   0.13083742798297      1.68313384084917     -2.32062261700542
