15
Coordinates from ORCA-job run
  C   0.44914394702519     -0.07207668222514      0.09150483993363
  H   1.64185960560994      1.59635101609924      0.30851484321670
  Cl  -1.76322439636265     -0.24297495576374      0.37574291983238
  F   2.28681212560319     -0.14311340237243     -0.62242268113625
  C   0.57783916773745      1.43747355755191      0.11881280454167
  H   0.28030104562248     -0.56373152058448     -0.84903243872354
  N   0.84828646524000     -0.75840864152579      1.27247334600068
  H   1.80991771687423     -1.00746954260854      1.06110619911436
  H   0.28353600695470     -1.59033902079889      1.37598311995298
  C   -0.14828030863111      2.09002860531111      1.21172960147077
  N   -0.63225862165469      2.74396038363619      2.05888288471080
  C   0.23215304187671      2.04186170931914     -1.23741298978203
  H   0.90157246795260      1.58603865867896     -1.96807621005687
  H   -0.80651612412101      1.82472380904953     -1.49231306103489
  H   0.38153786027296      3.12463602623293     -1.23693317804040
