12
Coordinates from ORCA-job run
  C   0.44184059888777     -0.07356526793201      0.08044087795234
  H   1.53508613970490      1.66527311615153      0.48520446387175
  Br  -1.89602335077362     -0.31623852963551      0.26884816894552
  F   2.40957988934942     -0.05900723749665     -0.49389978060796
  C   0.54592584100690      1.43316179061987      0.09241763235470
  H   0.38295641087371     -0.59880694659971     -0.85579676825543
  H   -0.22430723957682      1.86823466335127      0.73049423153853
  N   0.83300123474902     -0.69752038699386      1.29326527203431
  H   1.83879628270382     -0.77561947606268      1.13342988610491
  H   0.42143550036282     -1.62117656483061      1.33023091238815
  C   0.44388942631751      2.00626355462484     -1.24562823994587
  N   0.34939926639459      2.50740128480351     -2.30221665638095
