14
Coordinates from ORCA-job run
  C   0.68596670413838      0.02502293033966      0.07026225151494
  H   1.73793621119732      1.85501702288787     -0.02675413931740
  F   -1.07266337613492     -0.04086181425457      0.35409108453075
  F   2.44424842709541     -0.07445750674306     -0.43584292802885
  C   0.69072061531156      1.55513240788502     -0.01033542291914
  H   0.50648417747215     -0.57813554640779     -0.80363867951885
  N   0.99480956279997     -0.51923402244589      1.36220441371916
  H   1.84544314135563     -1.04814717688470      1.23464947155017
  H   0.21953522681936     -1.11327357224021      1.61823165239756
  N   0.02068272660354      2.22654974330146      1.10260655658101
  H   0.52413611689012      1.90282725154199      1.92380956272006
  H   -0.87684249455917      1.75065001849535      1.15242601299213
  C   0.08747255958930      1.98817834764120     -1.27712058326665
  N   -0.37640959857864      2.35331191688366     -2.29161925295488
