14
Coordinates from ORCA-job run
  C   0.88396279674753     -0.03377524376139      0.08053497475145
  H   1.62619512560662      1.95426983391335     -0.08475065649573
  F   -1.23185620041257     -0.26721651199395      0.02010393121143
  Cl  3.14227728423671     -0.18107587836850     -0.30300136440697
  C   0.66099794904768      1.45907964502377      0.02974431814304
  H   0.79436997494758     -0.59866066144556     -0.82907076358378
  H   0.06504426715527      1.65113450294587     -0.86300548642374
  N   0.85532358920186     -0.66597677737563      1.32927929326393
  H   1.14803135898033     -1.62715807204065      1.20623101033847
  H   -0.15392513062626     -0.65782624840421      1.50093372936282
  C   -0.06754640500638      2.00972556461689      1.25002295803755
  H   -1.05188540196363      1.54865508866512      1.29056721069315
  H   0.48296045136464      1.78688167509195      2.16586271848561
  H   -0.17256965927938      3.09664308313293      1.16638812662278
