14
Coordinates from ORCA-job run
  C   0.49463569770186     -0.09816485596784      0.03881562668369
  H   1.71539243413256      1.62014002572313     -0.04142563882264
  Cl  -1.57942680254343     -0.17414222257196     -0.03620349212532
  H   2.49337166032912     -0.23061897263504     -0.23904772388159
  C   0.64351839229130      1.41964104788339      0.03198088230815
  H   0.69681295051622     -0.57523109883953     -0.90461563334753
  N   0.70014830069673     -0.71641689572849      1.32434986437361
  H   1.61204995366556     -1.14648689533890      1.28662749897075
  H   -0.02876356236880     -1.40189721872396      1.47769244997467
  C   0.10178329540064      2.05981996751999      1.22369850531160
  N   -0.25120047847621      2.62150865705392      2.19232117022893
  N   0.05952780589316      2.03721734220928     -1.21135811938485
  O   -0.47354087642572      3.14063674292965     -1.12304654991131
  O   0.26088122918698      1.42514437648636     -2.25502884037815
