14
Coordinates from ORCA-job run
  C   0.51809671803347     -0.06374654933452      0.04316886557815
  H   1.68919950042773      1.67613586780422      0.16987214734214
  Cl  -1.57839074495626     -0.23520764666417     -0.05437331127401
  H   2.55450602369233     -0.22522687634384     -0.32377195585310
  C   0.62844790321777      1.45516759074896      0.06668752767762
  H   0.71230022953981     -0.52522469693548     -0.90982265724119
  N   0.73477563164106     -0.71967827592853      1.30861003496126
  H   1.69032639366160     -1.04737274738121      1.26638920982153
  H   0.09564213005468     -1.50212262549530      1.38109569103750
  C   -0.04232295731058      2.02221762486603      1.25907443822158
  N   -0.52417938431778      2.62778253054938      2.14386957625048
  N   0.16409961625854      2.03770026917975     -1.18692711264910
  H   0.32682972210796      3.03727556295938     -1.16540514693367
  H   -0.83403078205035      1.87804997197531     -1.25887730693918
