14
Coordinates from ORCA-job run
  C   0.31102229186521     -0.11018730335414      0.13964309644161
  H   1.61827396736000      1.45888802362953      0.81121430600105
  Cl  -1.62488417987386     -0.26301997944037      0.68786861649630
  H   2.11426858388457      0.03030850297036     -0.79838970503045
  C   0.70308381353182      1.36536808508291      0.23784085433836
  H   0.17736615832564     -0.46186589936587     -0.87126278238553
  N   0.92182586588233     -0.94102223179212      1.14838909089850
  H   1.82459328049418     -1.20200932516627      0.77516106063794
  H   0.34512676014809     -1.76080541738747      1.28645134306215
  N   -0.29977077771254      2.20472912343622      1.08949048074053
  O   -1.16636422167352      2.86347785946902      0.52513728898247
  O   -0.10743178264491      2.16749721944505      2.30181353999125
  C   0.81691905026626      2.00110704390992     -1.06936941697450
  N   0.81180119014671      2.62843429856319     -2.06481777319970
