17
Coordinates from ORCA-job run
  C   0.78282997586693     -0.00211995412044      0.07411777301124
  H   1.70495614467917      1.88038556969844      0.13528571851641
  F   -1.30607351513659     -0.19879808625395      0.23381031943351
  Cl  2.93680811961392     -0.26106223153655     -0.68923099037710
  C   0.68080924431635      1.50603522959359      0.06339009932115
  H   0.52863201060046     -0.55233788132867     -0.81261789967514
  N   0.91800450570534     -0.64182973034443      1.31556351023816
  H   1.16047649618352     -1.61034411456685      1.14464434648043
  H   -0.05293298585363     -0.61589304286857      1.63435428017415
  C   -0.10008600241851      2.05383029380025      1.25675289676343
  H   -1.12283110127650      1.68750959740017      1.20255698702954
  H   0.35180813320346      1.72258638569525      2.19483031944788
  H   -0.07784614231505      3.14927560058127      1.23678433779486
  C   0.07219604594457      1.94645246652847     -1.26073631727678
  H   0.68427829377689      1.59573200186452     -2.09670333573951
  H   -0.92304379541229      1.50621608220827     -1.32912311270967
  H   0.00319457252196      3.03811181364926     -1.32092893243255
