14
Coordinates from ORCA-job run
  C   0.33765139963702     -0.03541387869973      0.13542978059767
  H   1.51869860050582      1.64777177205392      0.47018153604345
  Cl  -1.92406373571515     -0.16903352702391      0.53145627571472
  F   2.25912884068578     -0.17490854097476     -0.71247694531836
  C   0.50267092275173      1.45358630316189      0.12371610075738
  H   0.09923772068408     -0.55733977498579     -0.77352367547675
  H   -0.20347818019040      1.89425376857936      0.82974617143025
  N   0.81808459499983     -0.70925599821485      1.26254116211811
  H   1.82271251076714     -0.63559950528886      1.08639647868966
  H   0.55749886328465     -1.68504799469891      1.19410124310325
  C   0.32639071306731      2.01356819050012     -1.27758432085392
  H   1.08883045460365      1.55759517630046     -1.90851353273926
  H   -0.66764148832405      1.77325014726019     -1.66384088641181
  H   0.44298878324259      3.10225386203087     -1.29399938765440
