16
Coordinates from ORCA-job run
  C   0.53241708599228     -0.03768514531222      0.07408660638082
  H   1.67324682947087      1.69828384090771      0.09560649295514
  Br  -1.74544189285252     -0.40703387020045     -0.09628197018085
  H   2.65345703748785     -0.29207670482271     -0.31359366767654
  C   0.60645035660816      1.48124615273572      0.06217984126538
  H   0.73172655261695     -0.53269518184069     -0.86235076860845
  N   0.73703092496784     -0.69065921334624      1.34491149407713
  H   1.74027707496960     -0.84027436560830      1.35344855319005
  H   0.28344743755151     -1.59692205857245      1.29873087161109
  C   -0.04637646448636      2.12678940878840      1.28492183746476
  H   -1.12896431194142      1.98956027565655      1.26476923497995
  H   0.33692462650223      1.68422625311543      2.20561848934022
  H   0.17381512886321      3.20129692428789      1.28403612963413
  N   0.11653146829531      1.98128740637534     -1.22549913270835
  H   0.25048308305615      2.98656226609897     -1.24774212673018
  H   -0.88122493710166      1.80063401173706     -1.26906188499431
