15
Coordinates from ORCA-job run
  C   0.52510277557987     -0.10597547992744      0.03608581378040
  H   1.64644424237153      1.68093117293835     -0.24335732387596
  Br  -1.62574790138039     -0.53749018688725     -0.30979289255538
  H   2.59805059322932     -0.12298866223971     -0.03720804199197
  C   0.61036384562520      1.41239918111160     -0.06091711940067
  H   0.92122733822628     -0.60346401489056     -0.83559375438900
  N   0.66293045396472     -0.62188339649658      1.37817130272085
  H   1.61828196424815     -0.94126265019055      1.45337857710785
  H   0.00304977581382     -1.37704702296568      1.51162662064097
  N   0.22107847505153      2.08091194997425      1.21438704068446
  O   1.12895007606767      2.67402635346224      1.79906654579329
  O   -0.93867533248773      1.99675964640768      1.59227093050850
  N   -0.16182243850589      2.00393702079817     -1.20477866545371
  O   -0.81790704820468      3.02522293534859     -1.02378181658537
  O   0.05414318040059      1.46829315355683     -2.28734721698425
