14
Coordinates from ORCA-job run
  C   0.52114092974698     -0.07417002898967      0.05756031685703
  H   1.71628168369560      1.58725807166000      0.15730648321005
  Br  -1.87895583822814     -0.23446224527694     -0.11577600416294
  F   2.56671153554492     -0.15420930583007     -0.18692151546966
  C   0.63754925455563      1.43365972579396      0.07274126461532
  H   0.55880217586385     -0.55580243054217     -0.90325860763817
  N   0.68020566188022     -0.73609446327251      1.28734963252379
  H   1.69856360563473     -0.74868324037314      1.36407025130358
  H   0.34105283508806     -1.68476422989671      1.19507780585216
  C   -0.00399883388593      2.03072885864756      1.26295542574861
  N   -0.44871276661950      2.65443984664104      2.15427399507094
  N   0.18727478243634      2.01368996894454     -1.18479241610660
  H   0.37556006743290      3.00899992678334     -1.17316636703426
  H   -0.81617509314567      1.87515954571076     -1.24783026476984
