13
Coordinates from ORCA-job run
  C   0.49686164436614     -0.09893015025369      0.04907076135346
  H   1.67300299383434      1.64911876123508      0.24313521245520
  Cl  -1.57346997228586     -0.25633766937612      0.06836684713093
  H   2.46218239245048     -0.12648368715085     -0.43318618211910
  C   0.61407580046247      1.43333161704705      0.09198324663311
  H   0.63339255194612     -0.55749580133174     -0.91348651971350
  N   0.81629418602047     -0.74152592767737      1.29573292440382
  H   1.74613902294674     -1.12010291744444      1.18715370132514
  H   0.13946963932876     -1.47374836497519      1.46971518744762
  C   -0.12596418006406      2.04027127342980      1.20524915038518
  N   -0.61428995161507      2.60415803672955      2.11217417091373
  C   0.22263325928246      2.03968191535630     -1.18265454193515
  N   -0.04477738667300      2.53774291441161     -2.21153395828045
