13
Coordinates from ORCA-job run
  C   0.48758373315903     -0.08261687928208      0.06089034153461
  H   1.65873727068918      1.64996301778286      0.20847166019111
  Cl  -1.71837260625634     -0.15931567161931      0.19785168142929
  F   2.42841741283975     -0.19599510069129     -0.38751053189020
  C   0.60977536351705      1.40945172150371      0.04973625428326
  H   0.43233499864162     -0.62435072358533     -0.86394757943735
  H   -0.03053302013339      1.87299712317011      0.79355932119728
  N   0.77743789220513     -0.67355473494150      1.32841189101996
  H   1.74935205070370     -0.94434165810571      1.20326948799644
  H   0.19358225541752     -1.49017382687317      1.44645958985527
  N   0.24230010504377      2.03305054808052     -1.24998402353340
  O   -0.02011311117323      3.23709408721648     -1.21474409916800
  O   0.27071765534623      1.35766209734470     -2.27263399347828
