11
Coordinates from ORCA-job run
  C   0.52351220397619     -0.04757688235411      0.06750401041573
  H   1.77132054121866      1.60247895427346      0.34718694147910
  Cl  -1.77588715151005     -0.05550309630441     -0.15175042129792
  F   2.59381236239240     -0.32901891774214     -0.23099005670935
  C   0.73249429787367      1.43220868651942      0.07200067127251
  H   0.50829241822239     -0.59272721811322     -0.85593674682437
  H   0.04902698861071      1.89841929305731      0.78080218998758
  H   0.54928508145300      1.83981756491121     -0.92158447960993
  N   0.65701498042869     -0.69864373714018      1.29601143968544
  H   1.67053649924629     -0.62432201769882      1.41233966411098
  H   0.43950177808804     -1.67850262940852      1.16513678749022
