15
Coordinates from ORCA-job run
  C   0.52516962247181     -0.08271408085218      0.06998918992869
  H   1.66028160329948      1.67569383283400      0.14373794946081
  Br  -1.70089144886108     -0.44388462053746      0.08219802402452
  H   2.55340262927759     -0.20040210898489     -0.47115395477998
  C   0.59642768582119      1.44979224454702      0.07585839730730
  H   0.68162986694374     -0.58001877460721     -0.87159799972418
  N   0.87549238297987     -0.70564994427190      1.32893470829848
  H   1.84322235994674     -0.97797723416175      1.20522300753695
  H   0.29643687125493     -1.52885353799364      1.44559137320830
  C   -0.11355653826167      2.11994576237867      1.25580594804475
  H   -1.19595346880934      2.09071148479089      1.14543861458008
  H   0.16271746578951      1.58210896431008      2.16307192452789
  H   0.21178470473996      3.16167412093773      1.33350347240695
  C   0.14302759362478      2.00288475012329     -1.20141559501430
  N   -0.19514133021753      2.50315914148737     -2.20927505980628
