14
Coordinates from ORCA-job run
  C   0.81014834901853     -0.06974619775682      0.04801835599620
  H   1.68342488251002      1.91409366623882     -0.03505344723017
  F   -1.20421011598823      0.07940483315141      0.03589018498916
  Br  3.08328059338742     -0.32122771677136     -0.34330634283868
  C   0.69645214882292      1.44643890727279      0.03465744353827
  H   0.60565317850791     -0.57091196854222     -0.88085189605364
  N   0.74351344131263     -0.68430374839622      1.32176858105295
  H   1.15587563365173     -1.60563440494385      1.26767926379108
  H   -0.25893078237893     -0.74531172691906      1.48638505241360
  C   0.01823987100290      1.96603450421415      1.21825796604512
  N   -0.40382389924305      2.45348273668169      2.19885023123984
  N   -0.01604028092483      1.90674578394609     -1.21267879630711
  O   -0.73725436305321      2.89294542784160     -1.12724985380207
  O   0.26886134337420      1.31913990398298     -2.24760674283453
