15
Coordinates from ORCA-job run
  C   0.34257913381335     -0.11334178091185      0.13921418531345
  H   1.57748025490810      1.57076678680347      0.71630128724892
  F   -1.08185661891985     -0.18229055439905      0.90843225029969
  H   1.87292330322288      0.06605484785791     -0.81778156134909
  C   0.64815935295529      1.35610000648540      0.20880608147978
  H   -0.03719232351364     -0.47192069738032     -0.80561389750382
  N   1.06679577175084     -0.94274798604712      1.07397537786440
  H   1.75496683305236     -1.48132349973995      0.57509707904331
  H   0.38399513656115     -1.54005618381853      1.52024471575042
  N   -0.40929247666263      2.15673388074244      1.04085063398064
  O   -1.36621713721039      2.67163990688055      0.47276594392472
  O   -0.17692257219916      2.21274995328760      2.24385734716852
  N   0.64167641137534      2.04076934778784     -1.11252610601039
  O   1.36044048492794      3.03869563181253     -1.20140243817784
  O   -0.13206555406158      1.65054034063908     -1.98001089903272
