13
Coordinates from ORCA-job run
  C   0.47525870539929     -0.08174778656617      0.05584843397897
  H   1.68431214172211      1.68722821424892      0.10789125982339
  Cl  -1.61839365229874     -0.15434017322041      0.11408587191854
  H   2.47958711154953     -0.30377717880697     -0.39667130510900
  C   0.63558359196340      1.41644810139692      0.02479582431339
  H   0.58616997814686     -0.62640235779593     -0.86422157296601
  H   0.04946427344274      1.87135942015352      0.81949229340900
  N   0.74767807699427     -0.65078621862852      1.35920451108938
  H   1.70040590377515     -0.98269045371785      1.29144772133074
  H   0.11617008099968     -1.43066352684959      1.49778031412330
  N   0.17007612521973      2.03959239653557     -1.24494553466739
  O   -0.13839251473680      3.23245029453899     -1.18976177532789
  O   0.19330017782279      1.37319926871151     -2.27511604191641
