14
Coordinates from ORCA-job run
  C   0.78287343083989     -0.01547612752828      0.00290014395816
  H   1.55254642186699      1.82877017441298     -0.72620452671419
  F   -0.58701539528043     -0.51153924229842     -0.84028277253406
  H   2.36347848992106      0.39309350461228      0.77453843509190
  C   0.65924278069254      1.50847272091606     -0.18461907027122
  H   1.43512489096094     -0.55713018506809     -0.66523413709043
  N   0.30533855824602     -0.56422083038578      1.25655914955820
  H   1.10091083762044     -0.85490804946655      1.80167299254319
  H   -0.28809928909345     -1.34763429358205      1.01839179690442
  N   0.60404280402394      2.27429505406707      1.06393021449459
  H   1.47881565220765      1.99433974930990      1.51081351693615
  H   -0.11358516293321      1.81296143643957      1.61888682474420
  C   -0.50488430256683      1.92874506954400     -0.99839952680633
  N   -1.35726971650555      2.39281101902732     -1.65998304081460
