14
Coordinates from ORCA-job run
  C   0.49851354806290     -0.04096529159177     -0.02498161245701
  H   1.62781419000403      1.66251518750391     -0.51527808641845
  Cl  -1.81896870623323     -0.19277402026912     -0.58028087251385
  Cl  2.50840824331595     -0.30609400541895      0.84894011813902
  C   0.62091778110244      1.46846528530597     -0.12780757430702
  H   0.08006797519863     -0.55348506488869      0.81705379091606
  N   0.79959889130674     -0.83157330661184     -1.22788552009702
  O   1.12303466670545     -0.19470092743337     -2.22995534316627
  O   0.74081202442292     -2.04949134087015     -1.13445581105398
  N   0.40494887440137      2.01405311967518      1.21272422357609
  H   0.39750638947270      3.02545359952848      1.15423933465320
  H   1.20119862960857      1.73349743516402      1.77485700177316
  C   -0.27759161805454      2.14656697832703     -1.07112947664443
  N   -0.82155088931393      2.90587235157932     -1.78385017239947
