14
Coordinates from ORCA-job run
  C   0.32903882863059     -0.01118333450750     -0.06003242227429
  H   1.56189089602535      1.56820782270985     -0.61601127456307
  Br  -1.86216738429792     -0.29464271244699     -0.83743391702618
  F   2.03189454637250     -0.08932486939854      0.75770191655236
  C   0.56368089555021      1.48553458728274     -0.17575392181663
  H   0.01646791170328     -0.48675666973105      0.84744455114075
  N   0.91260040509437     -0.88139275995352     -1.09497170585417
  O   1.35019307685550     -0.33063950939712     -2.10316863011286
  O   0.92709233876401     -2.08425205389913     -0.87380435520238
  N   0.49927326480297      2.01846336660992      1.18930082619825
  H   0.70520613223061      3.01094458992299      1.15744964227056
  H   1.26699960266049      1.54013912356839      1.65289050183634
  C   -0.32839285139974      2.26941102760793     -1.04150731035058
  N   -0.88906766299224      3.07283139163203     -1.68991390079809
