13
Coordinates from ORCA-job run
  C   0.44426854915352     -0.07395261960907     -0.02771937815224
  H   1.67273257009823      1.60447657259421     -0.39812791456541
  F   -1.19248928020159     -0.01457613908940     -0.70671763775972
  F   1.96431475135766     -0.25643569083673      0.66263583763905
  C   0.62658994167620      1.43676676487720     -0.13271193061443
  H   -0.01035676672087     -0.58475479189162      0.79934754540846
  N   0.84323599776795     -0.86692664223104     -1.20630647517669
  O   1.32001732524229     -0.25278980088531     -2.15821481617719
  O   0.69237886230739     -2.07926553735518     -1.14338432604259
  C   0.41588845794740      2.02155176277061      1.19570820895100
  N   0.25449384086511      2.51115096285613      2.25011414745747
  C   -0.20610204302600      2.13869623609859     -1.11929266664160
  N   -0.72623220646729      2.85049892270158     -1.89439059432613
