15
Coordinates from ORCA-job run
  C   0.33919964112598      0.09916937267370      0.02415430573676
  H   1.65436075811961      1.64080248896245     -0.51859137848732
  F   -1.34045009211182      0.12481339437735     -0.61181427551740
  F   1.92116370001245     -0.21460888665751      0.69910663096169
  C   0.64767543378288      1.59332217653188     -0.09334034284988
  H   -0.09403746640831     -0.36877729992842      0.88555019853376
  N   0.66480031970005     -0.77356238739217     -1.11719230318922
  O   1.06939190218989     -0.23345390017106     -2.14781155741682
  O   0.52038943272673     -1.98130058352588     -0.97636938333795
  N   0.59397665046984      2.10671850248894      1.27531610923861
  H   0.85727916316090      3.08440995205633      1.22671024105315
  H   1.31061725548741      1.59978311669269      1.78326707818251
  N   -0.21502916523481      2.40968870532369     -0.92219764599268
  H   -1.14675462223460      2.04062614800012     -0.75721575585801
  H   -0.00812291078618      2.14577920056790     -1.87951192105720
