12
Coordinates from ORCA-job run
  C   0.47011539789600     -0.03253797196930     -0.04673782067300
  H   1.82967768164986      1.52054606167703     -0.37295488585324
  Br  -1.78302816919940     -0.06493344637983     -0.16200261866927
  F   2.38787237111555     -0.28836912044176      0.30782794847421
  C   0.76560104019713      1.44518522172555     -0.15755773759595
  H   0.47648994014612     -0.56286826742189      0.88253073360035
  H   0.58675761349863      1.87713918482074      0.83069642494185
  N   0.75884358557779     -0.86801017647455     -1.22623189874425
  O   1.04351906484574     -0.27929113985981     -2.26582259647463
  O   0.68064206721445     -2.08097249602603     -1.08669580452149
  C   0.01388924592940      2.21956957162424     -1.14479423347466
  N   -0.49560983887127      2.95770257872558     -1.90224751100992
