14
Coordinates from ORCA-job run
  C   0.27630668038577     -0.00160447067648     -0.08951232601392
  H   1.49166963801191      1.73500207291006     -0.43695427750901
  F   -1.25410588786963     -0.06992968602807     -0.58729968139488
  H   2.03500029926118     -0.16922079011125      0.54064412468897
  C   0.48856654276963      1.49314579754390     -0.10088335084462
  H   0.14261316755819     -0.56919757848278      0.81304510353964
  H   -0.22573528391210      1.91048242285630     -0.81666950579896
  N   0.87828942528663     -0.78420855768704     -1.16428380301095
  O   1.25481996906756     -0.17405061744399     -2.17522431358001
  O   0.80633571671885     -2.01582835778520     -1.09122130521925
  C   0.23215247808056      2.05426751687262      1.28982770155353
  H   -0.78480021939032      1.81650741626125      1.61379500519162
  H   0.94302715341205      1.61160638718295      1.99258951029823
  H   0.35043032061970      3.14248844458773      1.31120711809961
