14
Coordinates from ORCA-job run
  C   0.18021790192156     -0.01312028157366     -0.22636681136906
  H   1.60535169831913      1.52195883018512     -0.61368149794441
  F   -1.17571784383526     -0.02737218866213     -0.93835642671615
  H   1.87561883356459     -0.17098412432238      0.68005313269689
  C   0.59427552246049      1.46254520872359     -0.22094898967753
  H   -0.07812378941250     -0.50612848121731      0.69414484107697
  N   0.95464398142379     -0.88526184931824     -1.11476919648194
  O   1.54388129506774     -0.36380748091172     -2.07010300686301
  O   0.79658224518929     -2.10350942181006     -0.97342021394538
  C   0.61512627607490      1.92592906501765      1.18297975548355
  N   0.52148369347581      2.45239091397620      2.23117825273693
  N   -0.27261339862757      2.30481908108634     -1.06172397691110
  H   -0.13542723582335      3.27288729939151     -0.79557783384080
  H   -1.23680917979860      2.05016342943509     -0.89459802824494
