11
Coordinates from ORCA-job run
  C   0.67075845916017     -0.01542998021300      0.01376845482618
  H   1.63036612311030      1.79789363733635     -0.58153965513448
  F   -1.27901866371561      0.08173026887685     -0.39763343158710
  Cl  2.63660350612224     -0.49009886946200      0.56217955343149
  C   0.76099563300199      1.47951581570467     -0.00951515742227
  H   0.21650020925006     -0.58399421650851      0.79785153349659
  H   0.87101227016576      1.83250917820380      1.01751599290579
  H   -0.15710888860336      1.85773485768299     -0.44529194558217
  N   0.66124017625337     -0.72131781935980     -1.28394677780724
  O   0.90632660600143     -0.05924468174142     -2.28904516457453
  O   0.45442456925365     -1.92790819051989     -1.26440340255222
