13
Coordinates from ORCA-job run
  C   0.37109203259173     -0.06573999163881     -0.05925290064690
  H   1.66226433890120      1.53862332458747     -0.42916716874894
  Cl  -1.69405093000670     -0.16176951812734     -0.57693596030978
  F   2.12734182628377     -0.17199902570608      0.57619402698605
  C   0.60899915298090      1.43584536768146     -0.16095506661812
  H   0.17710784346189     -0.58632573986630      0.85657218576762
  N   0.85636404622426     -0.87041914316648     -1.19408576504720
  O   1.24966097548124     -0.25174014317718     -2.17970894290465
  O   0.82795629376823     -2.08558606276744     -1.06826390455125
  C   0.44371466858216      2.01581881637281      1.17375813914742
  N   0.32448991510688      2.50902572621760      2.23198333078649
  C   -0.17706336348210      2.19859064420864     -1.14002456531255
  N   -0.67913679989345      2.93011574538166     -1.90917340854818
