15
Coordinates from ORCA-job run
  C   0.48712772200988     -0.06041568650713     -0.06724549985146
  H   1.70019994802191      1.59967969049195     -0.49008353812645
  Cl  -1.81727224462276     -0.22670532316607     -0.61538928244868
  Br  2.64780283021069     -0.45072436044296      0.92712665494799
  C   0.66230129980888      1.44694675586606     -0.18831074420729
  H   0.10658392071852     -0.59372969677089      0.77974878385092
  N   0.82329462343927     -0.87771062065797     -1.24811525521951
  O   1.24048839214853     -0.27412874165454     -2.23707583190928
  O   0.68073632076935     -2.08839412328353     -1.15573385209603
  C   0.52061970709574      2.02586553054890      1.15003274916316
  N   0.36776334200130      2.55385996221643      2.18782435385632
  C   -0.21065064566444      2.23285414875038     -1.17852313059189
  H   -0.20570872732902      1.73669172742820     -2.14581708774503
  H   -1.23520157095462      2.31662279367965     -0.83067241413658
  H   0.22778508234677      3.23100794350153     -1.27998590548617
