14
Coordinates from ORCA-job run
  C   0.68594267423291     -0.05492118289859     -0.02303156704630
  H   1.74957855636390      1.83259663528743      0.08338894536455
  F   -1.19962550637614      0.24167401391521     -0.23163241773138
  Cl  2.70050802274961     -0.47948104995051      0.27348076388493
  C   0.72930541449191      1.46058673959749     -0.04943117891550
  H   0.35627867438732     -0.55973054079697      0.86203779027887
  N   0.54126800755219     -0.82799041900402     -1.27312723912840
  O   0.81522374082552     -0.26647964733082     -2.32758422193443
  O   0.20312763165425     -1.99612644600183     -1.14354157489016
  N   0.00528800767575      1.95696902135898      1.19376599724200
  O   -0.63069117646311      2.99777234625141      1.10555036943096
  O   0.20733606875743      1.32728819612360      2.22338737727485
  C   0.14736923573123      2.09929971716631     -1.22458985048863
  N   -0.21188935158279      2.75420261628229     -2.13028319334134
