13
Coordinates from ORCA-job run
  C   0.35484938898489      0.01960072605757     -0.00784808517893
  H   1.23619586451775      1.80469196417536     -0.66391748329096
  F   -1.21462112734945     -0.05544312892223     -0.94235565507882
  F   1.86787945159052     -0.16201559725626      0.78355232748340
  C   0.40367610452295      1.52418366582394     -0.00917000677280
  H   -0.15222003799466     -0.55306641136247      0.74364965155206
  H   -0.52616291983937      1.89607568867258     -0.42797717356865
  N   0.88603726034106     -0.75152416167253     -1.15224504540527
  O   1.39073839331625     -0.13643430852752     -2.08815749296613
  O   0.80999448889262     -1.97260538427347     -1.08283797319244
  N   0.55322170091359      2.00917942891192      1.37146638804854
  H   0.71597630955858      3.00931807926778      1.33964786116520
  H   1.39647512254525      1.56360943910536      1.71231268720479
