12
Coordinates from ORCA-job run
  C   0.50140207220578     -0.03408129323931     -0.02577469586188
  H   1.62986163738583      1.75579973171881     -0.36336149963744
  Cl  -1.76644696442568     -0.02751107297329     -0.37394846820034
  Cl  2.67172364478824     -0.37412721952680      0.63491798124004
  C   0.62478936142426      1.46908528767440     -0.05790010901718
  H   0.26180347682966     -0.64499134202899      0.82031455855358
  H   -0.09048778093850      1.88858866399133     -0.76353991715424
  N   0.73530614054562     -0.73739610792565     -1.29880212120989
  O   1.01477062816947     -0.03738731222598     -2.27003099318069
  O   0.63506621096540     -1.95621772560235     -1.29291651233694
  C   0.36079220596135      2.02551380650789      1.26475444094043
  N   0.15748936708860      2.51539458362991      2.31115733586453
