12
Coordinates from ORCA-job run
  C   0.37208789594714      0.03848240813021     -0.26137994424856
  H   1.06949659818088      1.46650200575570     -1.66172649376679
  F   -0.76735086227300      0.04372269139152     -1.56627921960875
  F   1.49047885781342     -0.13879238743638      1.07580261714733
  C   0.82889791662179      1.43787284643232     -0.60013747116150
  H   -0.42346341579866     -0.20773762809209      0.41477889652261
  H   1.70591685542005      1.70114392258919     -0.01288469846432
  N   1.06645608454994     -1.09189420481468     -0.91326461679783
  O   1.99535639124545     -0.83269712355231     -1.67460698987248
  O   0.66944177700433     -2.21898517980762     -0.64708348289113
  C   -0.23385018618020      2.40795661029570     -0.34983130417910
  N   -1.03869791253117      3.23758603910845     -0.14737729267946
