14
Coordinates from ORCA-job run
  C   0.28346793402283     -0.06759834331827     -0.12420351949375
  H   1.49236803553947      1.57471777824239     -0.65087947041547
  Br  -1.80218211600819     -0.40511663638579     -0.98768289083958
  F   1.98538945149706     -0.02051800401410      0.72183200100969
  C   0.49982302399028      1.42621255167950     -0.23523297740786
  H   0.00239570638712     -0.54463044864290      0.79248762471530
  N   0.98177401689463     -0.89742928883607     -1.12535497136561
  O   1.44695076571808     -0.31827330933913     -2.10341091382271
  O   1.03138786370479     -2.09887329671027     -0.91001626505382
  N   0.57123143155251      2.00844049815824      1.16018126823608
  O   1.34643440775439      2.94508966098909      1.30927819002156
  O   -0.19130709870953      1.55968365527523      2.00459269765601
  C   -0.45474909412357      2.25900411079371     -0.97246475490401
  N   -1.09396432821986      3.06495107210836     -1.54073601833585
