13
Coordinates from ORCA-job run
  C   0.40612726570469     -0.04055222247045     -0.03311362835593
  H   1.78976687677519      1.53477745394445      0.03594019776065
  Br  -1.80955557924710      0.02194885633712     -0.28443401417516
  F   2.36510991765035     -0.36360216717659      0.24362310660000
  C   0.70754439800971      1.42927311185331      0.00262262821876
  H   0.41133855429883     -0.65493512036594      0.84381536691713
  H   0.26532587274217      1.96451864571060     -0.83054854536234
  N   0.73113648654575     -0.73162615094749     -1.29331972291565
  O   1.01725815199638     -0.02670740547592     -2.25835657889143
  O   0.65223717340951     -1.95147968948945     -1.29841836956970
  N   0.17864905825723      2.06200103496788      1.24112144087840
  O   -0.14294906718283      3.24735688735678      1.15713065701043
  O   0.16436089104014      1.40291676575568      2.27625746188483
