14
Coordinates from ORCA-job run
  C   0.42820893790797     -0.03215935944253     -0.06497180401118
  H   1.81250443804390      1.43668038277224     -0.45310820535654
  Br  -1.79862662965556     -0.16341721255230     -0.24408536593527
  F   2.39377989359435     -0.35648954999478      0.37508086121268
  C   0.75421466383293      1.43537114190699     -0.20338997178407
  H   0.45343322289078     -0.54571836541638      0.87381288592844
  H   0.66998768905550      1.84801210097622      0.80723603154853
  N   0.79232401305707     -0.92743072502660     -1.18587744142083
  O   1.13452331310073     -0.39968975151659     -2.24287814924000
  O   0.69281754816797     -2.13305542968677     -1.00042916400406
  C   -0.03725809937117      2.28753706852985     -1.19088486069751
  H   -0.07587675788117      1.80808370495019     -2.16815566539595
  H   -1.05761962098215      2.47028381376421     -0.85637501108170
  H   0.46948738823888      3.25243218073627     -1.30312413976252
