15
Coordinates from ORCA-job run
  C   0.32947543557107     -0.06877772554367     -0.09192669101490
  H   1.66882331413230      1.45765884952394     -0.49499578407262
  Cl  -1.66944499362537     -0.25614415537882     -0.75062314110453
  F   2.09471471878457     -0.22507367690867      0.67219585281467
  C   0.61925746483998      1.42218888027023     -0.20534838460964
  H   0.11177353289238     -0.57190391817188      0.82832609213082
  N   0.91471673686804     -0.93012065045671     -1.14026131514702
  O   1.37927676839434     -0.37002824483068     -2.13156031517715
  O   0.87146994991081     -2.13851301621287     -0.96221648931008
  C   0.54737771958939      1.98422498773892      1.14413795527499
  N   0.44232830177308      2.51428209900609      2.18657279796598
  C   -0.19208803158215      2.27834304876488     -1.17956258131846
  H   -0.18599781820078      1.80994467354597     -2.16241607059384
  H   -1.22233294455284      2.40550407678388     -0.85565066171988
  H   0.28651984520520      3.26013477186941     -1.24889126411836
