12
Coordinates from ORCA-job run
  C   0.50437149670196     -0.03242822210643     -0.03525577507468
  H   1.60894343324063      1.76905519307141     -0.39840309058162
  Br  -1.93920971799566     -0.06637223818714     -0.35022119393120
  Br  2.82538395993885     -0.38736013162008      0.69932273631866
  C   0.61466935181229      1.47385333111785     -0.06432953602803
  H   0.27499098036331     -0.65018580731430      0.80936967613798
  H   -0.11987842358870      1.89054615511582     -0.75303375295017
  N   0.73771452853021     -0.72904034214849     -1.31052011963251
  O   1.00183204352077     -0.02241967521077     -2.28258787228911
  O   0.65266326575692     -1.95003583079639     -1.30922939975210
  C   0.37991517008560      2.02744114162481      1.26539441780821
  N   0.19467391163381      2.51961642645372      2.31436390997454
