17
Coordinates from ORCA-job run
  C   0.34617960178428     -0.03289306242522     -0.08138861079591
  H   1.60242453291979      1.56190195306991     -0.40868181246323
  Cl  -1.68921320464045     -0.31391530652499     -0.65463630379497
  F   2.15082484346095     -0.17822326326382      0.67201067624280
  C   0.54308626449268      1.46557765877686     -0.17574520255117
  H   0.17754667299172     -0.55964578268896      0.83572133661218
  N   0.92849473759123     -0.88696275728948     -1.13771269756613
  O   1.37246031909460     -0.32572384979933     -2.13814924735080
  O   0.91229697377022     -2.09738223876967     -0.95755813306562
  C   0.31477169346871      2.03478665247440      1.21986484119529
  H   -0.72121796526846      1.87639985317910      1.53721632506706
  H   0.99394439425812      1.53477593453775      1.90959629109218
  H   0.51373585629531      3.11174400194931      1.23383248562469
  C   -0.24924712027892      2.22721626808264     -1.23458264377061
  H   -0.19642642860371      1.72684151854749     -2.20064685954232
  H   -1.29832382586801      2.33852969823889     -0.96074185465799
  H   0.19303265453195      3.22548272190512     -1.33642859027546
