14
Coordinates from ORCA-job run
  C   0.48454181983241     -0.00356575910796     -0.05347838837681
  H   1.50263003048940      1.81470857043043     -0.44273642624499
  Br  -1.97650750076873     -0.21002757068623     -0.35118904700286
  Br  2.83357213861731     -0.30120930426512      0.71813447425976
  C   0.52240266958302      1.49753497488152     -0.08769189232666
  H   0.28429766249621     -0.62893562156614      0.79408924921311
  H   -0.21593751066443      1.84940596007153     -0.80784785964558
  N   0.74955436837736     -0.73974412293733     -1.30419912715241
  O   0.98569135772456     -0.06324439738224     -2.30482649011400
  O   0.71599992544157     -1.96403767159055     -1.25986615300652
  C   0.23944300388611      2.07090753189217      1.29373354912259
  H   -0.74966688060792      1.76248785155890      1.63739379411315
  H   0.99305890979930      1.73125226243417      2.00646294130825
  H   0.26549000579385      3.16392729626685      1.26108137585296
