16
Coordinates from ORCA-job run
  C   0.45829217474732     -0.01776443876295     -0.05379159978111
  H   1.67959360496937      1.59284779372966     -0.53966278023769
  Cl  -1.82368995607083     -0.28307304799754     -0.75999837503146
  Cl  2.45193075271985     -0.37189711661076      0.99074277491584
  C   0.65349656187150      1.47979735826022     -0.17223219966201
  H   0.01009176746105     -0.51661105995260      0.78119559714569
  N   0.85163971642078     -0.87633307495439     -1.18614688719138
  O   1.26358791981864     -0.30500645186656     -2.19672123327143
  O   0.76557159679563     -2.08763049334794     -1.03888709925434
  N   0.47563135082290      2.02996097249030      1.17298761112807
  H   0.55053748846560      3.03899721412043      1.11093095060150
  H   1.24128749402379      1.69569959485538      1.74782159911453
  C   -0.24357756140416      2.23936157723076     -1.13959436495629
  H   -0.26403736157716      1.75878116739120     -2.11438396889944
  H   -1.25732533339068      2.29679351725365     -0.75237332706393
  H   0.16880978432634      3.25069648816112     -1.25085669755653
