12
Coordinates from ORCA-job run
  C   0.61824342306454     -0.04396402862417     -0.04169554754729
  H   1.81622816977650      1.71075916688046     -0.30889549893771
  Cl  -1.71101995746789      0.04893865010629     -0.10204291116462
  Cl  2.77669841963641     -0.45742986618244      0.47876387859776
  C   0.76954543429938      1.45705981941653     -0.14466052186071
  H   0.39036519215666     -0.58952678572623      0.84932472505455
  H   0.46689611621358      1.86058694822261      0.82456733614278
  N   0.68478008159501     -0.84579324452997     -1.27492598201169
  O   0.95083624852914     -0.24095804264145     -2.31122479357242
  O   0.49353100727434     -2.04978789078926     -1.16784853882100
  C   -0.00619764401602      2.14231611284558     -1.18008210826089
  N   -0.51513649106166      2.85095916102204     -1.96527003761875
