13
Coordinates from ORCA-job run
  C   0.48574495309408      0.14021998647745     -0.23701423991207
  H   1.00481509780520      1.56397256668837     -1.69669504938485
  F   -0.94176835139374      0.28239783451572     -1.55848018894075
  Cl  1.82140330126318     -0.24968409226035      1.38964267216713
  C   0.87978363781642      1.55423339980874     -0.61733520850679
  H   -0.36887819597674     -0.09702524407727      0.36457747964151
  H   1.81937382228653      1.84313965436044     -0.14848426913004
  N   0.93572913753725     -0.98777315039725     -1.07813603715598
  O   1.79874659865579     -0.75419549125030     -1.92078369306774
  O   0.43522851759510     -2.08451159582441     -0.86220757866168
  N   -0.16136504298396      2.51311221238894     -0.26715973413763
  H   -0.29168992254736      2.49322616754113      0.73918588312953
  H   -0.99260355315173      2.11211775202878     -0.69323003604060
