14
Coordinates from ORCA-job run
  C   0.55907691233747     -0.02537371886192     -0.08170515779382
  H   1.82590705251869      1.51563694123606     -0.68601322127694
  Br  -1.91465952577752     -0.18273000664614     -0.37655597326142
  Cl  2.70358243310206     -0.44162599765764      0.76628483928135
  C   0.82359911803963      1.44666104298794     -0.26615949221850
  H   0.27258403960419     -0.52884638911377      0.81712729555509
  H   0.88650229502457      1.85874688907451      0.74444967313181
  N   0.79630339821385     -0.92476055528360     -1.22966995624401
  O   1.13806881832605     -0.39413036961109     -2.28748455383242
  O   0.64844608308825     -2.12692804361106     -1.05128456719171
  C   -0.11252578392081      2.28381560527746     -1.13576688700231
  H   -0.26694658091733      1.81044262743072     -2.10390057052753
  H   -1.08393579440341      2.42809729317590     -0.66960447316847
  H   0.35589753476430      3.26143468160264     -1.29686695545111
