14
Coordinates from ORCA-job run
  C   0.27975534287819     -0.06943994358657     -0.16706893085617
  H   1.31384494700447      1.63360742255804     -0.84432968198605
  F   -0.86987278293350     -0.10224637611372     -1.47042810605146
  F   1.51716999745571     -0.16080302186053      1.00277349589079
  C   0.41762150792213      1.43633358708171     -0.25658104497420
  H   -0.42158990409236     -0.56444589732996      0.47832378522987
  N   1.13451586428852     -0.92033827730554     -1.03841837855146
  O   1.92888065447700     -0.36506199860382     -1.79005305305668
  O   0.98407917691265     -2.12947279216523     -0.93334252340082
  N   0.66142478626067      2.04891175030687      1.10460983479008
  O   1.65961314636632      2.74784812257704      1.23482244809533
  O   -0.19948884322552      1.85289560694575      1.95273411365785
  C   -0.72720616887886      2.17139997404034     -0.79958447362745
  N   -1.57972772443540      2.90647184345557     -1.13506748515956
