14
Coordinates from ORCA-job run
  C   0.34229736854503     -0.01606607715768     -0.06045374685647
  H   1.55347623694743      1.58838418045619     -0.60575676735578
  Cl  -1.69664659653379     -0.25732895787373     -0.86900827854333
  F   1.99547415436479     -0.10082367516474      0.76137039695679
  C   0.55621735085882      1.48374171738895     -0.16828388495562
  H   -0.01107663437589     -0.49865131570446      0.82795098957493
  N   0.92532794597157     -0.87606450741332     -1.10484434523085
  O   1.37740910797966     -0.31586662368413     -2.10073401293690
  O   0.92761229585753     -2.08162652437088     -0.89960388993193
  N   0.47516706869094      2.01219957054526      1.19802882926460
  H   0.67319688790577      3.00632806001490      1.17115475378685
  H   1.23888064045469      1.54076793827616      1.67353554406102
  C   -0.34971562311608      2.25340903304563     -1.03228532655307
  N   -0.92291020355045      3.04893718164185     -1.67888026128026
