15
Coordinates from ORCA-job run
  C   0.47663465387245     -0.05872357610058     -0.06152614772552
  H   1.71175638438984      1.58331526905204     -0.46588465347259
  Br  -1.94112894593096     -0.27469250045137     -0.55644090709979
  Cl  2.57622252343578     -0.38859327273515      0.83270824078619
  C   0.66571619247037      1.44501156303792     -0.18727437381688
  H   0.14989002372366     -0.58902199811832      0.80931505625491
  N   0.82890978679266     -0.88982520014245     -1.22787248519777
  O   1.23910964064564     -0.29677949529607     -2.22591670177546
  O   0.70666124026552     -2.10105239024969     -1.11472031100501
  C   0.50550947091612      2.02712718411553      1.14717633124309
  N   0.33752049062816      2.56331694073520      2.17834738546720
  C   -0.17586234661092      2.23936422710941     -1.19664480679632
  H   -0.14094220181400      1.75103180386121     -2.16791109583375
  H   -1.21027617145831      2.32371101463389     -0.87772496709217
  H   0.26614925867397      3.23753043054842     -1.27785056393612
