13
Coordinates from ORCA-job run
  C   0.16742881600559     -0.05698267382171     -0.20915443283624
  H   1.54285078257258      1.49818501171305     -0.66845898262537
  F   -1.13218102930562     -0.08210902526188     -1.03223301599728
  H   1.77313406487864     -0.15785004490350      0.74374471204556
  C   0.55472865041080      1.42371776212942     -0.21336279815882
  H   -0.16081972657274     -0.53147764014605      0.69934560136812
  N   1.00526469169546     -0.91386677095649     -1.04960389248703
  O   1.60856860686723     -0.37587227093156     -1.98921657862165
  O   0.89585990471580     -2.13289018487166     -0.89391912549603
  C   0.62100054766273      1.95389381725712      1.15135835639621
  N   0.59446850128495      2.47771008628546      2.20299210025411
  C   -0.36146442743523      2.28203715272830     -1.00675210946691
  N   -1.01009938278019      3.04994478077949     -1.61379983437466
