16
Coordinates from ORCA-job run
  C   0.23721418620260      0.01742643429328     -0.15164340318914
  H   1.61006761923963      1.62067157690631     -0.41659527325811
  F   -1.23184147403917     -0.03841894981400     -0.72326735774052
  H   1.99328712117875     -0.22243189864039      0.63864786795144
  C   0.55826564863474      1.51234953742545     -0.16955137444959
  H   0.04825166807055     -0.49370925596337      0.77433492102500
  N   0.90635947110548     -0.84673262372523     -1.12511996384162
  O   1.43664919050545     -0.31588314014750     -2.10780549854072
  O   0.72969292117306     -2.06569298698810     -1.00474626945931
  C   0.30452762745123      2.04430724911528      1.24094330138752
  H   -0.75260711994821      1.92082647622499      1.49862564780685
  H   0.92552064431355      1.50520038517163      1.95955204249093
  H   0.54554416334582      3.11211902020190      1.29570842986347
  N   -0.21727467610385      2.23043288921355     -1.19668776565933
  H   -0.24578155088207      3.21069540914871     -0.93791489416837
  H   -1.16088544024758      1.86613987757746     -1.18148041021850
