14
Coordinates from ORCA-job run
  C   0.56832278377923     -0.02282491944309     -0.08203313810791
  H   1.81769410810909      1.53564834571990     -0.69985409825129
  Cl  -1.79168892941274     -0.15119323249001     -0.43960818751162
  Br  2.78582536055445     -0.49598290860927      0.84304217452270
  C   0.82129761865472      1.45208708812470     -0.26830030632197
  H   0.23549382653584     -0.52125778389025      0.80391546189771
  H   0.88696067696229      1.86734661066060      0.74109046748924
  N   0.78384729519311     -0.91902865678474     -1.23707768629314
  O   1.12245323118299     -0.38650015108481     -2.29485126017338
  O   0.62077455811265     -2.11984860552980     -1.06440955392055
  C   -0.13698722651391      2.27665612134479     -1.12724149586228
  H   -0.28479859864109      1.80758008709437     -2.09789376033166
  H   -1.10937278270669      2.39258980976040     -0.65661916949539
  H   0.31207807819005      3.26516819512721     -1.27730944764045
