11
Coordinates from ORCA-job run
  C   0.58431254997595      0.00430263501843     -0.03145032470530
  H   1.74971527418938      1.74201727504779     -0.46352340457834
  Br  -1.89688838229036      0.05067912418067     -0.12625939011062
  Br  2.93795200187530     -0.53341220678615      0.56972949440896
  C   0.77522997127311      1.49069488435858     -0.05228080274884
  H   0.38791710922395     -0.62379754083818      0.81239241967798
  H   0.71841035207869      1.85086369839305      0.97554172781950
  H   -0.00075296257364      1.96926989574732     -0.64453651673623
  N   0.68064926436933     -0.72003299265549     -1.31367495994912
  O   0.90576927870636     -0.04324835122595     -2.31635532693825
  O   0.52978554317194     -1.93594642124006     -1.28964291613973
