16
Coordinates from ORCA-job run
  C   0.22530015221505     -0.02190169797343     -0.14105939262021
  H   1.51091315531333      1.59825370068298     -0.43728488416862
  Cl  -1.66682863542099     -0.28683862419835     -0.43895610030420
  H   2.34944515001541     -0.14908140457898      0.64298927298610
  C   0.46622258641111      1.48323869875328     -0.16319886968997
  H   0.38497736570739     -0.53988663080287      0.78688200799033
  N   0.88053319418881     -0.79853612649617     -1.22660537493084
  O   1.30525876726513     -0.18595820893488     -2.20551604498694
  O   0.82545544863589     -2.02454411639155     -1.13019435074268
  C   0.26817692148562      2.00669135640035      1.25599742990902
  H   -0.75338989655160      1.81305730397883      1.59981270588100
  H   0.98149140483561      1.51181733389892      1.91934250483781
  H   0.43996744664622      3.08801622655859      1.28321743979418
  N   -0.33126989221661      2.17195396056086     -1.18156534638905
  H   0.07976199152803      3.08715768870559     -1.32251082576534
  H   -1.27902516005842      2.30386053983686     -0.84835017180059
