14
Coordinates from ORCA-job run
  C   0.49656828756859     -0.03701711151040     -0.02493698652574
  H   1.64350151232987      1.65352384612881     -0.50793363218931
  Br  -1.97681875813448     -0.22521810776367     -0.55060743603124
  Cl  2.52417410861156     -0.30510824220614      0.86227759781732
  C   0.63026361673559      1.47171632901474     -0.13017764117192
  H   0.08448514355134     -0.54951912384850      0.82054021219179
  N   0.80123663394057     -0.83132886431918     -1.22330685357048
  O   1.12057475854290     -0.19586914146218     -2.22865549447985
  O   0.75554562062962     -2.04993544267472     -1.12452165517284
  N   0.40863693736942      2.02111618076818      1.20750459375730
  H   0.41258895587312      3.03255613988613      1.14843500484337
  H   1.19796393781359      1.73200553317730      1.77534201967326
  C   -0.24684909711115      2.15846170221578     -1.08758189307240
  N   -0.76716165772054      2.91195630259388     -1.82418783606926
