13
Coordinates from ORCA-job run
  C   0.28273431880806      0.04388004930845     -0.05137699092701
  H   1.32229626334312      1.76360287867107     -0.64436819830579
  Cl  -1.73343428325762     -0.18113340869911     -0.81084042404228
  F   2.06053067446495     -0.06445481701153      0.69259499191655
  C   0.43421211760814      1.54324240279794     -0.04706867464088
  H   0.04104243557908     -0.52513211761446      0.82384273300752
  H   -0.42928455964470      2.02623857885987     -0.50236601735743
  N   0.88700903892963     -0.74364491475543     -1.14496401148768
  O   1.30309712041697     -0.13323362833775     -2.12610803155979
  O   0.91295008123977     -1.95962385627960     -1.00590853941209
  N   0.54501466087011      1.96617298768921      1.35191537820061
  H   0.70993788756738      2.96628027032476      1.37124100776726
  H   1.38593424407511      1.49337557504657      1.66952677684101
