14
Coordinates from ORCA-job run
  C   0.49526408978928     -0.00452837613805     -0.05137794447612
  H   1.50652288602753      1.82436499490245     -0.42522551648323
  Cl  -1.83659013727567     -0.15683344698052     -0.36867405858635
  Br  2.80811123828678     -0.31687275733890      0.70858224963427
  C   0.52632340568514      1.49582929432301     -0.08137845894855
  H   0.26918389749371     -0.63107517100264      0.78829158497369
  H   -0.21075354552138      1.84178428600772     -0.80490744532473
  N   0.74096695232661     -0.73605990966997     -1.30887703747121
  O   0.98256453673463     -0.05753728071578     -2.30614815634129
  O   0.68717849000080     -1.95948011664823     -1.27121607305086
  C   0.22308460492411      2.06030593380583      1.29912438390385
  H   -0.76765674820936      1.74198402749498      1.62775790909750
  H   0.96972371611296      1.72391875898727      2.02091479092458
  H   0.24064661362486      3.15365976297281      1.27219377214847
