13
Coordinates from ORCA-job run
  C   0.46060031035451      0.00609825746298     -0.02915881739265
  H   1.48803805535440      1.78341639404604     -0.54537297781082
  Br  -2.01387744701231     -0.12814866227895     -0.56319269283084
  Br  2.71888652653089     -0.34391793481896      0.84281007698513
  C   0.55987862753799      1.50917511885634     -0.03493383774199
  H   0.12988685723545     -0.58983870174099      0.79870060167133
  H   -0.27143651354234      1.91937011643963     -0.60482180588227
  N   0.75877635672280     -0.72429839580318     -1.27209481634981
  O   1.05158681249624     -0.04370292170119     -2.25559989460401
  O   0.70718076048261     -1.94794043394733     -1.23967661046847
  N   0.46675547598875      1.98057688064036      1.34347988048245
  H   0.31304991005234      2.98064941326016      1.33768105753107
  H   1.35271426779867      1.79413086958507      1.79829983641090
