13
Coordinates from ORCA-job run
  C   0.51026318511232     -0.04968667560033     -0.02643247472688
  H   1.69470259427644      1.74933445562222     -0.16849891615397
  Cl  -1.75371775528414      0.05436524345396     -0.33266778198590
  Cl  2.70048598847117     -0.46830539666693      0.54885070615652
  C   0.65881957706118      1.44313324243118     -0.04251108879530
  H   0.27855019981323     -0.65332012028632      0.82605525441871
  H   0.04025248723285      1.90170648265002     -0.80545845559071
  N   0.69139068143130     -0.73118840497615     -1.31726565382151
  O   0.96926457096512     -0.01970489053807     -2.28129895508614
  O   0.55524242763281     -1.94619560954579     -1.33416064765242
  N   0.22273153603923      2.03783995717688      1.25427845700873
  O   0.01707917875481      3.25006365438165      1.23267551096823
  O   0.15128532849369      1.32584806189769      2.24875404526062
