16
Coordinates from ORCA-job run
  C   0.52731842697731     -0.01640006598689     -0.01284198426186
  H   1.71011131054362      1.64478808237992     -0.50959994356272
  F   -1.31384030154082     -0.14847776361045     -0.89965686296344
  Cl  2.25921174938257     -0.44264960782988      1.03001210723067
  C   0.68419220781030      1.48884744754579     -0.15065024192110
  H   -0.15462822033257     -0.44777200415503      0.69103447123230
  N   0.80959143863635     -0.86468245050905     -1.18710941484976
  O   1.28379499520249     -0.31015029544136     -2.17873608951757
  O   0.62688107465272     -2.06837713533363     -1.07397011217907
  N   0.47596930019024      2.05839785972356      1.18959647575761
  H   0.53049784457211      3.06740701010108      1.10575695821772
  H   1.24083583370202      1.75978273372969      1.78400090215549
  C   -0.25922591273297      2.17662116226375     -1.12228278551164
  H   -0.17305923831463      1.73911931016093     -2.11261386651881
  H   -1.28244278499960      2.04779249765708     -0.78665368028639
  H   0.01663227625084      3.24037321930449     -1.16725593302147
