13
Coordinates from ORCA-job run
  C   0.43671382640087      0.01103691839623     -0.02853867092062
  H   1.51386895610893      1.75473974228508     -0.53395048260502
  Br  -1.99296663089710     -0.10125671075346     -0.60686230447205
  Cl  2.56336310870020     -0.32170722769498      0.81730758327952
  C   0.57106753420603      1.50996664540243     -0.03646680602164
  H   0.10328690914046     -0.57630579427685      0.80363385884831
  H   -0.24060343910363      1.94380624181089     -0.61668369910127
  N   0.76771725509444     -0.73378562035250     -1.25496704047566
  O   1.08653651578914     -0.06543019023464     -2.23817036172009
  O   0.71366796404481     -1.95636830343051     -1.20855948535216
  N   0.47768077738822      1.98456273079045      1.34059159744584
  H   0.37389151113896      2.99100544675219      1.33318936616474
  H   1.34781571198868      1.75530612130565      1.80559644493007
