14
Coordinates from ORCA-job run
  C   0.33621458793372     -0.03112717387352     -0.14687058355868
  H   1.78579727487125      1.40888159454850     -0.73514409138439
  F   -1.13952392933719     -0.00355720819239     -0.75315419261483
  H   2.03143396295949     -0.34799422383758      0.58827513733779
  C   0.79872948560248      1.41247261841376     -0.28165635693619
  H   0.08753522009564     -0.47364192699571      0.80015020973478
  H   0.92787338776810      1.79540436865679      0.73436225013086
  N   0.90214913023515     -1.00553241289856     -1.07946569247034
  O   1.39624676480878     -0.57158227690655     -2.13199598630466
  O   0.67882738596863     -2.20334206996909     -0.87065893451398
  C   -0.12551857766925      2.32722661452056     -1.08963777531833
  H   -0.24039401732868      1.94581331500039     -2.10395201880087
  H   -1.11889685550549      2.39528090121170     -0.64692997713644
  H   0.31142617959740      3.33213788032168     -1.14047198816473
