14
Coordinates from ORCA-job run
  C   0.61354630005073     -0.02284115633612     -0.05176362973477
  H   1.85796154278371      1.54188138804656     -0.70476376588907
  F   -1.27377892072725     -0.03171500308194     -0.72924476262296
  Cl  2.42213802610422     -0.51234258765398      0.88179886627478
  C   0.86790257341749      1.45327309121005     -0.25503102116383
  H   0.00598412626760     -0.43357718327816      0.72658641037894
  H   0.95331668191238      1.87418318661491      0.75183623594250
  N   0.76212938296061     -0.92108511339703     -1.21625953394131
  O   1.17999504866539     -0.42126799187818     -2.25994100320245
  O   0.50846367241999     -2.10663511087651     -1.05445469812218
  C   -0.13638829462755      2.24670083363801     -1.08115526267102
  H   -0.20850161160484      1.83399411355554     -2.08456157003473
  H   -1.12640068943555      2.19141737593183     -0.64089613288689
  H   0.20553216181307      3.28845415750504     -1.13930013232702
