14
Coordinates from ORCA-job run
  C   0.35556072378660      0.00553575910265     -0.10976570730405
  H   1.71187023022940      1.55883366189485     -0.49119563588541
  F   -1.20981944759564      0.01671568430744     -0.85672907721409
  F   1.89625527360787     -0.24356628465267      0.70962312673096
  C   0.66841098220811      1.50319345394450     -0.18428383493966
  H   -0.09696751275116     -0.48298080936293      0.73080812885023
  N   0.85504416110814     -0.86034835188141     -1.19733622683328
  O   1.43182384580798     -0.32085567462263     -2.13694836634160
  O   0.65134285742913     -2.06330678300635     -1.08764805743777
  C   0.59296785351350      2.00574294034662      1.20204198261440
  N   0.45634100766104      2.50220722168219      2.25813884461187
  N   -0.16405876725463      2.29194562076460     -1.09262516301994
  H   -0.31561252107782      3.21256959081038     -0.70222547155884
  H   -1.04466868667251      1.79482397067274     -1.16304454227282
