13
Coordinates from ORCA-job run
  C   0.36272231228409      0.14846395845209     -0.31059894681121
  H   1.08461118747192      1.56563746506875     -1.70086094388386
  F   -0.85279918387211      0.20784191219735     -1.53952077950882
  F   1.53524237494854     -0.12842759962214      1.04273801585376
  C   0.87881121848968      1.53040557312518     -0.63222668591935
  H   -0.39201234516468     -0.05869457530121      0.42289549373106
  H   1.79515948299413      1.71549823653744     -0.07982108592806
  N   0.96783647170772     -1.03408691804951     -0.95108714168910
  O   1.88697260125848     -0.84716510012523     -1.74568881499249
  O   0.50710606795121     -2.13275466248312     -0.66196339158453
  N   -0.10650571353746      2.57040576275050     -0.32343351758964
  H   -0.28652188570359      2.53440086050691      0.67498212132179
  H   -0.95610258882791      2.25770508694302     -0.78153432299957
