16
Coordinates from ORCA-job run
  C   0.31172622144421     -0.00555918456591     -0.08815870608371
  H   1.61770673918853      1.49965867106473     -0.61683485397997
  Br  -1.83548676844343     -0.36035469840882     -0.90970311597143
  F   2.03741528176929     -0.15027878386424      0.84710684795125
  C   0.59813755304548      1.48000196955740     -0.22130470226899
  H   0.00908151626755     -0.46410775497613      0.83126861668483
  N   0.94908184804510     -0.92515081710999     -1.05105443910960
  O   1.43564091815781     -0.42703241972946     -2.06593567565560
  O   0.93950795007210     -2.11961239247149     -0.78651243429342
  N   0.53734900915860      2.00400604407236      1.14814941853700
  H   0.81477670337385      2.98003151085113      1.12043256864388
  H   1.26759019820523      1.47997223783655      1.62540428556050
  C   -0.27337754194712      2.31888590501299     -1.13955487580385
  H   -0.30721126650393      1.89352514131896     -2.14204170659161
  H   -1.28685989629437      2.39818119999520     -0.75036297231502
  H   0.16676153446111      3.32245337141672     -1.20186825530425
