14
Coordinates from ORCA-job run
  C   0.47865041994630     -0.00480100715221     -0.04948474039237
  H   1.53010520240615      1.79575048937272     -0.41422846905136
  Br  -1.94929510230271     -0.19707703092977     -0.36866008875920
  Cl  2.70435111903221     -0.26714508610182      0.67505216463461
  C   0.53593012575723      1.49465054859236     -0.08676902959524
  H   0.28696495307097     -0.62382590752962      0.80417993977331
  H   -0.17994364039426      1.85927678863036     -0.82266392354511
  N   0.76626417579539     -0.74899652069932     -1.29033885822354
  O   1.01745993834212     -0.08005220474894     -2.29172718337807
  O   0.73569214215733     -1.97262529199247     -1.23602506419934
  C   0.23244703449003      2.06958920415175      1.28950044754433
  H   -0.77100261318656      1.78323774799465      1.60970688461883
  H   0.96139246876867      1.70965961975998      2.01761727094575
  H   0.28555377611712      3.16181865065232      1.26290064962740
