16
Coordinates from ORCA-job run
  C   0.48928435996706      0.00879891375942     -0.09088187205380
  H   1.60203096884062      1.75428442319187     -0.39161357185757
  Br  -1.97319515538972     -0.26106175772428     -0.32744634179768
  Cl  2.67552554485400     -0.27533038713058      0.72355155359641
  C   0.56561924894848      1.52281101380762     -0.14499449429065
  H   0.26437063036380     -0.57683636074892      0.77680540322877
  N   0.81504854415893     -0.79342904762492     -1.28827943348331
  O   1.27631793813442     -0.19816312328497     -2.25764243488764
  O   0.62841436629894     -2.00371282865442     -1.21030308362755
  C   0.25844748757162      2.05141400290453      1.25704397177100
  H   -0.77565918207146      1.81694436342751      1.52075395462165
  H   0.93260944447496      1.61683314444779      1.99768002544695
  H   0.38255553680746      3.13898859807070      1.26929996692081
  N   -0.23355549929837      2.12419059086177     -1.20947291663683
  H   -0.00390753592777      3.11111849073765     -1.24096062746033
  H   -1.21691669773300      2.02044996395926     -0.99054009949023
