15
Coordinates from ORCA-job run
  C   0.37699151225859     -0.04098474562468     -0.06169678402657
  H   1.59271869136818      1.61533884150549     -0.38537445060001
  Cl  -1.70410225503470     -0.24225828418463     -0.52052954263020
  F   2.17074583836757     -0.12435817371396      0.57114136888289
  C   0.53984852724595      1.46166066178105     -0.15093098420128
  H   0.23008753444436     -0.57450399494230      0.85505777224900
  N   0.87200871411595     -0.85298166359487     -1.18712880172994
  O   1.23639783443844     -0.24607188076824     -2.19115200988495
  O   0.88237032614245     -2.06774708935452     -1.04076069055645
  C   0.24912058321109      2.05779693657038      1.22605599336878
  H   -0.78494435351927      1.86035343393192      1.51541217056153
  H   0.93518850835227      1.58714382313758      1.92988489164902
  H   0.41329225327543      3.13784991613210      1.22136394133661
  C   -0.23474697038498      2.14786371906850     -1.18934303372011
  N   -0.77773674428134      2.85212850005621     -1.95686984069829
