14
Coordinates from ORCA-job run
  C   0.49778264952536     -0.02580970349101     -0.10004695835275
  H   1.66788881224351      1.70516678049446     -0.42390213247276
  Cl  -1.83948648422921     -0.12153605186447     -0.38571148538473
  Br  2.73278468578108     -0.39242781659661      0.76929309858171
  C   0.63161204758549      1.49205786947485     -0.16009442073033
  H   0.20823111440009     -0.59856316591464      0.75629139300257
  N   0.77512525189934     -0.79944239529723     -1.32442756465247
  O   1.23379083112992     -0.18418209966847     -2.28285203707036
  O   0.54814276734840     -2.00287293732669     -1.27873612347189
  C   0.42843423980873      1.98815735776001      1.22039393411964
  N   0.24026925718647      2.49495900438569      2.26399427877794
  N   -0.18962600601006      2.17696828080335     -1.14409274761210
  H   0.02151029412803      3.16651803126315     -1.09399892090861
  H   -1.16796946079714      2.02151684597759     -0.93730031382586
