16
Coordinates from ORCA-job run
  C   0.38597432992076     -0.00753520945508     -0.04816210892532
  H   1.66003445779214      1.55866761364297     -0.54027103292741
  F   -1.16754849433363     -0.12916818717239     -1.03069094816720
  F   1.79656478705695     -0.24604498562607      0.88893669523436
  C   0.62603649175892      1.48568461470989     -0.18208811710492
  H   -0.22370506326977     -0.44343306631870      0.71772165267975
  N   0.91441580494759     -0.91718751195486     -1.08241842766149
  O   1.48855596126953     -0.41612127052347     -2.04861395857093
  O   0.77636162822119     -2.12046144287996     -0.90210934390437
  N   0.48860440985600      2.03965970483186      1.17760194301537
  H   0.78803561793031      3.00908802934262      1.14696327728895
  H   1.16275255767201      1.52826731808534      1.73704038839632
  C   -0.26846187269212      2.25349541245686     -1.13479088528537
  H   -0.19880590157572      1.83730005243472     -2.13723928720597
  H   -1.30266438659679      2.18852909310424     -0.80869638221069
  H   0.05568967204264      3.30387983532202     -1.15415346465108
