17
Coordinates from ORCA-job run
  C   0.51133485510453     -0.02025588471912     -0.06314344583835
  H   1.64617099820490      1.70257525122942     -0.39028124558392
  Cl  -1.83847518456933     -0.26411243946930     -0.47770452742324
  Br  2.73016645884709     -0.39303358882471      0.87650700693457
  C   0.60158397958702      1.48765455646396     -0.15814266247260
  H   0.18103677444223     -0.57931094493767      0.78916448053350
  N   0.82072650394796     -0.85872332175150     -1.23964878381026
  O   1.21300377648405     -0.27932593023353     -2.25305035089376
  O   0.68799611301744     -2.07012054890296     -1.11997072832219
  C   0.27597607428464      2.05698966583381      1.22017639649759
  H   -0.75970139048281      1.82100399378876      1.47799140066682
  H   0.94113446895777      1.64537908205920      1.98100115446481
  H   0.39045820009246      3.14526905466619      1.21046928246648
  C   -0.23239671181741      2.18820714497401     -1.23583979741363
  H   -0.14952084801926      1.68461073064849     -2.19623609778244
  H   -1.28281985502656      2.23388214097140     -0.95917373518486
  H   0.15769578694526      3.20782103820358     -1.34014834683851
