13
Coordinates from ORCA-job run
  C   0.20763838709130     -0.05958120942066     -0.06883462054175
  H   1.69169360801922      1.33338354841644     -0.15835056110049
  Br  -1.80267263647543     -0.20073923904814     -0.22315129780473
  H   2.47250187701708     -0.18633883852731      0.31082916842257
  C   0.58175121661507      1.42370072686024     -0.10817427617445
  H   0.49487759602827     -0.55025212708966      0.85025197303448
  N   0.77988077586089     -0.82171009472162     -1.21159104934660
  O   1.04006308634825     -0.18151862835463     -2.23269116991172
  O   0.74539478131699     -2.04637888963367     -1.11953903446791
  C   0.23631017658475      2.05188129001310      1.16466576587682
  N   0.00120468771701      2.56887777050950      2.19305441533085
  C   0.02356303214719      2.19597580485277     -1.21403146413459
  N   -0.37346658827060      2.90713988614367     -2.06149784918245
