13
Coordinates from ORCA-job run
  C   0.40571457870410     -0.04287727826093     -0.03500962550136
  H   1.75915726682607      1.57543153491976     -0.03298235495917
  Cl  -1.66859560338074      0.04016285674123     -0.33955464592790
  F   2.30225521888393     -0.35414637447882      0.29795022575886
  C   0.68256509259041      1.43088321597362     -0.01189957000717
  H   0.34708329550477     -0.64934434872224      0.84418370307902
  H   0.18183363193210      1.96048873899519     -0.81468415686463
  N   0.73738563156225     -0.73936990371273     -1.28878680489892
  O   1.04282127846469     -0.03957674018410     -2.25176942340194
  O   0.65278951599883     -1.95891482491235     -1.29103703958864
  N   0.19935060617843      2.05054736239168      1.25322295752568
  O   -0.06129787382315      3.25273594725226      1.20128022140348
  O   0.15528736055832      1.36786981399740      2.27140651338272
