12
Coordinates from ORCA-job run
  C   0.31990596756781     -0.02825075183320     -0.05263574760992
  H   1.67540793404273      1.65719520728439     -0.25584085101768
  F   -1.21935389979880      0.06257270843222     -0.42175238542908
  H   2.10983963594641     -0.35321862089664      0.35832702436461
  C   0.63426047157615      1.45716614910899     -0.02918188039651
  H   0.23338622169081     -0.62930528409493      0.83318793991745
  H   0.00623993119028      1.93397945002331     -0.78565215959990
  N   0.81452002553600     -0.74749016630735     -1.21438335731948
  O   1.14564970311881     -0.06484717024054     -2.19917838967302
  O   0.66078983829329     -1.97410942004198     -1.24038774436085
  C   0.30637293071897      2.02351017746681      1.27680223122934
  N   0.04905124011755      2.50546772109892      2.31556531989503
