14
Coordinates from ORCA-job run
  C   0.64505469989413     -0.00448995722806      0.00460868724421
  H   1.61990106966886      1.88180045777767     -0.30910335352571
  F   -1.30811818990832      0.02637510200352     -0.35378430510127
  Cl  2.63179038074518     -0.36839482274447      0.58198260912464
  C   0.62942580623215      1.49664545109939     -0.06235510131262
  H   0.23314995040777     -0.57537606937054      0.81209189956516
  H   -0.06636315360699      1.76486303464294     -0.85214360727462
  N   0.67355610920910     -0.75266121635622     -1.26791881333841
  O   0.90258216500283     -0.11516812591461     -2.29290746420163
  O   0.50472224752953     -1.96438144150280     -1.21109408089819
  C   0.13817538190448      2.04722821331585      1.26887994342824
  H   -0.86055939759148      1.64927562596422      1.44576961830817
  H   0.80219952059292      1.75316778874488      2.08651213443219
  H   0.08905340991983      3.14057595956823      1.24852183354983
