12
Coordinates from ORCA-job run
  C   0.48109956345723     -0.03648144245566     -0.03987569751311
  H   1.82892319200597      1.54352441841156     -0.35518986547058
  Cl  -1.63414079478753     -0.01299460846844     -0.19243276687145
  F   2.34852155653908     -0.30372244926423      0.31071031463292
  C   0.76603846622144      1.44341511519808     -0.14858707437882
  H   0.44049007116945     -0.57008567261837      0.88641006858657
  H   0.56399663036874      1.87490268525319      0.83523351502257
  N   0.74209798080543     -0.87051885787066     -1.22591868882594
  O   1.03511662318746     -0.28402088542319     -2.26407769172010
  O   0.64038864747134     -2.08223798888501     -1.09084353782285
  C   0.01396172174109      2.20599847200782     -1.14572417445147
  N   -0.49172365817969      2.93538121411492     -1.91369440118774
