15
Coordinates from ORCA-job run
  C   0.49482776404092     -0.03845157765143     -0.01854847938962
  H   1.64090114375892      1.70760393128827     -0.32017648201540
  F   -1.21257619259745     -0.05173358561891     -0.51370440066635
  F   2.10555836498661     -0.20144543751127      0.54737167406617
  C   0.59589162327679      1.46849699872109     -0.11965271638445
  H   0.15530451628786     -0.56821301863301      0.85034582738358
  N   0.81508595943799     -0.85334506237825     -1.20410791391568
  O   1.20777263212778     -0.26157776110851     -2.20699346624536
  O   0.69039790921817     -2.06789019654199     -1.10253165456352
  C   0.18715236972220      2.05578114194020      1.23244769190657
  H   -0.84855917888580      1.78229953356620      1.43842436221784
  H   0.84095083205892      1.63981057548240      2.00059912059830
  H   0.27693855761202      3.14492707739647      1.23201007092923
  C   -0.20407838380331      2.07660625389662     -1.18859787236893
  N   -0.74832791724163      2.73836112715210     -1.99175576155239
