13
Coordinates from ORCA-job run
  C   0.51881094852215     -0.02845942967928     -0.01122309139052
  H   1.73805159592460      1.69126407519968      0.08944870077071
  Cl  -1.54051181987038     -0.14058555905418     -0.15531244543872
  F   2.43760408894008     -0.30921503129239      0.11979459443100
  C   0.68090151464927      1.46284433316925      0.01145013141988
  H   0.13346094139842      1.85856777433229      0.86320526469965
  H   0.26155025851117      1.87096089289819     -0.90474775933270
  N   0.79979830710175     -0.73953937502315     -1.31173206327568
  O   1.02440334542221      0.00253207139897     -2.26094475156980
  O   0.74075944601201     -1.95429253677749     -1.35718814607328
  N   0.61804592494631     -0.75902275402225      1.30495483343825
  O   0.70742134696340     -0.03096431885237      2.28684796207322
  O   0.55569410147899     -1.97428014229729      1.32405677024797
