13
Coordinates from ORCA-job run
  C   0.68249113444162     -0.03294612371481      0.00219765164909
  H   1.69549263195615      1.86468624992555     -0.03566526861888
  Cl  -1.60437260045364     -0.12317723902345     -0.16169063717377
  Cl  2.95512861814118     -0.32236042975147      0.19391213265568
  C   0.68400754910059      1.46946795686475     -0.00896550132495
  H   0.17274544350503      1.81234383254599      0.88623797103705
  H   0.13065221620543      1.80982431181864     -0.87884767743972
  N   0.76598443741042     -0.75931609579392     -1.31721585523128
  O   0.91504139890638     -0.01985807055042     -2.28224800775250
  O   0.68944355018739     -1.97358842182920     -1.34673288077621
  N   0.55798162796046     -0.76371049496240      1.31952292713765
  O   0.54276065397362     -0.03299194436163      2.30143892608375
  O   0.48863333866537     -1.97856353116762      1.32666621975408
