19
Coordinates from ORCA-job run
  C   0.35698322807070     -0.09948172098406     -0.14784518881121
  H   1.52396409942641      1.55648566937820     -0.57836323183812
  F   -0.95650228010763     -0.39578813213210     -0.74836261052644
  H   2.16587572889303     -0.10186799221627      0.48977582895763
  C   0.52635763911709      1.42382979723916     -0.16345255302340
  N   1.26954043040184     -0.81198277770342     -1.04944274179082
  O   1.69438154110096     -0.15339162908214     -2.02762451057936
  O   1.24907579978291     -2.05404121870424     -1.02429576904799
  N   0.07486672921700     -0.77888031713099      1.20340778793784
  O   -0.86739501743986     -0.25754915360773      1.80474136600674
  O   0.68727897706686     -1.75984046662190      1.59175205503672
  C   0.51110102820548      2.10219352249621      1.20265964204835
  H   -0.48350883015241      2.10630767112737      1.64917097916527
  H   1.20738552831706      1.60501131708301      1.88055623896726
  H   0.84077808569021      3.13923687895809      1.07535257839502
  C   -0.47100917367197      2.09115629121787     -1.11197761016299
  H   -0.40540407680214      1.64829036072085     -2.10581390126970
  H   -1.49615502231651      1.99013775880546     -0.75085600388505
  H   -0.22935441479903      3.15710414115664     -1.18874235557978
