14
Coordinates from ORCA-job run
  C   0.22094558416223     -0.00894106878753     -0.05345010812696
  H   0.96630922289562      1.80542314885600     -0.80388257966766
  F   -1.14910844251820     -0.21281079622287     -0.72099720118271
  H   2.04585035721826      0.00310945944463      0.60611931565759
  C   0.31695967853301      1.50812392865593      0.02444309579305
  H   -0.69301791815431      1.87855953816337     -0.16812004154136
  N   1.02968584551789     -0.71300395276496     -1.09321324161764
  O   1.38913555620619     -0.05657438218665     -2.07368847324306
  O   1.10527600342571     -1.93851459837302     -1.00871721735546
  C   0.09807580105578     -0.76016193160373      1.17730420179811
  N   -0.19871214361807     -1.35719119782079      2.14936064628561
  N   0.73021901606772      1.98559020980229      1.34309466151131
  H   0.87927423489429      2.98736998796256      1.28126436793466
  H   1.62915720431386      1.53183165487478      1.50625257375455
