12
Coordinates from ORCA-job run
  C   0.67319089479363     -0.01271254812948      0.02085071471652
  H   1.81926791752355      1.80615397591174      0.16527297254086
  Cl  -1.65720478138921      0.11911102241939     -0.10513559210080
  Cl  2.97303654560110     -0.43817815436184      0.01803306278379
  C   0.79033680307507      1.48928002993231      0.02068799469848
  H   0.15440419183745      1.88883747600825      0.80861763751049
  H   0.42001707574227      1.85538102861646     -0.93435860093091
  N   0.62084432073108     -0.77430792772625     -1.27181007402262
  O   0.73216706666461     -0.11548272795870     -2.29519138644513
  O   0.47273318425910     -1.98382576116753     -1.19581897157242
  C   0.55730853253284     -0.78192118373642      1.22394921167046
  N   0.46400824862851     -1.34370522980794      2.25449303115127
