12
Coordinates from ORCA-job run
  C   0.68253708593065     -0.01268417219304      0.02194873851520
  H   1.80532285425399      1.82026999402757      0.21123245527836
  Cl  -1.68345016530367      0.12589384771063     -0.09967490816800
  Br  3.12021426863904     -0.46221674068336     -0.00622611986819
  C   0.78587037526387      1.49169310211722      0.02889047286902
  H   0.11630116643586      1.88505104503782      0.79138991751677
  H   0.44927084435746      1.85277063996898     -0.94089016732537
  N   0.59771527654352     -0.76959819861566     -1.27347381478785
  O   0.69187486988686     -0.10892680177019     -2.29769053424824
  O   0.44859080079945     -1.97924804680327     -1.19744879996114
  C   0.55182731643263     -0.78477137240627      1.22114932391326
  N   0.45403530676032     -1.34960329639044      2.25038343626618
