14
Coordinates from ORCA-job run
  C   0.63890620475368     -0.03628147175288     -0.05421274834259
  H   1.76098131512530      1.76339625203067     -0.20300765544668
  Br  -1.86682374330771     -0.06520322930177     -0.14035816154069
  Cl  2.97518114254959     -0.35396805635541      0.15001743717698
  C   0.71578049202449      1.49449971424379     -0.07349354120343
  H   0.41813679312284      1.78112162233659      0.94589889848460
  N   0.70895888780181     -0.87248058264629     -1.29399145578772
  O   1.00116829997824     -0.29310980551295     -2.32879835145860
  O   0.47883845038425     -2.06750159737284     -1.16328084830197
  C   0.51592319073351     -0.74658250648473      1.18625786038615
  N   0.42878293708546     -1.25432178329968      2.24566042513606
  N   -0.03279386321870      2.15202022474843     -1.12717230093716
  H   0.34151288086301      3.08255030376969     -1.25398337832646
  H   -1.01202298789580      2.20233091559734     -0.88600617983846
