17
Coordinates from ORCA-job run
  C   0.56006868266126     -0.01836329667795     -0.04323732502467
  H   1.57849589080685      1.78299720015510     -0.41268354078877
  Cl  -1.75707987476775     -0.28629154741077     -0.43262436228480
  Cl  2.82116706161648     -0.13860827881614      0.49373205024780
  C   0.56415757623672      1.51757775445200     -0.11984335467671
  N   0.84712721896938     -0.83556711222207     -1.26459518574998
  O   1.19995006581501     -0.21678172717841     -2.25768229813825
  O   0.72594960714055     -2.04850280280513     -1.16345441421194
  C   0.29970448542904     -0.75459411261007      1.16217537754164
  N   0.10610121801085     -1.28749733799583      2.19442257580440
  C   0.29629509954904      2.06004728338895      1.28420603453906
  H   -0.70854121696554      1.77839930585056      1.60895412393186
  H   1.02218627229976      1.68493469664623      2.00783195911008
  H   0.36103282998124      3.15186700136844      1.25642301230280
  N   -0.28837358741861      2.07230903539152     -1.16010818235255
  H   -0.03213367468196      3.04533154962539     -1.27839114823769
  H   -1.26110765468230      2.00728238883820     -0.89247532201228
