12
Coordinates from ORCA-job run
  C   0.53348684506712     -0.00155115656506      0.01439208527542
  H   1.85435696729213      1.63707113664297      0.18555305533222
  Cl  -1.58848132863792      0.08607493783394     -0.09063834773311
  F   2.45797640283452     -0.36490451772838     -0.01935513058685
  C   0.79296583651552      1.48018249146316      0.02632192211134
  H   0.19660109792441      1.94295354173261      0.81244062115365
  H   0.48403563235409      1.88790539258529     -0.93426234122621
  N   0.66543599728328     -0.76340533926399     -1.27009623647021
  O   0.81519890969127     -0.10162261720820     -2.28749076197519
  O   0.55951281052209     -1.97805683192294     -1.20928518028844
  C   0.62580711539225     -0.78018130238054      1.22283555251756
  N   0.62321371376124     -1.33583573518886      2.25917476188982
