14
Coordinates from ORCA-job run
  C   0.52155649124271     -0.02050681221015      0.03695219093714
  H   1.31507855034356      1.81050501545027     -0.66231590566784
  Cl  -1.80208345146132     -0.22047623104630     -0.57096670558449
  Br  2.92581738524505     -0.11348453553804      0.56031624796547
  C   0.51586229853508      1.50130577493826      0.01629219549794
  H   -0.43376244274130      1.83749232406994     -0.39082552639507
  N   0.78983775011420     -0.76041736076188     -1.23342486107527
  O   0.97822338263600     -0.06624935012761     -2.22516492833089
  O   0.81667930548572     -1.98051400187847     -1.18393890371530
  C   0.19456281811935     -0.79888931521549      1.19204976571666
  N   -0.03458521977056     -1.42150285091875      2.16559297171641
  N   0.63330236613700      1.99643922239829      1.37901856209518
  H   0.35172685775098      2.96714696226978      1.40478211737036
  H   1.59783390836351      1.92196115857017      1.67740277946970
