15
Coordinates from ORCA-job run
  C   0.43093556683088     -0.06268288177623     -0.07349619558736
  H   1.59050272458483      1.57475573526999     -0.62073617641907
  Cl  -1.62771526587889     -0.33194087595049     -0.68990874532081
  F   2.22278400362723     -0.06699026020241      0.50910762169799
  C   0.59931469077827      1.46255315209127     -0.18593287904284
  N   0.97637780551688     -0.88076879587643     -1.20464198638714
  O   1.37326918391799     -0.26001235693253     -2.18037794803895
  O   0.97078599966448     -2.09346465612783     -1.06574284303656
  C   0.20474620245778     -0.75143179475031      1.17279256543231
  N   -0.02219097700108     -1.28537293054590      2.19529810547819
  C   0.66824807928955      2.01051842134142      1.18463221555655
  N   0.66571028801523      2.58653563225219      2.20920863958646
  N   -0.33174838704251      2.17848146821877     -1.03709300491084
  H   -0.01855962999475      3.14083548027971     -1.09413462627856
  H   -1.26596028476590      2.15673466270874     -0.65051474272938
