17
Coordinates from ORCA-job run
  C   0.43699176591098     -0.03646083533867     -0.06401833302235
  H   1.53622129979271      1.66957962131067     -0.46007302567398
  Cl  -1.65775241385386     -0.36355614944239     -0.53062829246696
  F   2.28304323692048     -0.04246909519744      0.45014840873516
  C   0.51239908812227      1.49384117909453     -0.13821794191028
  N   0.94849964414988     -0.83411093899598     -1.22274777328878
  O   1.33672535097026     -0.20154346029345     -2.19387225055219
  O   0.93550362733432     -2.05186909196217     -1.11015309721046
  C   0.31802288673651     -0.75513464453517      1.18229186748458
  N   0.15802865363763     -1.28983081374306      2.21737847507889
  C   0.33472507732366      2.05326915629991      1.27165994022703
  H   -0.66192755797767      1.81766357168179      1.65718810906779
  H   1.08741258195696      1.63754030161512      1.94148029990189
  H   0.44460516266004      3.14190715480868      1.24008998377905
  N   -0.35022031209826      2.09780810732861     -1.14517544197064
  H   -0.02021574790596      3.04415321763533     -1.29508614768377
  H   -1.30706234367997      2.13375271973370     -0.81761478049498
