16
Coordinates from ORCA-job run
  C   0.61970746466704     -0.07167033647252     -0.00935004030968
  H   1.66605668092695      1.74658746170599      0.25555419352706
  Cl  -1.73723255267169     -0.12560222141013      0.10791490679398
  Cl  2.84916610268904     -0.24680860809872     -0.38379439963971
  C   0.63728494368586      1.46642505077806      0.02019226652905
  N   0.41635505304054     -0.95414843314015     -1.21986214752637
  O   0.31622939073228     -0.41155306771034     -2.30764365677674
  O   0.40567514781994     -2.15374353928059     -1.00174257552063
  C   0.69163827942309     -0.77087974405554      1.23966008650794
  N   0.79048696438619     -1.27782027192970      2.29837827357936
  C   -0.14823377759371      1.98963122112156      1.14510380202695
  N   -0.62387179557079      2.55195149455208      2.06101150443366
  C   0.25510659286007      2.18429837726349     -1.27502087571042
  H   0.96003024062259      1.93194245709342     -2.06377048930425
  H   -0.75062355915333      1.91049636393412     -1.58540610143964
  H   0.29610482413594      3.25985379564896     -1.08379474717057
