15
Coordinates from ORCA-job run
  C   0.53673845575270     -0.02619132122619     -0.00404602192768
  H   1.47174338731402      1.82623047816033     -0.46158670692556
  Cl  -1.75375153994226     -0.22253449293132     -0.40620563875436
  Cl  2.83404916033987     -0.11508219942372      0.44278011839893
  C   0.51702896261207      1.48655160934931     -0.06617719046166
  H   -0.26317424311669      1.79200580948570     -0.75987595208871
  N   0.79039036930529     -0.78958201811224     -1.26277268521899
  O   0.96177178569343     -0.11252288342035     -2.26864227680536
  O   0.80507169628964     -2.00917714063622     -1.19369284348360
  C   0.33689863071204     -0.79826306922960      1.18794741031258
  N   0.16151186082767     -1.36644024129747      2.20433186541410
  C   0.26754061691090      2.07735974443030      1.31308243431110
  H   -0.69375840771884      1.74337179047062      1.70746892949571
  H   1.05690095118029      1.78203318756404      2.00631618259967
  H   0.25361831383982      3.16894074681680      1.24978237513382
