15
Coordinates from ORCA-job run
  C   0.55579399492900     -0.02564367334655      0.00085284133330
  H   1.47519203591567      1.83953897213546     -0.45379714511514
  Cl  -1.77902260026241     -0.21098824488128     -0.39644947183660
  Br  2.99272697652932     -0.14311543204765      0.44888741791525
  C   0.52208229116432      1.48805882744336     -0.06381602176045
  H   -0.25608273705120      1.78090902586315     -0.76541267112931
  N   0.77145139017720     -0.78918849564426     -1.26570552095324
  O   0.93554107294674     -0.11128677393867     -2.27258746147778
  O   0.77109053627019     -2.00944491574009     -1.20026211001602
  C   0.33391470750610     -0.79839390562852      1.18736631820137
  N   0.15321795811349     -1.36777720412059      2.20298375046641
  C   0.25210961238797      2.08017587304760      1.31156977874867
  H   -0.71687681547815      1.74817472417070      1.68801980159829
  H   1.02829401093401      1.78390515589712      2.01971839680877
  H   0.24314756591774      3.17177606679020      1.24734209721650
