12
Coordinates from ORCA-job run
  C   0.44531314518816     -0.00045379754658      0.00516017943893
  H   1.81753911784223      1.67528170215213      0.15680679793740
  F   -1.11682931711823      0.09685052853971     -0.10135903782591
  H   2.26107688618124     -0.44848405699159      0.03763751553096
  C   0.76076234750761      1.47711514190521      0.02329494624086
  H   0.17513332452794      1.92153470070811      0.83145873224638
  H   0.41900953483710      1.88961612504752     -0.92486938727218
  N   0.67305485035826     -0.75030874544994     -1.25291540648749
  O   0.83416415383255     -0.08685756775679     -2.28292823968778
  O   0.48613900043574     -1.96807370536204     -1.22664461443372
  C   0.66461220266844     -0.77800960108521      1.19761101258502
  N   0.60013475373898     -1.31958072416054      2.24633750172753
