16
Coordinates from ORCA-job run
  C   0.76424489663662     -0.00912268650811     -0.00703819185248
  H   1.60060918536164      1.93552320897323      0.34108269116117
  F   -1.21216175296957      0.03286396242817     -0.35183320262855
  Br  3.11876028262338     -0.22178790483519     -0.03770755288296
  C   0.64387822814386      1.51166069070728      0.03322490330082
  H   -0.08144173912795      1.66061944314863      0.84399257409090
  N   0.64854986219598     -0.85595815499179     -1.24227406389377
  O   0.75046812355327     -0.31668350010671     -2.33303541336470
  O   0.48518399817178     -2.05806061722542     -1.06347263434462
  C   0.56390133809083     -0.72263730288879      1.30191105256450
  H   0.94606039094303     -1.73763066164616      1.24792093717887
  H   1.10180867618463     -0.18408498881238      2.08405465130787
  H   -0.50595999281259     -0.73190495874114      1.49937779622364
  N   0.21775378974456      2.14803887504606     -1.20822607344435
  H   -0.03837951363957      3.10124262458422     -0.97126204704669
  H   -0.63515577309990      1.65390197086811     -1.45081542636962
