14
Coordinates from ORCA-job run
  C   0.77977100896201     -0.02052642490773      0.05531809797022
  H   1.35390907134476      1.91926372815227      0.72728923041933
  F   -1.21074187583492     -0.14150915326155     -0.19767934766087
  Cl  2.94611511418028     -0.12961077068841     -0.06478769744372
  C   0.67078736733540      1.47589335509767      0.00174834557599
  H   -0.36161952567682      1.73661748368781      0.21495787232649
  H   0.94079084064714      1.82199838012836     -0.99321160335451
  N   0.62632557383613     -0.78651949552242     -1.22726401591569
  O   0.61506729574079     -0.14516373314168     -2.26968419098884
  O   0.58165815231340     -2.00747654593905     -1.15559358067807
  C   0.62363542991257     -0.76315226313408      1.35070288715224
  H   0.79639949722782     -1.82318656416516      1.17924779958932
  H   1.34931744736669     -0.39739976284097      2.07777194935384
  H   -0.39571539735524     -0.61108823346506      1.69314425365426
