17
Coordinates from ORCA-job run
  C   0.62544507352226     -0.07932762046704      0.04294018608889
  H   1.53686864477085      1.65444666531617     -0.74092037190869
  Cl  -1.69173075536364     -0.40175265269371     -0.69815862978072
  Cl  2.86462707710459     -0.11411016476501      0.46954227186661
  C   0.66546895550381      1.44720698549526     -0.11309259481252
  N   0.90542866442483     -0.85777661940572     -1.20234846150485
  O   1.08943099044800     -0.20059079527620     -2.22152574499993
  O   0.97510069536418     -2.07412171636004     -1.11055691529946
  C   0.21099551832693     -0.77157300531828      1.31360640232456
  H   0.99725503003053     -0.73466353722494      2.06390178131179
  H   -0.68256412999299     -0.29243038318730      1.70129526940976
  H   -0.01545613455678     -1.80872410836017      1.07759697405427
  N   0.76651279463243      2.03754754246090      1.22657559492240
  H   0.68865679684352      3.04387411883286      1.13579410538921
  H   1.69557369125777      1.82063718866521      1.57140975059302
  C   -0.45283449208520      2.10463013527616     -0.80238942908104
  N   -1.15046842023110      2.89081796701181     -1.32946018857331
