15
Coordinates from ORCA-job run
  C   0.54370315291696     -0.07086754461260      0.01197121811969
  H   1.85730071343751      1.56735020068359     -0.05517727006093
  Cl  -1.63678599562606      0.05509793373531     -0.07012096119038
  F   2.45967907601149     -0.35152667587061     -0.18051812018311
  C   0.77761827262461      1.42633263294304     -0.06283864581156
  H   0.34410710480574      1.85363670709029      0.84584578224978
  N   0.59395350511474     -0.88370829641026     -1.24251121339657
  O   0.71485653729902     -0.27008410034411     -2.29346966037734
  O   0.48669339633607     -2.09705793465127     -1.13437414968237
  C   0.61202131349550     -0.76302932751617      1.34678296080527
  H   1.62177140773910     -0.65807342614997      1.73282748674689
  H   -0.12345280438336     -0.34438216757151      2.03275435830003
  H   0.39084689109961     -1.81772364773577      1.19672320436479
  C   0.21114954710416      2.16840624217245     -1.18599464068545
  N   -0.17509211797506      2.90553940423760     -2.01387034919875
