16
Coordinates from ORCA-job run
  C   0.45614911776663      0.04370760678557      0.04232014399701
  H   1.98163473244894      1.50648807359841     -0.39845340277259
  F   -1.14195471908247      0.34435333052340      0.06001089793773
  H   2.13767730077420     -0.58883593078060     -0.24797440916950
  C   0.94321750397249      1.49859782685434     -0.07872985419012
  H   0.90093622611783      1.89961092283477      0.94128311639609
  N   0.48101389617922     -0.76160620789761     -1.17337149103901
  O   0.60777992252499     -0.15449577938546     -2.25980509489277
  O   0.10448554313635     -1.94442824373704     -1.11104405966050
  C   0.55456514842574     -0.67589286157261      1.36947985515050
  H   1.47341558926518     -0.41643779892959      1.89220590698889
  H   -0.31333626272576     -0.40144163920295      1.97655878743157
  H   0.54157225313377     -1.74818211519024      1.18486990255615
  N   0.17668772756092      2.38646465159859     -0.94797103383795
  H   -0.79289061428052      2.24175491144651     -0.69064084716704
  H   0.25716663478248      1.97632325305450     -1.87283841772843
