14
Coordinates from ORCA-job run
  C   0.52917837643936     -0.00043538508205      0.05535343870612
  H   1.92425121401850      1.55095705307966      0.23266949242086
  Br  -1.77054504062662      0.18552629177499     -0.06523942945071
  F   2.54315457152822     -0.38549217143860     -0.21537765957738
  C   0.86009490223781      1.46457002878005      0.03133743310693
  H   0.26422725267565      1.98620409559363      0.78170658877613
  H   0.63557045420131      1.87500600310344     -0.95043532236204
  N   0.61459148566997     -0.75774477189047     -1.23792890725223
  O   0.71568894596647     -0.10422208869591     -2.26834843594393
  O   0.50585560779582     -1.97609516915155     -1.18721277516880
  C   0.60707636151378     -0.78663826986176      1.33311754694622
  H   1.65539626440275     -0.83209172570370      1.61473263008282
  H   0.00366586626338     -0.29908821200094      2.10012947350771
  H   0.22749373791359     -1.79231567850679      1.16745592620832
