19
Coordinates from ORCA-job run
  C   0.49655236901593     -0.07026572391020     -0.08939763084641
  H   1.56077292901245      1.56525426761543     -0.87319826898394
  F   -0.90707445775175     -0.30457665032636     -0.90373490371467
  H   2.23549909741008     -0.01430675750802      0.52752348735756
  C   0.68866389460784      1.44662018854903     -0.22480983075810
  N   1.26494360999953     -0.92166821026636     -1.01651287389386
  O   1.65193824857510     -0.41312246435793     -2.07599285022061
  O   1.32275296807018     -2.13283574407962     -0.78189319707764
  C   0.00005096504990     -0.69558843922280      1.19423766214510
  H   0.76564717549112     -0.76176249768501      1.96012254745034
  H   -0.82594441698079     -0.07891567889132      1.55381338521319
  H   -0.37373632094885     -1.69015093746380      0.95562018649565
  N   0.91180420911910      2.01737921584081      1.11535498389471
  H   1.16860642185106      2.99212043980607      0.98714095334266
  H   1.74058280850972      1.52590394177746      1.45248597903883
  C   -0.48191678961409      2.19026832554156     -0.86038707050054
  H   -0.65837486503956      1.82712585358122     -1.87063959669680
  H   -1.39271522087015      2.05841223350466     -0.27627189738944
  H   -0.24261262550684      3.26147863749518     -0.90241106485604
