19
Coordinates from ORCA-job run
  C   0.25596593469514     -0.09859366213683     -0.13350402387853
  H   1.48351833435978      1.40131472090071     -0.92811080788732
  Br  -1.53330231840539     -0.52984516575686     -1.08678168854136
  H   2.66245015283084      0.04267315681498      0.52135831753012
  C   0.61435833864870      1.40201495112228     -0.26568409874896
  N   1.19465758463808     -0.96926507209808     -0.94349758785950
  O   1.54192959070748     -0.53446961472938     -2.04641764228530
  O   1.28906390079126     -2.15133960149965     -0.60367146313592
  C   0.02912753546851     -0.64551198279738      1.25768091935537
  H   0.98227441277633     -0.62993231586529      1.78137033219505
  H   -0.68733801160031     -0.00539561998451      1.77262105611937
  H   -0.34314861004410     -1.66648562544200      1.19670387453938
  N   0.95419256825960      1.91731420004691      1.06759991330176
  H   1.20785354129752      2.89466361904455      0.94273435072107
  H   1.82499978648228      1.40569989446065      1.27695645367467
  C   -0.44889395180850      2.30906975513302     -0.87234262336939
  H   -0.69175117867470      2.01352820299030     -1.89248064898877
  H   -1.36145038408345      2.31614848722446     -0.27393140942483
  H   -0.04906722633906      3.32978167257213     -0.89955322331691
