18
Coordinates from ORCA-job run
  C   0.35247205646867     -0.09756278379126      0.00090046626911
  H   1.60971670516751      1.55539613507463     -0.38325434826748
  Cl  -1.59800667375783     -0.28883532293308     -0.36105406769536
  H   2.30165202394679     -0.22161823154354     -0.03087701155875
  C   0.56468772372292      1.42274560806826     -0.09903144908417
  N   0.96766314724507     -0.81320857430638     -1.12790395865615
  O   1.05171124079788     -0.15944671190272     -2.19011093316937
  O   0.96418334595199     -2.05858459221961     -1.08594033380757
  C   0.41702366391883     -0.81273598414059      1.33795638031007
  H   1.40166781076881     -0.73991225246163      1.79293008414777
  H   -0.34181496118747     -0.40487811552639      2.00641402351224
  H   0.18656574391110     -1.85923526497916      1.14394896678313
  C   0.31346443839206      2.12400265094175      1.23749370047340
  H   -0.71663753958075      1.97276655821197      1.56611501482549
  H   0.99492272817458      1.73497131686946      1.99620358631822
  H   0.48592290904630      3.19749400373240      1.12957926582738
  C   -0.22537546954883      2.09243803358111     -1.13989496454856
  N   -0.78897889343762      2.80418352732477     -1.88632442167938
