15
Coordinates from ORCA-job run
  C   0.53071757125096     -0.04907439054068      0.06418956817287
  H   1.84664485364186      1.59161146935990     -0.07104354722303
  Cl  -1.63613310857086      0.08123459966993     -0.15380263704770
  F   2.46469662325193     -0.32049242286594     -0.05946444477483
  C   0.77105633841399      1.44839519473265      0.01688501402304
  H   0.27479905677544      1.86942735579552     -0.85577928944627
  N   0.65568929595564     -0.75469868617919     -1.25098915923709
  O   0.78971465986704     -0.05235410083400     -2.24550069126670
  O   0.58311508785141     -1.97432960680403     -1.24996239985563
  C   0.53516515984657     -0.83509518183868      1.34373449013389
  H   1.51915106100300     -0.74511278071937      1.79420341421257
  H   -0.24171774888035     -0.47651148098959      2.01701984802907
  H   0.34269669544533     -1.87858178629817      1.10182115234232
  C   0.28675295275420      2.11883905441545      1.21897680130519
  N   -0.04267849860618      2.69616276309618      2.18660188063228
