14
Coordinates from ORCA-job run
  C   0.80066114589275     -0.02015754341728      0.05595321132452
  H   1.32052984996552      1.93631413845704      0.72497202077935
  F   -1.24376192359112     -0.16093469085159     -0.19325429204368
  Br  3.10473651643238     -0.13999295159917     -0.08059363821660
  C   0.66340447749577      1.47394784317552     -0.01308658490586
  H   -0.38083423559476      1.70434804119592      0.17949664143904
  H   0.94160161775145      1.82268239418664     -1.00498785406846
  N   0.61133543696278     -0.79681202242981     -1.21577521890652
  O   0.58474531100228     -0.16345394060223     -2.26325337058145
  O   0.56716103005101     -2.01726383697104     -1.13275252068634
  C   0.62300838418615     -0.74602833127590      1.35919323056482
  H   0.78164125430143     -1.81093492316720      1.20417725677713
  H   1.34233898724454     -0.37813592824998      2.09180771401173
  H   -0.40086785210017     -0.57543824845094      1.68006340451235
