20
Coordinates from ORCA-job run
  C   0.36280402660956     -0.09534830260308     -0.03596783307225
  H   1.58260239200038      1.54167938384262     -0.51312783125612
  Cl  -1.54360817962915     -0.42290509630824     -0.60464586196681
  H   2.27626878333184     -0.18076541578896      0.09827084952119
  C   0.56280662261915      1.43259931700379     -0.14444841676638
  N   1.12880101046540     -0.83707593709112     -1.05507618254158
  O   1.29486069905297     -0.24438721324492     -2.14952981613595
  O   1.15618575993596     -2.08317619528427     -0.95634847825092
  C   0.29248187796992     -0.80031485450119      1.30873442258406
  H   1.24798502138233     -0.77110820531544      1.82909630828898
  H   -0.48055081380129     -0.33187261903083      1.91891341985223
  H   0.01893141758032     -1.83680572751014      1.12267018497526
  C   0.47909187038023      2.10217202562012      1.22349399491814
  H   -0.52383117775908      2.00951717044227      1.65242856160706
  H   1.19991013246248      1.67131360191208      1.92201957177091
  H   0.69841909912345      3.17052848626109      1.12220207181460
  C   -0.32635231865547      2.16938793113224     -1.14801716338653
  H   -0.32686572220897      1.64516473726064     -2.10133068341200
  H   -1.35472213377930      2.27399154998797     -0.79861888535417
  H   0.09275163291924      3.17266536321537     -1.29672823318971
