15
Coordinates from ORCA-job run
  C   0.82385877153364     -0.04207466240429      0.08817540184644
  H   1.69255029970200      1.95279156775153      0.10800232522422
  F   -1.13122260068811      0.03460141009233     -0.24398534348359
  Cl  2.95668314390781     -0.23280927840897      0.07737903422878
  C   0.71642348661622      1.47361969688531      0.02111930418606
  H   0.27293645101127      1.72934754296971     -0.93769063250272
  N   0.69032748537071     -0.76183009006498     -1.22154710517099
  O   0.78330343744898     -0.09415810170535     -2.24337119492992
  O   0.55757153850633     -1.97670295123895     -1.18144821224583
  C   0.58313998212426     -0.81290645370377      1.35594683801428
  H   0.86879886029077     -1.84999007236917      1.19576423434029
  H   1.19854406755033     -0.40036579266265      2.15608564654730
  H   -0.47198700058937     -0.74544872632169      1.60121598212565
  C   -0.13790824334172      1.98566598084901      1.09061529100618
  N   -0.72334967944315      2.45967993033193      1.99062843081383
