19
Coordinates from ORCA-job run
  C   0.44734875797605     -0.04987890367356     -0.01642710226068
  H   1.53234109909421      1.63462353690441     -0.55238803604278
  Cl  -1.65828600375581     -0.39694408914866     -0.54623373102296
  F   2.40135569797742      0.01391399190463      0.33531368623033
  C   0.53602335981319      1.47987930108355     -0.14865194426438
  N   0.95342399252009     -0.83198555160523     -1.19161116575407
  O   1.26212513898238     -0.20095306238776     -2.19315277491201
  O   1.00991235064203     -2.05166846212278     -1.08240556704644
  C   0.30188194802648     -0.80226657502827      1.28753120169469
  H   1.24391376169232     -0.76396286350314      1.82396913849533
  H   -0.50914079478559     -0.37567024208201      1.87591551990296
  H   0.04782954216951     -1.83440396790857      1.06115556022428
  C   0.48805587397587      2.09653378717172      1.24913208372948
  H   -0.49946680629901      1.96817266312143      1.70426969051672
  H   1.25232493352850      1.65111162537237      1.88538701326265
  H   0.68215254737393      3.17168568955595      1.16942142368361
  N   -0.38961725653763      2.10327113826522     -1.09427758976941
  H   -0.13236845584047      3.08319880407907     -1.15204727033183
  H   -1.33921968655346      2.03939318000161     -0.74988013633550
