15
Coordinates from ORCA-job run
  C   0.75686389506267     -0.06172821031604      0.00742520346875
  H   1.44812841058753      1.94204211632122      0.39326581968394
  F   -1.19669355494141     -0.10143229747313     -0.25525919623481
  Cl  2.91024396952891     -0.08931587993492     -0.08997063498389
  C   0.56040325312369      1.44447644599125     -0.00272165076823
  H   -0.28386763365456      1.62514152665814      0.66231599665681
  N   0.63460770990701     -0.89929596250369     -1.22698007729542
  O   0.69014239159278     -0.33178902151130     -2.30696986448481
  O   0.54014109083510     -2.10823033109544     -1.06065426273832
  C   0.63375462532990     -0.76282255394738      1.33210711467529
  H   1.09637543005821     -1.74438530346658      1.27283511541802
  H   1.15882706006085     -0.17993007927558      2.09135189253833
  H   -0.42259831588055     -0.85661330818749      1.56676233322858
  C   0.21740679655478      2.08343310144573     -1.26973315394944
  N   -0.06536512816486      2.76035975729519     -2.18574463521480
