14
Coordinates from ORCA-job run
  C   0.55219040305653     -0.00318761961884      0.05447572703720
  H   1.92397895738083      1.57726398188696      0.24318845869052
  Cl  -1.61331565466820      0.18898020187720     -0.05055941804523
  F   2.50298384468779     -0.39492206233825     -0.20815706323837
  C   0.86529305685774      1.46481142041848      0.02895310451837
  H   0.25036073508097      1.98178906081354      0.76661872818035
  H   0.64320573200817      1.86516923506942     -0.95742553776424
  N   0.59173681153567     -0.75757012881138     -1.24268842004831
  O   0.69017978301741     -0.10400355665909     -2.27296568635353
  O   0.46623506126518     -1.97402427483606     -1.19385266087015
  C   0.60123689373918     -0.78690564040461      1.33435521950443
  H   1.63736988788497     -0.81946577824656      1.65770316028850
  H   -0.03717822615696     -0.31300683944718      2.08075477648073
  H   0.24142271431070     -1.79678799970366      1.15155961161974
