17
Coordinates from ORCA-job run
  C   0.53538918629871     -0.06962357402075      0.01434435735725
  H   1.50727146549344      1.72779788097807      0.46248413897252
  Cl  -1.83762769054133     -0.16199722459184      0.21968975905306
  Cl  2.81749948357809     -0.19154118880468     -0.63663568856705
  C   0.55566131761723      1.44586673326669      0.00734917195844
  H   -0.23723514685008      1.76031487064297      0.68786252028946
  N   0.30699551254898     -0.94095439916599     -1.19474385806870
  O   0.10145738275107     -0.39225126599090     -2.26792377332951
  O   0.34850438049386     -2.15109739605755     -1.01849533776937
  C   0.72123307520420     -0.76126937180862      1.33792142011820
  H   1.76605362570916     -0.72204249404567      1.63991346427788
  H   0.09986900965225     -0.26149939353372      2.08005058596731
  H   0.40457534010079     -1.79765615811827      1.26000496740576
  C   0.39906516317093      2.19392463213951     -1.30702927296315
  H   1.18277267339973      1.92039812233046     -2.01096042900855
  H   -0.56908054872636      1.99196320952202     -1.76147016929067
  H   0.47309577009930      3.26685701725829     -1.09749185640291
