16
Coordinates from ORCA-job run
  C   0.51910963170603     -0.09217295187567      0.02806546253594
  H   1.79200596765461      1.54737029569051     -0.21380333504442
  Br  -1.82336020024829     -0.06358009119636     -0.22087636182367
  F   2.44572661916707     -0.23498731237138     -0.01341841708239
  C   0.71157346766690      1.43002044532579     -0.07792674958612
  N   0.69378757765357     -0.86457131640093     -1.24097878113415
  O   0.86753131890987     -0.20933690105800     -2.26034564404531
  O   0.65018516592418     -2.08320669035006     -1.17059160304515
  C   0.51312270523100     -0.80444112943749      1.35551723820393
  H   1.49053973953220     -0.68747686586879      1.81529201263768
  H   -0.27452907008478     -0.42137006837020      2.00039331710225
  H   0.32654033712843     -1.85944089328374      1.16199360359444
  C   0.34621561952345      2.06240289193544      1.19296715191386
  N   0.12512709961330      2.60046255865825      2.21323802186197
  C   0.04146570618963      2.14012133080778     -1.17163522443137
  N   -0.38270168556716      2.85139669779487     -2.00493069165751
