17
Coordinates from ORCA-job run
  C   0.49649064856810     -0.07978117781071      0.05743648239896
  H   1.94165212883542      1.39635109802853     -0.03238688060903
  Br  -1.80977315506494      0.16165950865393     -0.08433632055882
  F   2.47113083476160     -0.46329014665278     -0.13967801036904
  C   0.85258787817343      1.40586163903687      0.03105756516835
  N   0.57174035258867     -0.83824372575798     -1.23113964123091
  O   0.75805469120208     -0.18379339066081     -2.24873231077525
  O   0.40513417751644     -2.04879071369377     -1.18723294795978
  C   0.54549660796068     -0.84023876943857      1.35331929409264
  H   1.55438363774718     -0.75513799912455      1.74449209721900
  H   -0.17841488836234     -0.44732652788588      2.06211463706193
  H   0.32246007939853     -1.88397288749547      1.13909398588629
  N   0.46045933945561      2.01882936123185      1.30102524516177
  H   -0.55191382406102      2.09844223404825      1.30950733880147
  H   0.84551963869427      2.95623604636627      1.32503138608646
  C   0.34108409836463      2.17957794980217     -1.11550027162216
  N   0.00221775422165      2.98770750135263     -1.89986164875190
