19
Coordinates from ORCA-job run
  C   0.49344909826888      0.02235326886327      0.04971107206593
  H   1.61958645928118      1.71067493572796     -0.49599907139257
  F   -1.23533572749956     -0.07761546336244     -0.36570512722440
  F   2.28988438620008     -0.13801569664666      0.27472824477287
  C   0.62898706430945      1.55810683681004     -0.07444694022189
  N   0.73854440553090     -0.75286751067121     -1.20903181924439
  O   0.96299891229662     -0.10492695313615     -2.22948284957662
  O   0.69660974638612     -1.97521120728453     -1.16981745669338
  C   0.23649350443228     -0.73521335051544      1.32779948508597
  H   1.07824621848292     -0.62990115483015      2.00592360697948
  H   -0.68727959924897     -0.38353848347576      1.78297544595253
  H   0.11469526895412     -1.78595954751954      1.07105836794221
  C   0.59560466546468      2.17939578186861      1.31415071772705
  H   -0.38668480544328      2.04231070612000      1.77701223758125
  H   1.35995238864008      1.73693535409889      1.95378665093491
  H   0.77524948446095      3.25255635978484      1.21732209083202
  N   -0.32601400390017      2.25155234607496     -0.93724155622880
  H   -1.21932363190625      1.80961142157255     -0.74641037343195
  H   -0.10507383471002      1.95380235652073     -1.88131272586021
