19
Coordinates from ORCA-job run
  C   0.12357454697066      0.00400960971703      0.04141094110276
  H   1.62974998751307      1.37539249125870     -0.14985480576946
  Br  -1.86257101961358     -0.11339184250744     -0.23625140606236
  H   2.81895395399738     -0.19439586384768     -0.09459550221639
  C   0.54814681271301      1.49012181797563      0.00921920140336
  N   0.68853662703848     -0.76077419801284     -1.15564870998958
  O   0.79738304017431     -0.13625059195332     -2.21926636905029
  O   0.68446249152385     -1.99210486255796     -1.07840758670753
  C   0.41807645721256     -0.75418278332711      1.31355584546483
  H   1.50633829436393     -0.73423835334073      1.41987294994079
  H   -0.08587190885299     -0.28188139599949      2.15680707417885
  H   0.07707206134943     -1.78374001353770      1.21688119272378
  C   0.31310859201060      2.17159548480663      1.34967755201965
  H   -0.73750792617025      2.11620480101503      1.65819926380833
  H   0.93587986618814      1.74138295679368      2.13523834876654
  H   0.57807037210112      3.22414430557563      1.23102589100522
  N   -0.00068797425111      2.33094916610894     -1.04687327783390
  H   -1.01145520871101      2.35434125555918     -0.95856695924077
  H   0.20933093444239      1.87686801627378     -1.92740364354388
