15
Coordinates from ORCA-job run
  C   0.70229918476886     -0.04711776847627      0.08288416009918
  H   1.74499250568968      1.80469836048457      0.31435823792058
  F   -1.05831144993741     -0.02048412181520     -0.17464965409244
  F   2.45848501493150     -0.17292175669087      0.00566266479702
  C   0.73416940947844      1.46786927122434      0.08894940341563
  H   0.46352291266537      1.80164870383733     -0.91225629903236
  N   0.72963745474297     -0.73746853676242     -1.25293135387357
  O   0.81568965786840     -0.03644908742356     -2.25410070469680
  O   0.67585658842442     -1.95976189375780     -1.26222949898347
  C   0.61991353228617     -0.84786876495812      1.34967705515594
  H   0.75522989028204     -1.89728973715868      1.09485637359227
  H   1.42713566539579     -0.54351244571223      2.01424108370704
  H   -0.35110734696307     -0.70567795141409      1.81735165839421
  C   -0.19228790058447      2.04546115307031      1.06091601587363
  N   -0.84555511904869      2.56829457555267      1.88416085772315
