19
Coordinates from ORCA-job run
  C   0.36043203548470      0.01470765095171      0.03101274986196
  H   1.62608044071432      1.65532065222641     -0.48176674904783
  F   -1.22821635593765     -0.01455821707559     -0.24987970013792
  H   2.18063658875379     -0.20104047150399      0.07027549291872
  C   0.62316089860723      1.54102708954182     -0.07878931607912
  N   0.80203383361550     -0.74040629617803     -1.13808544500270
  O   0.95290302763237     -0.09648221015953     -2.20212363926862
  O   0.72308944611900     -1.98230885517063     -1.11651519580765
  C   0.27340262109848     -0.75152587193270      1.33805052874214
  H   1.21482697222063     -0.78621259940627      1.87746037806653
  H   -0.50051783531202     -0.29140577978779      1.95505564688593
  H   -0.03991217956872     -1.76484805307118      1.08999937331157
  C   0.57021524469335      2.18711259473255      1.29688206559875
  H   -0.42842499971195      2.08825388906620      1.73434869504091
  H   1.29777817913851      1.73563868408380      1.97532916842128
  H   0.78755542184855      3.25232809586219      1.19027231168729
  N   -0.27135415481619      2.26608591406579     -0.98387986205119
  H   -1.21224059040132      1.97070030120171     -0.74675364709083
  H   -0.10085859417857      1.85166348255352     -1.89587285604919
