18
Coordinates from ORCA-job run
  C   0.72150887032153     -0.06592527927187      0.01838866493633
  H   1.58901480562091      1.84261238852760      0.35414635920960
  F   -1.24976447284886     -0.02937121446240     -0.08438264368011
  Cl  2.83223612556237     -0.18229561858627     -0.34277652021982
  C   0.61407035070855      1.46451364283506      0.03048049374189
  N   0.42422902465103     -0.92454632370538     -1.18196499362247
  O   0.39346385902529     -0.40085519933964     -2.28602597560697
  O   0.29172370374149     -2.12253365189946     -0.97199916181086
  C   0.70979764394665     -0.76621736047593      1.34939600233387
  H   1.10608432903574     -1.77219115561135      1.24042458813258
  H   1.34209427777191     -0.21468881630217      2.04752098586869
  H   -0.31705865877162     -0.80039237961728      1.70336935172971
  C   -0.32440797747980      1.88711702019988      1.08127494840857
  N   -0.94187061468560      2.37689983369438      1.95274318403599
  C   0.25210703724233      2.16119438458456     -1.27979675153934
  H   1.00940258378776      1.96297660371971     -2.03523829382035
  H   -0.71116664403223      1.79392557192709     -1.62151059653609
  H   0.19800575640256      3.23824755378344     -1.09424964156121
