15
Coordinates from ORCA-job run
  C   0.54495724107897     -0.09662555665840     -0.13850745723645
  H   1.50177709198828      1.38457053696708     -1.31402654028828
  F   -0.95089622224499     -0.06839976637636     -0.69630986990372
  H   2.36190021224206     -0.32048542384893      0.15419348204304
  C   0.95075015849215      1.35093893918118     -0.37412051771201
  H   1.62010099965287      1.68185884642065      0.41738411455085
  N   1.02582809354273     -1.08208842231299     -1.12407886166860
  O   1.32663955997429     -0.66970686026839     -2.25247995905823
  O   0.90011399578441     -2.28012887148175     -0.84359017842512
  C   0.22092023411991     -0.56519894204286      1.25913624286184
  H   1.08513998060452     -0.54241537710512      1.91535938762255
  H   -0.57618476923533      0.07632490871612      1.64557343288580
  H   -0.15949933055264     -1.58295037584505      1.18880764805861
  C   -0.18118309862179      2.29244014072321     -0.44563816491605
  N   -0.99199414682547      3.14177622393161     -0.46367275881426
