15
Coordinates from ORCA-job run
  C   0.41382245344783     -0.07167893534286      0.00388532148371
  H   1.85060224896190      1.50413516232745     -0.13915800792969
  Cl  -1.58266487580928      0.00652667587256     -0.12142537967952
  H   2.28030692344618     -0.48847900882039     -0.29418224294236
  C   0.76545366085626      1.40934698191984     -0.08066777343208
  H   0.42647798072162      1.86398212877779      0.85585818557268
  N   0.76542621623094     -0.86555295573395     -1.17821076086951
  O   0.80895307000239     -0.23548309832502     -2.25531020777728
  O   0.57988007453326     -2.09611813580036     -1.10890810011252
  C   0.59069099258120     -0.73421317272461      1.35449188434673
  H   1.59966530655396     -0.59953589970127      1.73783592516894
  H   -0.13509931582637     -0.31193127326812      2.05341439665314
  H   0.38819501639340     -1.79633208718361      1.22647237101228
  C   0.17327264455974      2.18246662469082     -1.17284550050333
  N   -0.24661239665306      2.95277699331174     -1.95322011099120
