16
Coordinates from ORCA-job run
  C   0.38095640756870     -0.02613659856952      0.03847547230235
  H   0.83730784287558      1.84065647801777     -0.82099012273354
  F   -1.10505478866199     -0.26988353315939     -0.61198884847128
  H   2.19516568815787      0.15199511638257      0.37397695800976
  C   0.35205391678614      1.48642803028084      0.09271414643371
  H   -0.70269751220787      1.77240455389867      0.06759289548925
  N   1.06017998001592     -0.69029246947220     -1.09800526154679
  O   1.25127299723605     -0.03474110071894     -2.12621393224780
  O   1.24587554439655     -1.90841431827101     -1.02353635666889
  C   0.14869400120646     -0.83456555521402      1.29001858055061
  H   1.00472348894378     -0.83257323639076      1.95604026375522
  H   -0.71237717141802     -0.39371919187144      1.79771137840446
  H   -0.09543836193235     -1.85393533897275      0.99475133441191
  N   0.92859972328345      2.01567447486540      1.33657823473302
  H   1.00386014536359      3.02380174756708      1.23805184344092
  H   1.87251809838612      1.62562094162771      1.34296341413708
