16
Coordinates from ORCA-job run
  C   0.62894358603774     -0.03553638572151      0.06295166098975
  H   1.62107154918079      1.81958916565583     -0.27159998237854
  F   -1.12183775076528     -0.13370491567349     -0.24490221154920
  F   2.40665961239751     -0.13230486327434      0.19839284331357
  C   0.61734164619570      1.47790416290965     -0.02849934637024
  H   -0.05328272696036      1.75617747157058     -0.83849733532960
  N   0.80222184390716     -0.78530701705385     -1.24126726036269
  O   0.94789406165818     -0.12899729617021     -2.26569496459314
  O   0.78963522186117     -2.01007778030349     -1.19122480902395
  N   0.48350759798442     -0.76635112371157      1.26601015444351
  H   1.31991469851237     -1.31925900607048      1.37452189964702
  H   -0.33742961908024     -1.34352016658645      1.16551854315967
  C   0.13668366230308      2.08398027257097      1.28055371574402
  H   -0.85467246999727      1.69724227549748      1.51528309641307
  H   0.80983815474461      1.81784167231433      2.09659356394461
  H   0.08749093202042      3.17621353404653      1.20234043195216
