17
Coordinates from ORCA-job run
  C   0.68749500858161      0.08597088474166      0.02533027883863
  H   1.84495957296236      1.86474673479356     -0.04412916106517
  F   -1.04349682017208      0.08917970206542      0.03943359903226
  F   2.48930787511084     -0.11835023682910     -0.23551315995677
  C   0.78405518884113      1.63045149720869     -0.06347396548579
  N   0.60691555508713     -0.85635761226523     -1.16676395923249
  O   0.56799269284313     -0.39162408326820     -2.29540638409340
  O   0.55833656292530     -2.05386596878589     -0.90149998009723
  N   0.79963707118275     -0.51074816079699      1.30750803867032
  H   1.64120119873785     -1.06776261833270      1.27540744266681
  H   -0.01292175440383     -1.09709432955594      1.43494375928961
  N   0.17590943536170      2.24230119766252      1.12223911045595
  H   0.65778753974985      1.85791634851705      1.92934481474840
  H   -0.75939383927649      1.84668250375385      1.16181951535495
  N   0.18424810821307      2.18116706512990     -1.26967476176712
  H   -0.10401142033352      3.11894191682016     -1.01058483858599
  H   -0.65415197541079      1.64628515914120     -1.45750034877296
