15
Coordinates from ORCA-job run
  C   0.39442024496717      0.02873840163973     -0.00638234183844
  H   0.93816378820467      1.87253246198101     -0.91754038064784
  F   -1.06809891523892     -0.29430651749314     -0.61826158372610
  H   2.16383843717064      0.24270169725978      0.41400729340183
  C   0.34770303807912      1.55399824232334     -0.06047755083965
  H   -0.69758527375754      1.82387516609993     -0.23010357611703
  N   1.08084475179265     -0.72440691323316     -1.10628757224113
  O   1.31860419990142     -0.13487822595248     -2.16009164932815
  O   1.24491261629270     -1.93512089734334     -0.93881598752337
  N   0.18195706687926     -0.63944442967232      1.23790746184077
  H   1.07622765648754     -0.95465529081209      1.57798061684869
  H   -0.41123475016397     -1.43543308075661      1.03780284085031
  N   0.80335513431668      2.24588674401401      1.13851665280405
  H   1.74313020231695      1.87645245982165      1.28474432607591
  H   0.25521180275162      1.86406018212370      1.90454145044016
