18
Coordinates from ORCA-job run
  C   0.51039610499904      0.03128253458190      0.06107089957526
  H   1.63139187440991      1.75640683011813     -0.42419122492933
  F   -1.21336157429545     -0.06385115907603     -0.34044040138209
  F   2.28395716034296     -0.10162590609388      0.33172288449532
  C   0.61939981878590      1.57074666955040     -0.07254532896539
  N   0.76717639004807     -0.77068051904606     -1.19945738442410
  O   1.01905146482434     -0.15412131632096     -2.23118877263337
  O   0.70654474658423     -1.99093875621314     -1.11691335876804
  N   0.27383455080330     -0.66031814930891      1.27322999161229
  H   1.09531672798759     -1.21290469753128      1.46414278026673
  H   -0.54376121835560     -1.23510249609623      1.14131840029751
  C   0.45893101610491      2.17056633979330      1.31406554747337
  H   -0.54001345650007      1.95420872207894      1.70076065195434
  H   1.18955057450219      1.74257166355215      1.99940389499738
  H   0.59043157542447      3.25340228305576      1.24395533550734
  N   -0.28945416071286      2.23617743760137     -1.00467563035696
  H   -1.19569824587548      1.81407295847925     -0.83690386951543
  H   -0.02729334907746      1.91183756087532     -1.92893441520486
