15
Coordinates from ORCA-job run
  C   0.39061461555533     -0.02906997917558      0.21124835985226
  H   -0.56126662365698      1.78999082595526     -0.37677661821117
  F   -0.79032346523902     -0.17179594041350     -1.14565922854055
  F   1.71393181983891     -0.04345890636103      1.37391790789317
  C   0.08879304113226      1.46150083192135      0.42887568771715
  H   -0.48139154155551      1.46492186171555      1.36117507135421
  N   1.40438420648906     -0.42827375123139     -0.83969127391595
  O   1.90934552613450      0.45745165595367     -1.52356942817455
  O   1.66526741937098     -1.62014094146477     -0.94663961561823
  N   -0.29688218991539     -1.04236782603084      0.92340403658682
  H   0.39335820873935     -1.58510106342557      1.41976805327573
  H   -0.78804743796289     -1.59823812155678      0.24062257156401
  N   1.20194562475547      2.39446624241564      0.55985815395906
  H   1.68077858284163      2.39707748050341     -0.33229019632863
  H   1.84094221347231      1.94303763119456      1.20329651858666
