17
Coordinates from ORCA-job run
  C   0.51875888027835     -0.00200957299094     -0.02738348193674
  H   1.49435337408207      1.58699517934622     -1.06020918332699
  Br  -1.69447124690327     -0.44402599708776     -0.90852943306364
  F   2.34582540613387      0.02357439943547      0.46134775611039
  C   0.72392090125277      1.51030273929476     -0.30151753076060
  N   1.04978115174542     -0.97416285977693     -1.07075735356249
  O   1.38529821509720     -0.51060077252833     -2.15100453980805
  O   1.11539306835780     -2.14771921727356     -0.73638003714735
  N   0.18798473066928     -0.45351106117818      1.26348851291240
  H   1.03188274181660     -0.85736376596518      1.64783855505380
  H   -0.55877447625865     -1.12932617640259      1.22146862866860
  N   1.08313316713364      2.25492052429122      0.87407197887425
  H   1.92319333626836      1.79246716054149      1.20240811454660
  H   0.35813774917466      2.08702805398991      1.56404390162805
  N   -0.46085021691648      2.23409352901281     -0.88874848061528
  O   -1.31862837159018      2.63746421723856     -0.11132422795065
  O   -0.45117841034140      2.42511362005302     -2.10216317962229
