19
Coordinates from ORCA-job run
  C   0.44927470482138     -0.07262889021057     -0.00498909229522
  H   1.61421369945709      1.57079295806996     -0.46478047774761
  Br  -1.78211490664858     -0.47773512970495     -0.75955206980445
  F   2.38386669962966     -0.08722194240400      0.50317780703492
  C   0.57984379206349      1.44583160364982     -0.15164727178283
  N   1.01085281751597     -0.89613101842543     -1.15295657467831
  O   1.34071120191924     -0.29506209417738     -2.16888734390166
  O   1.08785023724880     -2.10555090196745     -0.98680856828885
  N   0.22004104822167     -0.72194087740819      1.22654561820356
  H   1.15192690346000     -0.96850807081417      1.54484179165835
  H   -0.34017967700160     -1.54755131193384      1.07524690646106
  C   0.42426850355838      2.07568572502207      1.22692046391125
  H   -0.57668386904607      1.89488003371725      1.62592639114996
  H   1.15740196486878      1.64983995963181      1.90941016809813
  H   0.58688783928587      3.15674993291343      1.15260247101915
  C   -0.28981731012037      2.17201344490794     -1.17707632938022
  H   -0.27309663921705      1.66962719853145     -2.14244310635448
  H   -1.32503152377385      2.25943832295806     -0.84781331748735
  H   0.12356451375719      3.18041105764423     -1.30432746581539
