16
Coordinates from ORCA-job run
  C   0.50990086287284     -0.09541313290582     -0.39208095929565
  H   0.63631964362428      1.26157359777602     -2.05170660551959
  Cl  -1.03802520523910     -0.66567442349057     -1.85031824506211
  F   1.97662068524593      0.18051448820309      0.88918131431187
  C   0.82841429009054      1.26585904255005     -0.98016136667055
  H   1.88860090119290      1.43758611537712     -0.82181023136951
  N   1.41774685948651     -1.22358195242077     -0.83974309570740
  O   2.21635084205134     -0.98238936300024     -1.73571346914452
  O   1.27685209451194     -2.30538111284192     -0.28396699134894
  N   -0.31584186721005     -0.30390615748546      0.73127106577593
  H   0.33495402563178     -0.42593625007322      1.49819586244099
  H   -0.87913273599930     -1.12919857715378      0.59171583734546
  C   0.00686207644126      2.34043187458308     -0.28889077832611
  H   -1.06119136504062      2.14976953016838     -0.40379510185946
  H   0.24252236480990      2.34763480756704      0.77501035140932
  H   0.24035652752981      3.32298151314697     -0.71291758697975
