16
Coordinates from ORCA-job run
  C   0.57141250101388     -0.04121721485081      0.04946872960859
  H   1.45717410850681      1.83208263733903     -0.47793630642254
  Cl  -1.75194384301262     -0.24974912121218     -0.46738380087339
  Cl  2.91470280758632     -0.03151107423028      0.39544012091241
  C   0.52238791369994      1.47213023724135     -0.05604438143504
  H   -0.27084277183704      1.75437428603590     -0.74371760240736
  N   0.82725892882555     -0.78829270242762     -1.24698869985338
  O   0.98367602157008     -0.11294265181193     -2.25620342164395
  O   0.86553567017771     -2.01015661509145     -1.18333542169489
  N   0.36188835267031     -0.78018121444134      1.22785620585377
  H   1.22407659422223     -1.21965284770923      1.51427233711327
  H   -0.35421309018744     -1.47291815460289      1.06704033788826
  C   0.27818323404208      2.08816219183593      1.31084810018001
  H   -0.67462883923305      1.74840056786854      1.71708363627648
  H   1.06992140406277      1.80607947903934      2.00546962046851
  H   0.25939100789246      3.17928219701765      1.22461054602924
