15
Coordinates from ORCA-job run
  C   0.75852761352421     -0.09751769498433      0.12712034447572
  H   1.85804711306231      1.52604824012755      0.90498492029242
  F   -1.01628260776466      0.05132420071519      0.18814295261210
  F   2.42653389962552     -0.28106685360779     -0.22082302793857
  C   0.97450648710262      1.39083508986660      0.28903517965688
  H   1.08616386413493      1.84493223138571     -0.68927902313122
  N   0.49833087790914     -0.62539965345065     -1.28066792025528
  O   0.46054174054107      0.17167432606057     -2.20797845435666
  O   0.36163223633436     -1.83784413468622     -1.38693854077505
  N   0.78319775599564     -0.98060358624447      1.22089284700265
  H   1.47983878504507     -1.68604113731468      1.03390435803863
  H   -0.13995278579194     -1.37672354299829      1.30859673405996
  N   -0.12178058736737      2.12262145756654      0.98215042926706
  O   -0.78205084084332      2.92510285501352      0.32430054378140
  O   -0.24149355150760      1.94097820255079      2.19029865726993
