16
Coordinates from ORCA-job run
  C   0.51892326026486     -0.00368148290510      0.00140762524579
  H   1.53276086202995      1.66080622821090     -0.79372389048545
  Br  -1.73495486116093     -0.44445553935243     -0.67614897203689
  F   2.37227716472517      0.12298467032332      0.43392353959219
  C   0.61443068843066      1.53034395072102     -0.22432734232515
  N   1.03242446693520     -0.86677734841117     -1.13035812121310
  O   1.25865312991218     -0.30344305144499     -2.19402096939055
  O   1.19146085564241     -2.05606130175566     -0.89561817568715
  N   0.31153776398019     -0.55773964748047      1.28080542359047
  H   1.21338043709476     -0.89606755995701      1.58916415090812
  H   -0.37107573966443     -1.29799305708236      1.23965132701161
  N   0.77434579282596      2.23901662355510      1.03548937073876
  H   1.60885786748561      1.82166550028558      1.43555784154400
  H   0.00390602808410      1.96314539323826      1.63662284624373
  C   -0.43862357058863      2.18995409478292     -1.00930970488545
  N   -1.15418414599704      2.88007252727205     -1.63550494885093
