18
Coordinates from ORCA-job run
  C   0.44874621656433     -0.09264628242880     -0.04939799286887
  H   1.63092495118771      1.63385183845430     -0.52264464611561
  F   -1.02260034442467     -0.28592586893682     -0.60048469106960
  H   2.20718158522481     -0.09749521386808      0.36304135441602
  C   0.61206282195187      1.43411876099459     -0.21262555438996
  N   1.14621039242698     -0.85298521057157     -1.10125385078003
  O   1.45662063944920     -0.24339340589876     -2.14036223093071
  O   1.16376629573654     -2.08690266422951     -0.99211884932448
  N   0.22002913764883     -0.69771521007746      1.21862725348390
  H   1.07808395713188     -1.12580785649508      1.52666011033602
  H   -0.50175207611859     -1.39522493016451      1.08388895549825
  N   0.49403788636699      2.05052597994643      1.14814604799552
  O   1.53223028755356      2.38758666012851      1.71764161496561
  O   -0.63527982760649      2.20606480495036      1.60845868261005
  C   -0.37728446360028      2.12193916258571     -1.13706858618625
  H   -0.28280177207429      1.67336810563301     -2.12448586947669
  H   -1.39495526719458      2.00048612748236     -0.78006775326831
  H   -0.12966042022381      3.18752520249531     -1.19930399489486
