17
Coordinates from ORCA-job run
  C   0.53886249756304     -0.00347703106232     -0.02465388975435
  H   1.49047827742193      1.59900057249424     -1.06157070096070
  Cl  -1.51479051011971     -0.39197424088615     -0.90197382085388
  F   2.31759274552712      0.02865830877987      0.48803083767480
  C   0.72069474920596      1.50926255225267     -0.30340842999771
  N   1.07337363263024     -0.97732330068414     -1.06328405047765
  O   1.43028724243515     -0.51620542793820     -2.13724782823400
  O   1.12283297992355     -2.15204308230404     -0.73011870750771
  N   0.17073811960985     -0.45605596890973      1.25511588794044
  H   0.98600054113043     -0.90125450858184      1.65249854097011
  H   -0.60625953048317     -1.09479690008332      1.19203533237116
  N   1.06100937233001      2.26671795150088      0.87013403940792
  H   1.89929213824837      1.81538558601851      1.21658692743759
  H   0.32728391137263      2.09931506872922      1.55082312875779
  N   -0.47631231526129      2.20819702255967     -0.89588471632212
  O   -1.34334665465112      2.59772471439781     -0.12213932869573
  O   -0.46397719688297      2.40210868371686     -2.10829322175594
