16
Coordinates from ORCA-job run
  C   0.38148912242724     -0.05672119613004     -0.00459649559034
  H   1.32156639956040      1.77192962131704     -0.58157764837519
  F   -1.12818408542678     -0.30090154328340     -0.52480597900951
  H   2.17992658548450      0.05638634421164      0.39808266248054
  C   0.41165573707397      1.46184888005421     -0.07628580752184
  H   -0.44199034665280      1.77786177083007     -0.68530976702579
  N   1.01682539570383     -0.76365870782017     -1.15229894595397
  O   1.24607653114644     -0.11684697715626     -2.17885652727800
  O   1.11168939207847     -1.99364762675933     -1.07699119219228
  N   0.20944332511508     -0.78369080706005      1.21364711688522
  H   1.10858760970827     -1.14487003472268      1.48742796611779
  H   -0.42497488281461     -1.54423511131966      1.00149311419440
  C   0.33355581354853      2.08803288869988      1.30592844069625
  H   -0.58017208173462      1.78549941132127      1.81998859168292
  H   1.18489455043139      1.75551545841348      1.90315001430847
  H   0.35359093435066      3.18138762940400      1.23148445658133
