17
Coordinates from ORCA-job run
  C   0.61348939422026     -0.02595280265944     -0.02740895147351
  H   1.60224500864426      1.85434177034511     -0.39974191312300
  F   -1.07143462813176     -0.22378509749976     -0.40792809718958
  F   2.37579613520461      0.00289617596802      0.21178612729378
  C   0.59619988913977      1.51357785571687     -0.18233974630135
  N   0.92952971908937     -0.83358895195769     -1.27022461691406
  O   1.22989644876736     -0.23162084582672     -2.29077016953532
  O   0.87074893187569     -2.05228329255282     -1.15391112074790
  N   0.44048838078077     -0.64888371115208      1.22373753307946
  H   1.30366706810777     -1.11180652764017      1.45964866873708
  H   -0.34001012698754     -1.28227330924770      1.15591788794829
  N   0.34944601862231      2.03057820559114      1.25072636316551
  O   1.33042859226158      2.24663062529011      1.95626300460038
  O   -0.81654497502706      2.23055871819393      1.58490971843963
  N   -0.34633095175491      2.03817373151236     -1.09854709671250
  H   -0.38621621534822      3.04523293471228     -1.02268889001489
  H   -1.24321868946429      1.61436452120657     -0.91174870125206
