15
Coordinates from ORCA-job run
  C   0.72085781761999     -0.05844319209426     -0.08718354547386
  H   1.52007966259567      1.36602635502504     -1.45754564109810
  F   -0.89498784850335     -0.07374350642414     -0.83127871662230
  F   2.36072392837611     -0.20747868311124      0.39751414319155
  C   0.99266838008882      1.36812301971807     -0.51008733608706
  H   1.57136434874061      1.83887648811450      0.27842145441121
  N   1.01670599489870     -1.16348771641436     -1.09774135136075
  O   1.44151012250174     -0.85082265795465     -2.20158913211400
  O   0.82009176642825     -2.31082877540088     -0.71710947480827
  N   0.20990386894254     -0.37957619455985      1.18228812906580
  H   0.85138950990874     -1.02253472613740      1.62142904997572
  H   -0.70135628503075     -0.78913159919338      1.04615563674255
  N   -0.21684476409101      2.21772315457078     -0.69237883325291
  O   -0.82693472342680      2.55069620539509      0.31947947259475
  O   -0.48135177904926      2.60366182846666     -1.82990385516435
