14
Coordinates from ORCA-job run
  C   0.67015369087059     -0.07097826635920      0.00748263031394
  H   1.66321711236916      1.80121762905686      0.24321413617017
  Cl  -1.66928507936390     -0.08779895178372     -0.11438049778831
  Cl  3.02715479709607     -0.21486822933947     -0.20306436171544
  C   0.66605783258331      1.44802952021629     -0.01679113050723
  H   -0.02040707447155      1.75466777311526      0.77327478223066
  N   0.66004303576747     -0.90610160744271     -1.26004571032469
  O   0.68981823243326     -0.31737985286493     -2.32815515885397
  O   0.61563265405911     -2.11654598095262     -1.09301709235344
  N   0.72207369893324     -0.70248774046295      1.25674304638346
  H   1.38997586866969     -1.45933767570737      1.22681049485785
  H   -0.19538526794051     -1.04437783909106      1.50647554613330
  C   0.24525181006533      2.12958267997141     -1.23626951427767
  N   -0.08012131107125      2.82396854164418     -2.12484717026865
