14
Coordinates from ORCA-job run
  C   0.52102958516235     -0.06719672670507     -0.12779136977889
  H   1.59979421391581      1.46556655931879     -1.14425159128234
  F   -0.93418172275397     -0.11613503273974     -0.75319130250019
  H   2.29397796329177     -0.17832559412380      0.34912542170051
  C   0.87156719900586      1.40005984737893     -0.33737844084548
  H   1.34017201814736      1.76850847205656      0.57121792635147
  N   1.08854390391601     -1.03145870687662     -1.12183489644125
  O   1.47443066025734     -0.59584596912909     -2.20871985353008
  O   0.98266647962429     -2.22982764801073     -0.85009730407629
  N   0.16654536806880     -0.53818627316088      1.16725446217774
  H   0.96047621018231     -1.01631472486583      1.56020790097333
  H   -0.60608805710093     -1.18092094093982      1.04325117737005
  C   -0.27270417336120      2.27653544527000     -0.65075430202912
  N   -1.10204964835581      3.08113129252729     -0.85960782808945
