16
Coordinates from ORCA-job run
  C   0.84987452629053      0.04059108558088      0.03590527339293
  H   1.75774214858892      1.99613042449199     -0.14218641808481
  F   -1.07372462285230      0.05427231629922      0.00292373683477
  Cl  3.01819032016182     -0.11809673457051     -0.16243749266214
  C   0.74927703435393      1.58856406255505     -0.07262578929688
  N   0.65651503110535     -0.85012087510229     -1.17784778188615
  O   0.69571493331094     -0.32376048467847     -2.27907344640138
  O   0.50224569155769     -2.04280547216760     -0.95280783764850
  N   0.79526479143004     -0.54895596497625      1.31591434688384
  H   1.47083640805996     -1.29630243138417      1.37618627648548
  H   -0.14813960353289     -0.90597457453634      1.40362875399372
  N   0.11533996839662      2.17165658662208      1.10145612310432
  H   0.63908229156918      1.83140184113087      1.90159143314208
  H   -0.79105871408587      1.71433433929364      1.14248445105524
  C   0.02047964926908      2.06422617084866     -1.25602354018118
  N   -0.52351985362299      2.60660971059326     -2.14347808873136
