15
Coordinates from ORCA-job run
  C   0.42659488274287      0.03314770851031      0.09869036638131
  H   1.29986892559093      1.73500590931960      0.87467632417468
  Cl  -1.71957385166428     -0.23236444955236      0.71340890265905
  F   2.19589517353878      0.07106980569195     -0.70539764534667
  C   0.49641152864026      1.56789336258154      0.15520185947988
  H   -0.42709459736741      1.95299978882767      0.58214608757392
  N   0.09861766535498     -0.71106585960384     -1.18360978987735
  O   -0.34963615844091     -0.07322655137895     -2.12809576030368
  O   0.30160799771557     -1.91746430452960     -1.18172916162493
  N   0.94056134775483     -0.70761716139128      1.17617456391658
  H   1.89662774074399     -0.91058254773639      0.90579086550791
  H   0.41404527669115     -1.56190770860332      1.28683464318612
  N   0.81183940961716      2.30319234506262     -1.05402140392665
  H   0.06363247059213      2.14901266760406     -1.71671672882387
  H   1.62453218848993      1.82556699519798     -1.42805312297632
