16
Coordinates from ORCA-job run
  C   0.55459054475592     -0.07608878561716     -0.17469813814663
  H   1.73538319569760      1.39513408946624     -1.14151067872626
  F   -0.89335481377252     -0.16532124817575     -0.88655909334761
  H   2.28856368825855     -0.24454680926839      0.38533462616439
  C   0.92566732957530      1.38155515138281     -0.41297439465118
  H   1.33520930897229      1.74745280339718      0.52719948622757
  N   1.13928224763588     -1.10187147961769     -1.08712962261266
  O   1.58051070646538     -0.73323621411395     -2.17996958608541
  O   0.98280742556582     -2.28726318419776     -0.77307130311008
  N   0.09808126585084     -0.49581990710915      1.11355032125554
  H   0.87811685364868     -0.91880456844131      1.59054868001040
  H   -0.61797697639046     -1.19246093864710      0.94754868905540
  C   -0.21915565054562      2.29210572274226     -0.86401250034672
  H   -0.58900016073321      2.00372856301242     -1.84671661374900
  H   -1.05524817507632      2.24152198023094     -0.16497085652302
  H   0.13783321009186      3.32878482495637     -0.90829901541471
