14
Coordinates from ORCA-job run
  C   0.84708227263926     -0.06663944767268      0.07597952692556
  H   1.80170656795369      1.86561971466690      0.24435298556288
  F   -1.12381377484831      0.06424214478929     -0.04741057437469
  Br  3.14440748719194     -0.35701911952061     -0.18683173060052
  C   0.80262721780679      1.45160501061015      0.10700560393638
  H   0.40472225635477      1.79486265259344     -0.84569091145865
  N   0.58488862413093     -0.72807301464461     -1.27089526515286
  O   0.58603099358950     -0.02202937583761     -2.26816377540416
  O   0.42702094837530     -1.94042410497087     -1.25013253320030
  N   0.71625139240050     -0.81393365088047      1.25186948660385
  H   1.14833535715606     -1.71898309300926      1.12584084036065
  H   -0.28833381999295     -0.91118202271320      1.37063507925176
  C   -0.04275841369239      1.95006842617670      1.19062588104861
  N   -0.62268710906507      2.46898588041286      2.06910538650147
