15
Coordinates from ORCA-job run
  C   0.84465874406955      0.04850800818269      0.08368940505475
  H   1.88878147244969      1.93117859400464     -0.05169377047106
  F   -1.09067111251619      0.13712195305835      0.02069161482701
  Cl  3.03688092214869     -0.31708569180559     -0.14500759425645
  C   0.86147523420068      1.57507127764359     -0.03813867501003
  H   0.39239411621594      1.82445938002307     -0.98663912223921
  N   0.59623059834685     -0.78166330288041     -1.16428242796268
  O   0.59133979936327     -0.20195881486375     -2.24084427781842
  O   0.42889517929692     -1.98306585722704     -1.00093071730975
  N   0.75320454653472     -0.58190309526632      1.34172877359423
  H   1.35384591372365     -1.39303809906834      1.35650381385157
  H   -0.21842482615328     -0.85626261852151      1.42075729549371
  N   0.14641374888269      2.23936079949222      1.04024474236201
  H   0.56532129801965      1.92544795614542      1.90940979243457
  H   -0.77889563458280      1.82382951108297      1.01205114744974
