16
Coordinates from ORCA-job run
  C   0.45534924895308     -0.04385827089986      0.03038234729433
  H   1.49110426907066      1.73034952440201     -0.43236727319082
  Cl  -1.67477048948096     -0.27266955109562     -0.47445763568486
  F   2.39951199061406     -0.03022570121619      0.32921938183446
  C   0.50624210333491      1.46956258096666     -0.05752889441192
  H   -0.23831577342707      1.82587267446906     -0.76729719887396
  N   0.88343860209431     -0.78097243439889     -1.22326906150325
  O   1.08229257401526     -0.11268259246471     -2.22952919301500
  O   0.98389524251388     -1.99872410778395     -1.14620439618718
  N   0.36236385912640     -0.76900456747003      1.23544613265181
  H   1.31361795980949     -1.06155447649362      1.42456955549759
  H   -0.25047270690673     -1.56075007126714      1.11186749945637
  C   0.28041529535711      2.08147159372562      1.31442832529320
  H   -0.68588034008056      1.78055154395081      1.72180458932301
  H   1.06139256385924      1.74219834966416      1.99449519432014
  H   0.31379560114692      3.17432550591168      1.24892062719609
