14
Coordinates from ORCA-job run
  C   0.57430318665277     -0.06593468506006      0.06993531670013
  H   1.79870226377968      1.66242247203826      0.01148838975944
  Cl  -1.59790054305097     -0.02001442396765     -0.17759397425820
  F   2.48986144634422     -0.23940750510869      0.04052836369219
  C   0.73291451219033      1.44600074988581      0.04186490948284
  H   0.25741049281916      1.84704581666371     -0.85150385708291
  N   0.74202435764972     -0.76110026373984     -1.26789598473818
  O   0.88097191090822     -0.05730291115680     -2.25911231588441
  O   0.71785630641509     -1.98284125465711     -1.25277003544214
  N   0.57041947098460     -0.80701515614393      1.26124836092280
  H   1.48428921846089     -1.23644441493430      1.31604865419970
  H   -0.17162692640221     -1.48967887076500      1.25598860470363
  C   0.14975620408299      2.07558778707430      1.22158476403877
  N   -0.24350190083447      2.66578265987125      2.15647880390634
