13
Coordinates from ORCA-job run
  C   0.48171399667975     -0.00767515370688      0.04957528336920
  H   1.85797271114489      1.64616575670263      0.24037263561817
  Cl  -1.54628292293006      0.08489932033961     -0.11486009649722
  H   2.36401463813925     -0.36902631640631     -0.25859607586352
  C   0.80328390193688      1.46827671988779      0.04791394967388
  H   0.20024350892152      1.93186833323223      0.82971062902314
  H   0.53086499649432      1.88361754020766     -0.92061811994908
  N   0.78721184853979     -0.76180003967148     -1.19205958116598
  O   0.81813581996479     -0.12434033778073     -2.25804328435849
  O   0.62000713781730     -1.99478858844368     -1.13232632920323
  N   0.57543656285297     -0.72640058629820      1.28121835048167
  H   1.53753432588373     -1.03523160936222      1.34490383313165
  H   -0.00862652544514     -1.54974503870043      1.18416880573983
