13
Coordinates from ORCA-job run
  C   0.46179153495308     -0.00448521966432      0.05489189833695
  H   1.87052746504536      1.61318456472038      0.29907907938292
  Br  -1.70569072233174      0.08244535670931     -0.14048934793039
  H   2.32427103847229     -0.39878570005909     -0.34210114778621
  C   0.81795994444417      1.46331910977175      0.06447358600177
  H   0.20054933914746      1.94726786970242      0.82231913312848
  H   0.59962059795593      1.88157671329562     -0.91625172147543
  N   0.80368412936864     -0.76123655218714     -1.18377607300628
  O   0.79743238991079     -0.12702938832751     -2.25619320885115
  O   0.62205049268987     -1.99683765137781     -1.12041354818861
  N   0.57547295400377     -0.71952572945414      1.28500741844619
  H   1.56181078308560     -0.93278148871373      1.38864355853252
  H   0.09203005325477     -1.60129188441579      1.14617037340927
