15
Coordinates from ORCA-job run
  C   0.65985147665111      0.05457437380937     -0.18121878647211
  H   1.10550450051408      1.54981504273284     -1.62386058779275
  F   -0.84513902364668     -0.00456674813903     -1.08845799746786
  F   2.29407496242383     -0.16239619512818      0.56359457928641
  C   0.92104561784180      1.51057788955971     -0.55126903779048
  H   1.81686136344544      1.82944201357196     -0.02566060266556
  N   1.12622473102451     -1.05249071238685     -1.10509280159600
  O   1.70354698473738     -0.73842168376881     -2.13791797083974
  O   0.88575762506229     -2.20347097662867     -0.75910594604742
  N   0.02443257356168     -0.27987232432002      1.03860956903668
  H   0.69735176433738     -0.81146964305747      1.57119894769555
  H   -0.78619877378023     -0.83684980277575      0.81196076657752
  N   -0.18271288157652      2.40549697426275     -0.21504316719541
  H   -0.35921425137504      2.26602852421449      0.77522687746938
  H   -0.98745666922102      1.99726326805362     -0.67766384219820
