16
Coordinates from ORCA-job run
  C   0.29116310516451     -0.06552149105043     -0.24732801570650
  H   1.30956517953589      1.54703268867901     -1.14527947595027
  Br  -1.40385015174305     -0.50597673783541     -1.49897144302383
  H   2.09964935859392     -0.06284034040970      0.36544065623265
  C   0.57190036160859      1.44244310512386     -0.34587897218002
  N   1.32232721611755     -0.91847162005984     -0.91469033863362
  O   1.79154727768413     -0.50266641818016     -1.99189481709780
  O   1.28910300773780     -2.12555284421276     -0.59902235359236
  N   -0.19534116323484     -0.50316301714384      1.01413636735434
  H   0.58818400757718     -0.49177698888949      1.66001222936089
  H   -0.49100945024071     -1.46657187358577      0.89806885329926
  C   1.16826595634147      1.91778264496344      0.91697865710242
  N   1.51192983383774      2.47600819704479      1.89672024285861
  N   -0.61821576381026      2.24574841591791     -0.66548812166417
  H   -0.41553049913570      3.20480759645160     -0.40245669839007
  H   -1.38178827603424      1.92365868318677     -0.08011676996954
