17
Coordinates from ORCA-job run
  C   0.73843862184226     -0.00239137654650     -0.01096243757775
  H   1.60346299348717      1.97761368545450     -0.31345739379420
  F   -1.13855859295116     -0.18874033856381     -0.37099666465505
  Cl  2.92924894316323     -0.04770978335369      0.20390430172054
  C   0.62246836429381      1.53889008354206     -0.15913426808133
  N   0.85610952477789     -0.83482889533131     -1.27786473591164
  O   1.06941673025083     -0.25489589101462     -2.33031881231896
  O   0.74740011202545     -2.04419153507614     -1.12854842033583
  N   0.49332726845962     -0.62757453821919      1.22273523397416
  H   1.22042488416325     -1.29115350835205      1.43665726877706
  H   -0.41458132246129     -1.06442904838718      1.14098873383758
  N   0.27001416872415      2.02423705458321      1.27114261506609
  O   1.20813210340859      2.28766032301438      2.01784646413049
  O   -0.91766371049172      2.16600673275793      1.54783267488046
  N   -0.29342028716353      2.00351601022900     -1.12440143038636
  H   -0.38667404747142      3.00775463014512     -1.06530638780966
  H   -1.16936575405716      1.51639639511827     -0.98243674151561
