15
Coordinates from ORCA-job run
  C   0.37345077963098     -0.10076090499676      0.01245300703091
  H   1.44423432827293      1.71096259354724      0.45266756620653
  Cl  -1.60128420749791     -0.39579033972622     -0.01778594859581
  H   2.27708241704616     -0.06349962760301     -0.39854274395010
  C   0.47860977196788      1.41999530538323      0.05863028461547
  H   -0.33265320849399      1.77201085985659      0.69563645467388
  N   0.77780849549063     -0.83277717812389     -1.20547717776949
  O   0.60810146783674     -0.26049276803323     -2.29259744110163
  O   0.88442201576157     -2.06528020586131     -1.07219791918219
  N   0.70271710646152     -0.68642195404536      1.27396677956988
  H   1.69218973128385     -0.90017101122333      1.22544671872666
  H   0.18783467969669     -1.55661952143034      1.34261471024371
  N   0.33215606966525      2.14508807517754     -1.23640904638225
  O   1.35858812740959      2.60750501124268     -1.73282347776264
  O   -0.79943757453187      2.29531166583614     -1.68511176632293
