17
Coordinates from ORCA-job run
  C   0.43282150596055     -0.05606526066715     -0.07661419800591
  H   1.53807549592243      1.75596791960285     -0.52752778390664
  F   -1.06168660340719     -0.26632701539201     -0.49010703180882
  H   2.27253576857582     -0.01292566979481      0.20959015835812
  C   0.53940935485862      1.47916766752550     -0.21148462149224
  N   1.07264025003937     -0.79287606480852     -1.18599870347692
  O   1.32950910929380     -0.17576473896461     -2.22732658763872
  O   1.08861130263437     -2.02897797668561     -1.08328004520920
  N   0.33650323990567     -0.67247702932899      1.20296049594024
  H   1.24308383265713     -1.04207044416639      1.43921305691384
  H   -0.34658366903560     -1.41555524998728      1.12019074621091
  N   0.43089525535423      2.02024958892400      1.22548801177674
  O   1.46821348996247      2.25599889541000      1.83814295306574
  O   -0.70279614301387      2.22003861185098      1.65838211739055
  N   -0.44916507953834      2.06743663559768     -1.05019669752329
  H   -0.38904979165418      3.07608357861184     -0.99867613594129
  H   -1.36483731851531      1.75425655227252     -0.76507573465310
