17
Coordinates from ORCA-job run
  C   0.49248290928139     -0.08312656830929      0.01877791457826
  H   1.61809530236306      1.64403053696671     -0.35129837166651
  Br  -1.80179232862992     -0.33128790470430     -0.45949902470936
  F   2.41185631789058     -0.05211144271746      0.31037668071688
  C   0.57574861616974      1.44643176644663     -0.10308901103696
  N   0.90408491082373     -0.85148991318864     -1.21911580172278
  O   1.12642047468482     -0.19825907113107     -2.23023783256191
  O   0.98932246212450     -2.06706399294510     -1.11273291279404
  N   0.40090440995213     -0.75342626324502      1.25531034570147
  H   1.33443221813601     -1.09801844710424      1.44079910357835
  H   -0.27334636565855     -1.50102478769570      1.20217896325754
  C   0.26043580063075      2.07929065323080      1.25027871032217
  H   -0.75292764333311      1.82419189909969      1.56182700632313
  H   0.96494491887023      1.69175511368824      1.98411670631153
  H   0.35790912586834      3.16589240168567      1.18009513636243
  C   -0.21782272992292      2.08267294092854     -1.15677478854636
  N   -0.74409839925077      2.76720307899456     -1.95446282411388
