14
Coordinates from ORCA-job run
  C   0.41979598484323     -0.06527754257922      0.05583366784625
  H   1.77087692676471      1.60560515169762     -0.03319428676654
  Br  -1.71678590860086     -0.08540339695958     -0.22188691151506
  H   2.35117803347079     -0.32885568448832     -0.16278819476610
  C   0.69639475091187      1.43668781104500      0.04393823128760
  H   0.21900910010673      1.86813269297489     -0.83677592621648
  N   0.88763413701375     -0.73998268291983     -1.18287405873389
  O   0.93850729997126     -0.03483526314727     -2.20939497760065
  O   0.78131165926325     -1.97952396580886     -1.19604580753979
  N   0.52395634199938     -0.77617451976348      1.28490228790508
  H   1.49580455278383     -1.04656921466939      1.38090281744160
  H   -0.04014002355835     -1.61425330556452      1.20218964745895
  C   0.20342269951506      2.09326012766855      1.25087932454476
  N   -0.14548555448466      2.70428979251441      2.19060418665428
