18
Coordinates from ORCA-job run
  C   0.43473692572206     -0.08854784188241     -0.01153398743080
  H   1.50333086621175      1.57608026342730     -0.75784930197349
  Cl  -1.56405836772086     -0.42795673057605     -0.93366211414839
  F   2.21384350778736     -0.04489860706683      0.58131161375949
  C   0.59448808159387      1.43067088685107     -0.18444336516996
  N   1.04714025315520     -0.96231669045067     -1.09710372493207
  O   1.44873457498492     -0.41061542289645     -2.11047146497778
  O   1.09560100005281     -2.16105764483032     -0.86175462906414
  N   0.06262921056549     -0.66553411131312      1.21769528513322
  H   0.90295585226589     -1.06937751194464      1.60700138104174
  H   -0.65369936082178     -1.36019185378209      1.07803654349233
  C   0.64944445299826      2.12894563063051      1.15948393930546
  H   -0.27838573434980      1.96954994782885      1.70377703415514
  H   1.48424984746980      1.71434280501150      1.71528727458843
  H   0.79646045669747      3.20201881194276      1.01015717427904
  N   -0.45196041139987      2.13044734887775     -1.02595959994199
  O   -1.42159433797880      2.62982239556932     -0.46140028389748
  O   -0.21762681723379      2.22574832460349     -2.22898177421874
