13
Coordinates from ORCA-job run
  C   0.79709702867553     -0.02136210998924      0.06192259206535
  H   1.58099201181575      1.86780260960041      0.63300535906059
  F   -1.16053847099526     -0.05006825550777     -0.02950020011804
  Cl  2.98902236059075     -0.23367273620630     -0.19305631742987
  C   0.77160597797797      1.47793429837355      0.01927952229687
  H   -0.19465447228484      1.79859247618674      0.39768307919599
  H   0.89576508653671      1.81426897409519     -1.00740728758504
  N   0.57796244165020     -0.79415776960039     -1.23064213071771
  O   0.51838608837285     -0.16544010135874     -2.27692493554009
  O   0.49535316282464     -2.01099728220988     -1.12723382366920
  N   0.72394328116861     -0.72052703272240      1.28114192329121
  H   1.28594281106224     -1.55746047999130      1.21902387989219
  H   -0.25936730739513     -0.95909259066988      1.35406833925774
