14
Coordinates from ORCA-job run
  C   0.65278263526496     -0.06692609223678      0.06797564953325
  H   1.67217332509896      1.81922122627709     -0.23746554618112
  Cl  -1.66572554651924     -0.07072591421633     -0.26616413677369
  Cl  2.98821064418148     -0.22201437673287      0.20877197477644
  C   0.67152776905102      1.45760056298829     -0.00862197723660
  H   0.00055046586707      1.79899263093832     -0.79321655719306
  N   0.77370505471925     -0.76057776303997     -1.27608052282783
  O   0.90627526057357     -0.04500399119513     -2.26071286255796
  O   0.73385182011611     -1.98180188341872     -1.26611885341257
  N   0.51909096764958     -0.80461837649349      1.25167876116316
  H   1.30246076449444     -1.42746853475270      1.37196705299420
  H   -0.35938168530468     -1.29889455515142      1.27043744160428
  C   0.24801610187091      2.04262195962366      1.25798645570949
  N   -0.05805757706342      2.59669510741008      2.24585312040202
