17
Coordinates from ORCA-job run
  C   0.62638770052434     -0.07346964485599      0.03659691079906
  H   1.60670232807170      1.77836042539225     -0.36793634355479
  Cl  -1.70211835755762     -0.24530572600727     -0.42745715290629
  Cl  2.90098271112980     -0.09034493620218      0.38887461679850
  C   0.59922292720919      1.45998133544072     -0.10074009456887
  N   0.86356593811551     -0.85113452496280     -1.24183923176186
  O   1.05378276119691     -0.19614963148525     -2.25847828626303
  O   0.86743009910937     -2.07050891018309     -1.15006588975555
  N   0.41620817627140     -0.75914690254549      1.24766570538915
  H   1.19395847064060     -1.37340308972679      1.43520458675203
  H   -0.45079405684380     -1.27341573758175      1.20770217123818
  C   0.23865882069168      2.07531863762249      1.24948654202800
  H   -0.75749115337919      1.75203521447364      1.54954677531869
  H   0.95906001941305      1.74755394909090      1.99780696110789
  H   0.25963194342737      3.16493862902401      1.16884838469975
  C   -0.24382039811656      2.02758580810626     -1.15721175523528
  N   -0.78471792990380      2.69276510440037     -1.96145390008557
