15
Coordinates from ORCA-job run
  C   0.62532947863282     -0.10116669260269      0.13318161913773
  H   1.84124784798513      1.42196854046884      0.89988586232566
  Cl  -1.57827941213183     -0.01555985024310      0.14536379878960
  F   2.46826092346708     -0.26320593949752     -0.21285984133834
  C   0.94092131539231      1.37086631814887      0.29796790773509
  H   1.07875270474134      1.82592437605081     -0.67589984351826
  N   0.55468196811066     -0.63069912885589     -1.30059923248053
  O   0.55394177390083      0.17582911214579     -2.21798798210125
  O   0.50746162354131     -1.84643975171896     -1.41612755447950
  N   0.74014359672328     -1.00563520199963      1.19948823129951
  H   1.59969558567393     -1.51460155773274      1.04560590688171
  H   -0.05870474213239     -1.61914686576462      1.23249646248242
  N   -0.06450149232420      2.20042363436918      1.02632592975004
  O   -0.62506463986398      3.09841719145708      0.39843792000450
  O   -0.19812653171629      1.99134581577455      2.22846081551162
