14
Coordinates from ORCA-job run
  C   0.38340912166666      0.08151828268599      0.04819621590681
  H   1.60724183897970      1.67842231176829     -0.57878552540526
  F   -1.36471824476174      0.04288546868516     -0.45369567855934
  F   2.03507241747545     -0.13135901831616      0.70168229144352
  C   0.62269745057429      1.59385144060421     -0.10200968942955
  H   0.01967076818837     -0.33520404924876      0.96809172740873
  C   0.69181345114130     -0.76704886220812     -1.08325623519619
  N   0.96218597259642     -1.41202671571145     -2.02696308656530
  N   0.61886247181340      2.13604317275645      1.25276138012205
  H   0.85599488753743      3.11875737927366      1.17750893341096
  H   1.37193794935736      1.65175356523717      1.73026490336364
  N   -0.32392636485278      2.34584011838393     -0.90163644906435
  H   -1.22049689893629      1.91045595302162     -0.69939474541338
  H   -0.14059482077957      2.11810095306796     -1.87335404202230
