13
Coordinates from ORCA-job run
  C   0.53995609768964     -0.02379683580069     -0.05181450987070
  H   1.42962219271876      1.85991001901382     -0.47915656773232
  Cl  -1.77950807572313     -0.34408729634126     -0.22758351863573
  Cl  2.79532598018347     -0.14087953459604      0.59933132291755
  C   0.47974653180453      1.48628757143789     -0.09432566486776
  H   0.40256911643332     -0.58421950453953      0.85226208697954
  H   -0.30712016151896      1.77796630180245     -0.79117442466561
  C   0.79347485026714     -0.73579217153404     -1.27335584330432
  N   1.00295095685700     -1.26311441627861     -2.30467562308559
  C   0.20647454626210      2.06617927352144      1.28389185468739
  H   -0.74520071199709      1.69216870521590      1.66570701276699
  H   1.00780015021263      1.78956491173465      1.97143915651114
  H   0.15316852681060      3.15785297636402      1.23786471829943
