13
Coordinates from ORCA-job run
  C   0.60309463064286     -0.05893025776756     -0.06168325040237
  H   1.69241812100213      1.75713250417791     -0.41489154910109
  Cl  -1.78122942855925     -0.02139908839889     -0.11804352105736
  Br  2.89940042671837     -0.35476902320911      0.55076865354363
  C   0.68242571753990      1.45857452801307     -0.12421604132819
  H   0.35593010093537     -0.53467747740092      0.86750516451683
  C   0.67062826043942     -0.85361830612167     -1.25167709968526
  N   0.75907730083638     -1.54292216177810     -2.20250710647835
  C   0.37274701461206      2.04035827580296      1.17523284740269
  N   0.19822963078170      2.52806692375847      2.22887075626533
  N   -0.16965298007359      2.10180739592746     -1.21131968835329
  O   -0.85142437864446      3.07081079928057     -0.91026847783176
  O   0.01142558376909      1.65405588771581     -2.33444068749082
