10
Coordinates from ORCA-job run
  C   0.53235810586240     -0.01174358386733     -0.02040427138974
  H   1.76442932530144      1.66792409833387     -0.19268030781801
  Br  -1.70613828412176     -0.18226819547333      0.12088845843314
  F   2.58990693490829     -0.23844328421493      0.12095891498915
  C   0.70351669058872      1.48893387582622     -0.04231970997027
  H   0.72353625780046     -0.55360389056984      0.88491429150699
  H   0.37926662707266      1.90609821713710      0.91219704329029
  H   0.10217188961889      1.93518648820859     -0.83565691592889
  C   0.76956051015206     -0.72935194224449     -1.24946713092708
  N   0.85818194281684     -1.27276178313587     -2.28914037218560
