12
Coordinates from ORCA-job run
  C   0.36053138970741     -0.03125302550598     -0.12072646709068
  H   1.71046909330336      1.36102118307629     -1.11165463401953
  F   -1.14184150259305      0.08406259468130     -0.61229059838787
  H   2.13557141229257     -0.17259287775394      0.51347540653051
  C   0.90860002313890      1.36691490339307     -0.38154273539911
  H   0.17574416901903     -0.29329170719890      0.90876459188900
  H   1.21454110791210      1.84863901909066      0.53956722609527
  C   0.86260356629831     -1.09932371672213     -0.95675237263431
  N   1.10926500643428     -1.96565180866391     -1.71803069276639
  N   -0.16088405327610      2.28021971304561     -0.96635768985642
  O   -0.84840028602196      2.92461722309623     -0.17562906367756
  O   -0.24709992621482      2.34984849946170     -2.19042297068292
