15
Coordinates from ORCA-job run
  C   0.28572719195892     -0.04947420055658     -0.08929987916502
  H   1.59393372299036      1.61898014803268     -0.50742499590578
  F   -1.25462933133893     -0.02904552793307     -0.51032381555836
  H   2.08514723619161     -0.18174790669420      0.56052662418486
  C   0.59216353447820      1.44747256650786     -0.12888395220861
  H   0.15153177270011     -0.49553386223515      0.88200204653145
  C   0.89455905543787     -0.90449395188860     -1.08239127942289
  N   1.19373362989181     -1.63822407336160     -1.95697688860989
  C   0.36697152974914      2.08655281195085      1.22107754591346
  H   -0.65325950801931      1.89394302211532      1.55443439211831
  H   1.08157778628813      1.63833868480293      1.91166789696463
  H   0.51771322980026      3.16700212167457      1.18305136032191
  N   -0.29802583513653      2.10612269408665     -1.17200535040943
  O   -1.20792030480411      2.85165976379662     -0.81567591144706
  O   -0.00765371018754      1.86972770970173     -2.34225779330757
