12
Coordinates from ORCA-job run
  C   0.73798265360755     -0.05732343786507     -0.01042776659268
  H   1.74155987450855      1.87764405498518      0.06822080491837
  F   -1.21314955802006      0.16749827793078     -0.11932787268088
  Cl  2.79924327418234     -0.47119355263509      0.23388037072037
  C   0.73991402831774      1.45024504653415     -0.00091425759150
  H   0.45758308810735     -0.57939954879369      0.88467911627696
  H   0.19927900272168      1.83822812123914     -0.85592593641649
  C   0.55412901308388     -0.70763934023283     -1.28374645795177
  N   0.48729916617903     -1.22684549464976     -2.33614315549010
  N   0.01570598153692      1.96607617799130      1.19663448517456
  O   -0.57507029350375      3.03440466378489      1.06000013415863
  O   0.13656376927877      1.36077503171099      2.25474053547451
