13
Coordinates from ORCA-job run
  C   0.41502726269371     -0.03821972636836     -0.04074793847719
  H   1.52970649960727      1.62223800170142     -0.63988903826382
  Br  -1.82090125431203     -0.46443711049892     -0.69218858611195
  F   2.15457857900652      0.01990620942507      0.78188189298689
  C   0.54867387022024      1.47923054887317     -0.16884465313787
  H   0.14142102943116     -0.46278434269514      0.90555104079186
  C   0.99170821429525     -0.86329101628320     -1.06768983887681
  N   1.47898568954455     -1.50135959536709     -1.92742826343040
  N   0.49874815739837      2.02835015170828      1.18643116129457
  H   0.65756196014385      3.02898382443685      1.13933813747833
  H   1.30267921033253      1.58801620329076      1.62800609215832
  C   -0.42144454943474      2.18562970202741     -1.01825717677489
  N   -1.04734466892669      2.92365714974972     -1.68462282963705
