13
Coordinates from ORCA-job run
  C   0.62712537216856     -0.06516128070868     -0.05232168735375
  H   1.68517362312462      1.79942076064445     -0.06059618270005
  Br  -1.89490665082700     -0.10086334667229     -0.03288097746634
  Br  2.99688553745818     -0.36617790093009      0.36703115044219
  C   0.64570917884886      1.45557185326783     -0.06772053006006
  H   0.47503360389705     -0.58338291177100      0.87566853672706
  C   0.65356486223661     -0.75810110087882     -1.30323653980750
  N   0.71181845679414     -1.30532093566206     -2.34529717331596
  N   0.08748481288230      2.01103340440047      1.22858237242034
  O   -0.43310818634615      3.11821892357275      1.17649544551363
  O   0.30290091391857      1.35556996459036      2.23738812575800
  C   -0.01366311582832      2.06716333571599     -1.21567585384710
  N   -0.40030840832744      2.61626923443109     -2.17969668631045
