12
Coordinates from ORCA-job run
  C   0.66918396829422     -0.04658216563969     -0.07165248836077
  H   1.81049175620568      1.74288648787161     -0.43566306138061
  Cl  -1.67987246110553      0.04365649345115      0.09105388165623
  Cl  2.89611125221221     -0.40922059901355      0.33646644960066
  C   0.80003526682792      1.45613030196894     -0.14964882927560
  H   0.52003078966203     -0.51582291708137      0.87964800176656
  H   0.52536912665562      1.89241777021430      0.80591820206005
  C   0.64079654526306     -0.87454301604336     -1.24251837292685
  N   0.63877516736238     -1.58598298746215     -2.18005887490351
  N   -0.06471214257014      2.12519480670433     -1.17206242604920
  O   -0.61593800773990      3.16735663685266     -0.82889324530232
  O   -0.06117126106756      1.65771918817717     -2.30418923688463
