13
Coordinates from ORCA-job run
  C   0.58676946285732     -0.05953004933975     -0.05192248917069
  H   1.70548061135831      1.73082951182156     -0.40934987392495
  Cl  -1.75616167087538     -0.02311200400040     -0.13803993842359
  Cl  2.76490161470096     -0.31423749805399      0.51500728016106
  C   0.68859595842897      1.45586413918802     -0.12199810818155
  H   0.36072311807366     -0.53136871311387      0.88423626497764
  C   0.67894223062544     -0.86310793095391     -1.23472416445446
  N   0.78049477636984     -1.55776728294466     -2.17957751931129
  C   0.37891447545074      2.04691448766648      1.17264734087983
  N   0.19675606208190      2.52726433364637      2.22818548538371
  N   -0.14909407216901      2.10376795734328     -1.21478993631355
  O   -0.82594869997999      3.07877398763598     -0.92078311345743
  O   0.03269613307725      1.65019906110491     -2.33556122816472
