12
Coordinates from ORCA-job run
  C   0.64116303751794     -0.06932653538291     -0.00087307898808
  H   1.82217609261460      1.70630986815814      0.24090082671504
  F   -1.11410088612851      0.09647200906563     -0.01368641671125
  F   2.40177502580414     -0.33576158141742      0.00067622409783
  C   0.78757622327393      1.42931900458642      0.05219927827892
  H   0.57798695250426     -0.63988851201883      0.90698759945173
  H   0.39776530374701      1.89432888193164     -0.84824502665174
  C   0.58098174448056     -0.71957606651814     -1.29482607308020
  N   0.53380558778812     -1.22736144638768     -2.35232149327794
  N   -0.00432780660808      2.00733039285003      1.17482817734549
  O   -0.65867429279625      3.02311364931955      0.94646858797161
  O   0.11491301780226      1.48751033581359      2.27956139484857
