11
Coordinates from ORCA-job run
  C   0.46908832167426     -0.04835799458331      0.00355170158703
  H   1.69907224542309      1.70680066972348     -0.01506266724635
  Cl  -1.49417270987083     -0.23387366144143      0.22873458435542
  H   2.46091264507847     -0.27266021375855     -0.30353103376887
  C   0.63567994946129      1.47304826835069     -0.03493771133259
  H   0.83541109566519     -0.48566327528825      0.92393862481978
  H   0.15287312438618      1.89606243619485      0.84887518305962
  C   0.91164140346495     -0.77655409444834     -1.17053790118883
  N   0.78359549915457     -1.39970104101507     -2.17427689651145
  C   0.03954726613113      2.08860599963813     -1.21917794188469
  N   -0.41418884056833      2.65403290662779     -2.14221594188907
