12
Coordinates from ORCA-job run
  C   0.28630734990571     -0.09840381392451     -0.15160621302970
  H   1.55295579742069      1.58977391033234     -0.60778566573862
  F   -1.17008596983181     -0.16222372497266     -0.77186168018636
  H   1.99174829821857     -0.10437518093838      0.64059793495394
  C   0.55998799742036      1.42191880739661     -0.19061912017418
  H   0.06659268354888     -0.53897935540695      0.80684247383119
  C   1.07489228258252     -0.89488065336953     -1.05985452458254
  N   1.52649049108484     -1.56224259578127     -1.92325200375312
  C   0.55405411124982      1.98937123784492      1.16147233096107
  N   0.49153857746714      2.50285497387939      2.21601433587952
  C   -0.41279586531359      2.17656638070409     -1.01922450046796
  N   -1.07825575375316      2.87364001423595     -1.69043336769325
