11
Coordinates from ORCA-job run
  C   0.55996058264065     -0.05423101614535     -0.03983781631106
  H   1.50622452499269      1.83544764143800     -0.44431065884179
  Cl  -1.74753167861877     -0.23401770542876     -0.21254201870131
  Cl  2.80095153814452     -0.18849110337184      0.55256535996680
  C   0.55193671001922      1.46405123126443     -0.06996807944230
  H   0.41491924651932     -0.61838109731343      0.85976323425820
  H   -0.24890529580071      1.81462905360326     -0.72144830440518
  C   0.77859057288226     -0.73037959923575     -1.28585012229218
  N   0.96019471194842     -1.23564219858011     -2.33321967758793
  C   0.33753632911458      2.02656857202269      1.25965962518065
  N   0.16688275815783      2.52169622174686      2.30940845817610
