15
Coordinates from ORCA-job run
  C   0.70330530029787     -0.04021682337377     -0.00620540626351
  H   1.71964112622025      1.84630516003281      0.17610175680533
  F   -1.25255275027832      0.11377388341045      0.16933057534392
  Cl  2.78633097049276     -0.41076905707351     -0.12856940851165
  C   0.70989198760060      1.48146935016550     -0.02360313946052
  H   0.59679149845213     -0.53067892637128      0.94372575773326
  C   0.32739282765083     -0.76105261395793     -1.19740571116311
  N   0.10566923433405     -1.34299122443958     -2.19474972981406
  N   -0.05385098483032      1.96416874572319      1.18591637264875
  O   -0.82296572182430      2.91001796044099      1.05450770314731
  O   0.24258484955641      1.44832572162837      2.25828231152406
  C   0.16502183392314      2.07486305290456     -1.30003910668927
  H   0.77805596842752      1.73336152995152     -2.13745592810821
  H   -0.85876957864204      1.73134053444641     -1.42549487486017
  H   0.19429343861940      3.16360270651225     -1.25976117233216
