15
Coordinates from ORCA-job run
  C   0.44558267381374     -0.01951245680047     -0.07088047536683
  H   1.58245255476966      1.67634121341170     -0.34186564629180
  Cl  -1.65996146012004     -0.36348986734948     -0.25720919221305
  F   2.37574035556183     -0.04374222504151      0.50506743091910
  C   0.53038329768175      1.49888160371256     -0.12491477518182
  H   0.46459855000627     -0.52749027415038      0.87254678725245
  C   0.89600410061956     -0.75902153731196     -1.22472395319929
  N   1.21666998749939     -1.35457422480504     -2.18607970237361
  C   0.22583827618731      2.05773754900044      1.26062298670311
  H   -0.79288676522767      1.80085429253365      1.56502855493987
  H   0.94244567001514      1.63760638935108      1.96914940002967
  H   0.32493320037760      3.14880102340238      1.26193452880043
  N   -0.24173270731092      2.06572788156684     -1.22815836040935
  H   -0.04765186943109      3.05973739637689     -1.26694000119279
  H   -1.23073586444253      1.93802323610331     -1.05122758241609
