15
Coordinates from ORCA-job run
  C   0.40124194078908     -0.00529163885016     -0.07933345091982
  H   1.63176410134694      1.73701783647876     -0.26980917229638
  F   -1.20981324750057     -0.07573952457681     -0.29288762255919
  H   2.30988068638073     -0.21451748956011      0.36054635463589
  C   0.58214338544701      1.51755797496085     -0.10079714211013
  H   0.42336271992857     -0.50795103782052      0.87152683876798
  C   0.90938096284790     -0.77279514186879     -1.19206800745808
  N   1.09462484618870     -1.41570123485836     -2.16556783418235
  C   0.16863131319462      2.06113888661426      1.26549165477384
  H   -0.86325207487470      1.76821166898307      1.47562676670894
  H   0.82482051378448      1.66320440690142      2.04530734264825
  H   0.23414409686349      3.15512337991627      1.28202727587746
  N   -0.17378819750312      2.07796996462699     -1.22701969015368
  H   -0.17654736341305      3.08843976660948     -1.14217963683595
  H   -1.12491368348011      1.73921218244362     -1.14851367689679
