14
Coordinates from ORCA-job run
  C   0.55712790078872     -0.04091648573902     -0.02594516115293
  H   1.66934656958618      1.68272810783543     -0.56743288712475
  Cl  -1.84657772209751     -0.11877026637106     -0.31431382542608
  Cl  2.63237824117454     -0.30635023313196      0.74901041796599
  C   0.69350277031958      1.46867993626322     -0.11613787666190
  H   0.18347565986351     -0.46067783089685      0.88774333678895
  C   0.71838847081715     -0.86514401414327     -1.18773466263397
  N   0.92233392028516     -1.55070631593338     -2.12267289384286
  N   0.47956841899366      2.03680013916694      1.18377760827909
  H   0.39961974086347      3.04156532635844      1.10694637185545
  H   1.28387385158632      1.79667428673170      1.75037026004560
  N   -0.23367672836288      2.11993260483209     -1.12450906886196
  O   -0.89874588750451      3.08385289902427     -0.76208663492157
  O   -0.13157520631338      1.70972184600342     -2.27243498430909
