14
Coordinates from ORCA-job run
  C   0.60783855864166     -0.04148860753693     -0.05544719592842
  H   1.58435950805960      1.82030367061917     -0.34436891665099
  Cl  -1.77263849880656     -0.29746746536045     -0.17353843348376
  Br  2.91798268899215     -0.22513789756836      0.64390193074361
  C   0.56999721586030      1.48470487239158     -0.11306788558503
  H   0.39655868996104     -0.56847017977038      0.85425980051107
  C   0.77974274337987     -0.77794536460426     -1.27314138144092
  N   0.95236231499744     -1.34051346869416     -2.29362504151357
  C   0.16557223067349      2.06517744169073      1.24022441829329
  H   -0.84431192587559      1.74223595809670      1.49114770679437
  H   0.87014860330287      1.71149501952523      1.99579329173304
  H   0.20033506982666      3.15654012284024      1.20929123027222
  C   -0.26497074053720      2.01512166732282     -1.19655657778186
  N   -0.82104645847573      2.58525423104806     -2.06039294596305
