15
Coordinates from ORCA-job run
  C   0.56029726964435     -0.03014963853164     -0.06144603954662
  H   1.62081054058417      1.76435688201680     -0.44689025069227
  Br  -1.93980279884713     -0.24503800167562     -0.17403026581679
  Cl  2.76089022670528     -0.23474139686402      0.61462642490353
  C   0.61924566436400      1.48763626028338     -0.11492442601562
  H   0.33792031794841     -0.51714338231945      0.86811518683184
  C   0.74307013012727     -0.84036040848121     -1.22980600764997
  N   0.92455078437556     -1.52664004770680     -2.16967432918646
  C   0.30377124972004      2.09681773788986      1.23055664382822
  H   -0.71628193253686      1.84798051972520      1.52165276278844
  H   1.01146067416923      1.69088035683865      1.95485990369252
  H   0.40920422420512      3.18097499011013      1.19773029126165
  N   -0.24611916487258      2.07168516786701     -1.21205575295199
  O   -1.00348562849978      2.99481413408261     -0.92913353291173
  O   -0.04396155708711      1.64020682676512     -2.34206060853474
