15
Coordinates from ORCA-job run
  C   0.60202912876968     -0.04936284427939     -0.01241809300541
  H   1.70222244943727      1.76919318236593      0.09452563140514
  Cl  -1.76997398636149     -0.11066694762167      0.22097834704375
  Br  3.00429024730826     -0.46311629014738      0.03838040818075
  C   0.66179016434674      1.47167386489518     -0.04342917765080
  H   0.56774670391949     -0.56901507784324      0.92681728486534
  C   0.45588457250467     -0.76029881002949     -1.24850959361988
  N   0.36453626542120     -1.29823945456128     -2.29254969314801
  N   0.01247176978554      2.01796286259953      1.20646938340285
  O   -0.65497190267723      3.04324547165640      1.11043952762962
  O   0.29496771468883      1.45378294435544      2.25755045853580
  C   0.11618040718820      2.10475897117271     -1.30268315689293
  H   0.70230357438570      1.74518396803671     -2.15136013662592
  H   -0.92899439272124      1.83790295576921     -1.44596381319053
  H   0.21035728400440      3.18851520363133     -1.24366737692977
