14
Coordinates from ORCA-job run
  C   0.46736244506749     -0.03927677528456     -0.05322341844174
  H   1.71207578213136      1.61849161125006      0.01290243033127
  Br  -1.78195455562747     -0.20034152136693      0.00854025257654
  F   2.50736548835700     -0.14375343827209      0.06636159254764
  C   0.63573099201715      1.46597337572713     -0.07041714777125
  H   0.62667130636648     -0.54645857602853      0.87910754499874
  C   0.72497668476036     -0.75147476406474     -1.27665633212610
  N   0.83648423807886     -1.34692269849442     -2.28486035575689
  N   0.08555394034413      2.02655212091275      1.25962468901175
  O   -0.49662007610778      3.10974258199254      1.21292510897598
  O   0.34217886453356      1.41137943775843      2.28825566256261
  N   0.09574871758725      2.09588014056194     -1.21254855561348
  H   0.28222233858146      3.08787576942112     -1.18673293640312
  H   -0.90433616608985      1.94264273588732     -1.25766853489196
