13
Coordinates from ORCA-job run
  C   0.69796239467389      0.05667839772379     -0.02582388222490
  H   1.65500021542006      1.89327614289574     -0.49781963896018
  Br  -1.77069863597892     -0.20622102844359      0.20882281753568
  Cl  2.96627933379051      0.01036113959267      0.46496438569443
  C   0.65925806270181      1.58638633161195     -0.17164903336530
  H   0.62410019075358     -0.39973962223928      0.94081528463261
  C   0.79519093321390     -0.76532743344361     -1.19467943556732
  N   0.89250798027505     -1.39734347688399     -2.18426911775966
  N   0.37832786103671      2.27513923296492      1.07149621274867
  H   1.12799321483328      2.04411005424233      1.71529388853975
  H   -0.49159476057165      1.90154147410540      1.43953189960088
  C   -0.24762662290180      2.04285447378225     -1.23683058735578
  N   -0.85730016724640      2.50420431409142     -2.12831279351890
