15
Coordinates from ORCA-job run
  C   0.50066715540316     -0.06640981370655     -0.00508944794000
  H   1.71395862902347      1.59860751042374      0.11983612520608
  Br  -1.76378142184082     -0.27824092740582      0.30614355908476
  F   2.48466760885628     -0.15981430829867     -0.22372615763693
  C   0.64306455252001      1.44684199582945     -0.01944978986004
  H   0.73854542314783     -0.58811832890441      0.90342206484064
  C   0.55774872518320     -0.77358725662411     -1.25709458150403
  N   0.52589892372585     -1.32525908126797     -2.29587478325504
  N   0.02644028461974      2.03180614776401      1.22252386188572
  O   -0.66685844930973      3.04193674278353      1.12021859514780
  O   0.33174190207865      1.49779378963467      2.28534552228027
  C   0.14574707126606      2.11821926371170     -1.27509368645478
  H   0.70846049315369      1.71448616246060     -2.11865531915848
  H   -0.91699306768098      1.92914633588071     -1.42589402274758
  H   0.31153216985360      3.19411176771912     -1.22203193988840
