13
Coordinates from ORCA-job run
  C   0.61811094463874     -0.06605512987638     -0.04705921405161
  H   1.69854874790080      1.78059770859908     -0.02433705722116
  Br  -1.86443792879701     -0.12051516453447     -0.04243301697779
  Cl  2.87456412963504     -0.33428475108418      0.29929750452457
  C   0.65525770612937      1.45248419182332     -0.05697201104061
  H   0.49720389765994     -0.58713724280221      0.88342359837977
  C   0.66163301457637     -0.75640310827539     -1.29961783014012
  N   0.72754116976520     -1.29905599004043     -2.34294240297536
  N   0.07802455227679      2.00686319927890      1.23158020889750
  O   -0.46541043592404      3.10248756403020      1.17096404596980
  O   0.29776642877430      1.35961769991730      2.24475355245201
  C   0.02119677834268      2.07477834853232     -1.21274240183879
  N   -0.35628900497816      2.63086267443195     -2.17617497597823
