13
Coordinates from ORCA-job run
  C   0.33737549189934     -0.01488304871142     -0.10265709882675
  H   1.46512577033091      1.72466524335415     -0.43634286919728
  Br  -1.81961861306120     -0.35338012322080     -0.59650368596641
  F   2.26239985593471     -0.04332964098561      0.68868788520133
  C   0.45227232451086      1.49874925230346     -0.10713742349634
  H   0.28971672297356     -0.53754999248233      0.83451107216712
  H   -0.26496067615235      1.93001065775450     -0.81004196458332
  C   0.97203017368497     -0.72847309681790     -1.18499052640313
  N   1.41517048329645     -1.27710360634254     -2.12646961492107
  C   0.24892488478744      2.03958748465015      1.29907912465236
  H   -0.73960780287648      1.76902585666793      1.68188008788268
  H   1.02435691484576      1.60005427726577      1.92539427739675
  H   0.33607446982600      3.13066673656465      1.32300073609404
