14
Coordinates from ORCA-job run
  C   0.58584223876548     -0.04399329600154     -0.02204739223712
  H   1.62861500926833      1.78186626580312     -0.28203595150387
  F   -1.18237248939704     -0.11008385969922     -0.28994243554469
  F   2.28775538017440     -0.11002358139275      0.41376770448388
  C   0.59734229956681      1.47712477731594     -0.09592989852475
  H   0.38072829738547     -0.54888472424012      0.90410077996371
  C   0.81666799978417     -0.82206630601523     -1.22247229076889
  N   1.02069038189096     -1.44606705883155     -2.19611413436285
  C   0.13441068408785      2.04337593181605      1.24530239423608
  H   -0.87688871796731      1.68776634109354      1.44075736623317
  H   0.81372608845272      1.68424230630171      2.02116599606480
  H   0.14412685368771      3.13647348566457      1.24124165897264
  C   -0.22157956879341      2.01598104823143     -1.18753765520987
  N   -0.78713445690616      2.58409866995405     -2.04577614180223
