11
Coordinates from ORCA-job run
  C   0.56623830837185     -0.04936659340226     -0.03968575969241
  H   1.54847861591240      1.82251185594118     -0.41291761217988
  Br  -1.87855933369405     -0.26132844455895     -0.17871509729567
  Cl  2.83921311787754     -0.21833082210708      0.53253045952711
  C   0.57561165016784      1.47049842678306     -0.06801904612546
  H   0.44111755916390     -0.61318898724088      0.86347383350713
  H   -0.19605935475435      1.83108982314030     -0.74942301627166
  C   0.77656312900852     -0.72454788520693     -1.28703987122471
  N   0.95282401217333     -1.22542445834003     -2.33817144915002
  C   0.32400709923933      2.03681680367207      1.25318988266327
  N   0.13132519653368      2.53252028131951      2.29899767624231
