12
Coordinates from ORCA-job run
  C   0.50102850283865     -0.06481879634779     -0.00976404084272
  H   1.81740429710498      1.64074239523947      0.31963617408551
  F   -1.12073234893327      0.07034325422534      0.07262195732204
  H   2.35363036270724     -0.37911802728158     -0.14485650717068
  C   0.78361722792073      1.42199456539696      0.07804813401502
  H   0.67567604240000     -0.65967691198417      0.87205384290881
  H   0.46711088852238      1.92021441995360     -0.83583307906657
  C   0.66683523280513     -0.70243818080940     -1.28668531360358
  N   0.57820628739509     -1.19559833972978     -2.35690238896115
  N   -0.02979614284782      2.03149595120967      1.17505845134584
  O   -0.68766197097085      3.03841316283343      0.91714918381746
  O   0.07572162105775      1.53091650729424      2.29114358615003
