13
Coordinates from ORCA-job run
  C   0.42616472247757      0.00015531802182     -0.13283112045911
  H   1.67731183660653      1.71561139802896     -0.25615667425412
  Br  -2.03383400903880      0.10263326870886     -0.62876422447504
  Br  2.63558265579472     -0.65533521948709      0.86874185818451
  C   0.63331093442551      1.49671141002448     -0.02465211825665
  H   0.06735249572398     -0.59719219294484      0.68341749552286
  H   0.01391906777802      1.98312605193325     -0.78024508032661
  C   0.72295850385716     -0.64234863805233     -1.38156198564772
  N   0.98446964518520     -1.10771079243568     -2.43211039199831
  C   0.27870337432630      2.01207943153171      1.36114157443920
  H   0.91560754643899      1.53946841558505      2.11121743433779
  H   0.42562933405916      3.09476184456912      1.41593728310951
  H   -0.76791610763432      1.79607970451668      1.58427594982370
