12
Coordinates from ORCA-job run
  C   0.65150213547089     -0.00243239890549     -0.06241413317959
  H   1.74250515784179      1.81417514000468     -0.13006396457254
  Br  -1.81513242526857     -0.14816897076161      0.20450662688902
  Cl  3.00772049711541     -0.37214150002012      0.26955491621387
  C   0.69816213687659      1.51396329372901     -0.06829780912707
  H   0.63267730953385     -0.56337759352544      0.85054795833881
  H   0.29643148706900      1.84076179090584      0.90005398601209
  C   0.67714697636968     -0.71566811523969     -1.30772474113841
  N   0.68166952881352     -1.29414721972439     -2.33325367533551
  N   0.01295153577348      2.06387199693476     -1.23087788336504
  H   0.16323614289222      3.06456229903911     -1.25556278279816
  H   -0.97966048248787      1.88641127756335     -1.13323849793747
