12
Coordinates from ORCA-job run
  C   0.41714765454229      0.00352431637238     -0.02307769733947
  H   1.96385201205654      1.49486419403383      0.06264134649584
  Cl  -1.66593269113035      0.32657722094725     -0.20411087995592
  H   2.05627639977285     -0.72602994579871     -0.19148149321499
  C   0.87687280099884      1.44728496613227      0.12508241593819
  H   0.38758195124503     -0.56981129872751      0.89759485797257
  H   0.45273381360601      1.99720522458038     -0.72685175162274
  C   0.98079592247271     -0.72611275319314     -1.15664879829274
  N   0.95618820232228     -1.16327273328059     -2.27086443077617
  N   0.47031253234203      1.98004552786347      1.42973233334782
  H   -0.54213270378413      1.92559719033010      1.46076265127570
  H   0.71303410555590      2.96427809074027      1.46269144617190
