14
Coordinates from ORCA-job run
  C   0.32858688192368     -0.06940205536059     -0.06953299363317
  H   1.56293766034723      1.61806878407628     -0.30804737855064
  Cl  -1.59028396841086     -0.35688041348022     -0.19561984982884
  H   2.44571321278309     -0.18348584665742      0.17138185444661
  C   0.50277138531143      1.45831120196181     -0.10153999756162
  H   0.55899806896178     -0.49118555715759      0.89880001341635
  C   0.99857767595353     -0.78265993715785     -1.14415978959541
  N   1.13496078050993     -1.38620733450458     -2.15547563207661
  C   0.16965591310903      2.07236207106836      1.25614697228543
  H   -0.84611288258621      1.81270718448627      1.55885362685221
  H   0.87893725749202      1.67813484684112      1.98815036276371
  H   0.26094365482317      3.16082521316159      1.22529371935389
  C   -0.25999548632055      2.09706213402031     -1.17591904085619
  N   -0.80376015389725      2.70215970870251     -2.02385186701571
