11
Coordinates from ORCA-job run
  C   0.40782239772699     -0.04866521906719     -0.05284140607088
  H   1.54438260329163      1.68731832243611     -0.43097863036661
  Br  -1.80163286381739     -0.30948334578282     -0.24430907851922
  F   2.40187414050981     -0.05181550409179      0.36741155961982
  C   0.54222212227671      1.46684249967477     -0.06799090066311
  H   0.48518372734527     -0.57936767245961      0.87707731178845
  H   -0.21545525177060      1.92802516487962     -0.70494413800520
  C   0.85563457535944     -0.73258260037763     -1.24051367410532
  N   1.13141088766695     -1.26325040360094     -2.25325950378322
  C   0.41869368258985      2.01397627458339      1.27884927506993
  N   0.31062397882134      2.49025248380607      2.34571918503538
