14
Coordinates from ORCA-job run
  C   0.64997370253138     -0.01125793963005     -0.04396974554447
  H   1.73970663995776      1.86267816925436      0.09369760655546
  F   -1.26212941582285      0.20435080228058     -0.10553265722957
  Cl  2.77798222031333     -0.43969410573349      0.19812831173966
  C   0.72045028055794      1.50644211137595     -0.05499858166364
  H   0.43873394938623     -0.52145415436071      0.87534388782098
  C   0.51679080829107     -0.71847599762558     -1.29134425375528
  N   0.42420652716237     -1.31876008003717     -2.29766441699407
  N   0.01441594740726      1.97857515270992      1.24024306555316
  O   -0.66055144070489      3.00150528001896      1.16423346068375
  O   0.25792104134270      1.37379478138080      2.27732450921902
  N   0.15834290856202      2.05590782097929     -1.22733384550406
  H   0.14697630021956      3.06423320128146     -1.17029767193136
  H   -0.78935946920388      1.69246495810570     -1.27221966894958
