15
Coordinates from ORCA-job run
  C   0.56949832647571     -0.02971801259682     -0.05802074568563
  H   1.62090808336497      1.78222064477116     -0.43576072220000
  Cl  -1.83031844438449     -0.14917345861319     -0.17751959715544
  Br  2.86496031271947     -0.30316720790796      0.64821836303203
  C   0.62080883772330      1.48931844146278     -0.11316464279953
  H   0.31543480049800     -0.51325636332136      0.86561195351665
  C   0.70124095634092     -0.84466829873169     -1.23039876781155
  N   0.84159702819953     -1.54282400906317     -2.16852416157831
  C   0.28233114392699      2.09682036244991      1.22806091141530
  H   -0.74104741056113      1.84197154968126      1.49982036699354
  H   0.97934303243374      1.69482736219840      1.96531989069878
  H   0.38371309327493      3.18143616494956      1.19688988594091
  N   -0.24037026768748      2.06306762666504     -1.21973405041438
  O   -1.00255087079660      2.98455519083193     -0.94712545777067
  O   -0.02397862152785      1.62987000722416     -2.34615322618169
