14
Coordinates from ORCA-job run
  C   0.45887953828608     -0.05672403987493     -0.05760994634578
  H   1.57003990897729      1.66691249552485     -0.37608406156046
  Br  -1.79084914080426     -0.44219183608236     -0.27812108132117
  F   2.36605651434971      0.01996073812864      0.51247890998000
  C   0.52407050733737      1.46503267911470     -0.13677384162877
  H   0.45345461417360     -0.53650531098091      0.90151598173988
  C   0.92347512297416     -0.81491802658858     -1.18974241796078
  N   1.26894037477975     -1.40971810343552     -2.14405042965794
  C   0.22284977772947      2.06797255476875      1.23224684150784
  H   -0.78408463531633      1.79651548288954      1.55518552361265
  H   0.96501142725447      1.66495577151014      1.92195498887818
  H   0.30594348281856      3.15714773834136      1.20512388741322
  C   -0.29277723633411      2.07289074455799     -1.19110138059771
  N   -0.84908025622578      2.67847911212631     -2.03054297405913
