16
Coordinates from ORCA-job run
  C   0.44204234340830     -0.05070020029588     -0.04099954068585
  H   1.62469467363536      1.59490697239910     -0.31185677264284
  Br  -1.78821436801946     -0.46753290060976     -0.26806728580502
  F   2.40720316719020     -0.10126928883517      0.56600167464971
  C   0.55685414855369      1.46485050572880     -0.12934340817954
  H   0.46798336628995     -0.53883078224822      0.91380082293135
  C   0.93090460429233     -0.80764179823252     -1.16699527461797
  N   1.26641948013674     -1.37603889883486     -2.14122539145227
  C   0.24396972097100      2.07264398031367      1.22940251257728
  H   -0.78673086379932      1.85455058323967      1.52502243656341
  H   0.93491263620769      1.65090629756256      1.96156345074003
  H   0.37439749933700      3.15991452785851      1.20752252569065
  C   -0.21945109061999      2.12185175509125     -1.26599149378822
  H   -0.08971780313703      1.57445236728706     -2.20343756288255
  H   -1.28738997112658      2.17586970292273     -1.05259722553292
  H   0.16118245668012      3.13915717665307     -1.41147946756525
