15
Coordinates from ORCA-job run
  C   0.39599166568779     -0.02969168831466     -0.05671676478693
  H   1.61339631986957      1.53949531387994     -0.63958897473899
  Br  -1.79333361560328     -0.51180026532445     -0.76821122462591
  F   2.15745266854324     -0.06115993636944      0.89495781456258
  C   0.60271229060769      1.47642082635671     -0.21495510853408
  H   0.12112680292901     -0.43125998054570      0.89922583017669
  C   1.03780458677311     -0.89175123300520     -1.01529063217602
  N   1.54910247965052     -1.54713866057393     -1.84796127598400
  N   0.55899291036491      2.03209768921442      1.13747444626008
  H   0.80743330683000      3.01497402845166      1.08487388541931
  H   1.31564412208026      1.53640633771954      1.60620813315472
  C   -0.34094206769032      2.23886592347025     -1.12935932512918
  H   -0.39913537594805      1.78025303196597     -2.11737501508917
  H   -1.34128305660867      2.27630728424695     -0.70200295955600
  H   0.04156696251422      3.26118132882793     -1.24289882895308
