13
Coordinates from ORCA-job run
  C   0.59974191574853     -0.03269831235687     -0.06398142010480
  H   1.68666727230771      1.77932111046167     -0.19040303530369
  Br  -1.85681268243054     -0.21721422730302     -0.00050366483146
  Cl  2.90768471999368     -0.28294864476969      0.43508237587114
  C   0.64002199739744      1.49361234135844     -0.08082708005548
  H   0.51595634624181     -0.58913312914379      0.84854765377152
  C   0.72885086668636     -0.72328528027716     -1.31295969173949
  N   0.83009165130065     -1.28436986020786     -2.34332050270034
  C   0.20234810840604      2.01673603412131      1.23092711240600
  N   -0.10025026300408      2.53715324426789      2.24014955600920
  N   -0.06242891062881      2.05495940655186     -1.22193543819857
  H   0.09624285101602      3.05481512680657     -1.24604139594339
  H   -1.05493387303480      1.87214219049064     -1.12657446918064
