13
Coordinates from ORCA-job run
  C   0.42627222331856     -0.03175675486040     -0.05489150039373
  H   1.70716979794338      1.69394533996420     -0.15464467950015
  F   -1.18370761340085     -0.00138969448125     -0.15035696089385
  H   2.33856534995051     -0.29863974069489      0.14539102736233
  C   0.64573199633377      1.48729832618390     -0.06327977033226
  H   0.51496211261985     -0.55419987073627      0.88190251070264
  C   0.84436138909625     -0.76508528979562     -1.22298599684652
  N   0.90880907073782     -1.37406290255217     -2.23474379366324
  C   0.19390315535564      2.02624883243684      1.24119312823485
  N   -0.16741075558141      2.53458515340577      2.23719950358443
  N   -0.05804025132849      2.08390809365714     -1.19350917063830
  H   -0.01361866688713      3.09333016158256     -1.12690409669913
  H   -1.02381780815791      1.78490834589021     -1.13621020091710
