14
Coordinates from ORCA-job run
  C   0.40107475860052      0.00197575944357     -0.07079177690042
  H   1.56229048636778      1.64969937930639     -0.58121756732663
  Br  -1.85313427342574     -0.42608303906803     -0.53945390128597
  F   2.21817989817398      0.01425190041865      0.74783963006672
  C   0.55443578807252      1.51948197421949     -0.17505227367259
  H   0.23128132068344     -0.45757963452099      0.88243439613226
  C   0.94965338887480     -0.79771291779611     -1.13402703146946
  N   1.39253985672346     -1.42404314690068     -2.02553782146057
  N   0.46555407817841      2.01425495106044      1.20329681586453
  H   0.69829752239264      3.00302370679852      1.19173260515133
  H   1.23239740115421      1.52590147794685      1.66408952719688
  N   -0.34702700382749      2.16822262950419     -1.10043013929056
  H   -0.09243781347219      3.14839898239333     -1.15529766850903
  H   -1.29395540849633      2.09219797719438     -0.74817479449648
