14
Coordinates from ORCA-job run
  C   0.49052357952518     -0.02696699043134      0.01961524574212
  H   1.64059728750077      1.63765973200839     -0.60743107300120
  F   -1.26108204460405     -0.00298486374805     -0.65606270533708
  F   1.99527289724910     -0.17521731927017      0.75600529415226
  C   0.66960851880247      1.47193597953031     -0.12849099894853
  H   -0.03045054605360     -0.39889522526272      0.88228640967980
  C   0.78265647035281     -0.90627548362688     -1.09161330937750
  N   1.09428847767211     -1.64616231215308     -1.94876613213474
  N   0.53117402644612      2.07248489698879      1.17411625009787
  H   0.74513483994999      3.06082834203624      1.12098487604287
  H   1.23758923414455      1.61381736876996      1.73810331052350
  N   -0.28440411902713      2.11669287579750     -1.10342140142756
  O   -1.13564883187924      2.89182467386869     -0.68658947992487
  O   -0.04621979007908      1.88864832549235     -2.28415628608693
