15
Coordinates from ORCA-job run
  C   0.57487991461754      0.00169893411671     -0.07144213404095
  H   1.61200020740250      1.81192531015012     -0.29093658901341
  Cl  -1.75998578017803     -0.30267678207924     -0.13621358856190
  Cl  2.84206300238998     -0.22778731399234      0.58473223203350
  C   0.57785215899182      1.52437670147299     -0.09960392576762
  H   0.44780802673281     -0.55491639501300      0.83534593478843
  C   0.77786418841337     -0.71441193886546     -1.29847489808718
  N   0.94955691205409     -1.28650006429018     -2.31263293242171
  C   0.17778577904703      2.06572187057031      1.27016618700530
  H   -0.84731271286619      1.77490455904744      1.50569944620172
  H   0.85240322025321      1.68430346322216      2.04118023795161
  H   0.24372103939395      3.15864649825523      1.26712309131967
  N   -0.18442899100767      2.03005744017838     -1.23664589477244
  H   -0.06748470162615      3.03571558763309     -1.27510483881159
  H   -1.16504226361827      1.81482212959379     -1.10084232782343
