15
Coordinates from ORCA-job run
  C   0.51595239815544     -0.02573320106301     -0.04223393980753
  H   1.67035061900546      1.62970603794378     -0.54887480033964
  Cl  -1.79763232936628     -0.42563110982339     -0.60996486304191
  Cl  2.57671524517328     -0.31267323118593      0.99281524279320
  C   0.65305458464977      1.48464515678428     -0.15984031396960
  H   0.12486229602989     -0.49016815650196      0.84109266630241
  C   0.89464428998135     -0.81193146254040     -1.18075282590354
  N   1.25331309216500     -1.37877962644541     -2.14861992856835
  N   0.48334848621401      2.05997466018447      1.17069256626432
  H   0.57382623205302      3.06715332410616      1.09541281108172
  H   1.24892767832092      1.72331818124872      1.74560419593082
  C   -0.29752278966598      2.16118254718352     -1.13685378928781
  H   -0.31794781089842      1.64095292609034     -2.09458041820091
  H   -1.30600890267342      2.17278388108464     -0.73219944845684
  H   0.05064691085596      3.18840007293417     -1.30331715479633
