13
Coordinates from ORCA-job run
  C   0.63091562230666     -0.01522725648296      0.00820217481691
  H   1.60395328268509      1.85602617903441      0.26758796927094
  Br  -1.76178358700893     -0.30904796068824      0.63809008196568
  Cl  2.97872047962658     -0.22791502040535     -0.31207896167326
  C   0.60872869579370      1.50518477324899     -0.00241831298600
  H   0.82445051968830     -0.56111303304214      0.91323040315841
  H   -0.08824520194471      1.83540514500820      0.76756648398187
  C   0.42293237564362     -0.76187280475585     -1.20170301943115
  N   0.24110299628873     -1.32443657183650     -2.22068723570942
  C   0.20455356115089      2.07511243111556     -1.35327121726928
  H   0.91133349296445      1.76975926491795     -2.12759450777845
  H   -0.79225457730480      1.72909927741936     -1.63325546632364
  H   0.19218234011041      3.16804557646658     -1.31146839202261
