14
Coordinates from ORCA-job run
  C   0.41876695953016     -0.02050150629457     -0.04186454141972
  H   1.73825739982688      1.69758721360931      0.10684932868350
  F   -1.18370809072214      0.08731764014708     -0.00365145026381
  H   2.33432390991794     -0.33186734748863     -0.14421631074938
  C   0.68496132922527      1.47844561157199     -0.03775995326798
  H   0.61093098417518     -0.54102562982608      0.88228939004376
  C   0.69602882961890     -0.74745750424622     -1.25116337186640
  N   0.60796837813128     -1.35397307787165     -2.26428947895476
  N   0.03156617744890      2.01691107951522      1.26341604790653
  O   -0.66559413151574      3.02762429744074      1.18230715462496
  O   0.31860073052066      1.45068226462131      2.31310442969649
  N   0.16233615113746      2.09186270986405     -1.19993008694078
  H   0.17225706700656      3.09763713216985     -1.10596091215207
  H   -0.79323569430133      1.77706711678761     -1.31352024534032
