15
Coordinates from ORCA-job run
  C   0.55873238388310     -0.03328718929363     -0.05274849614531
  H   1.62216636518582      1.76560795843461     -0.43289347977905
  Cl  -1.80039482730586     -0.16328588437467     -0.21009979113914
  Cl  2.73069023959723     -0.24657688068745      0.62242487833906
  C   0.61914725747674      1.48422048258545     -0.11074060156293
  H   0.31851236377153     -0.51692642580662      0.87384119938390
  C   0.72954392752507     -0.84871658885346     -1.22011686176731
  N   0.90028485410380     -1.54416515178720     -2.15441073076563
  C   0.28509876767752      2.09420961253792      1.22974675292438
  H   -0.74115473878252      1.85070393431610      1.50145563245723
  H   0.97718668986910      1.68411002859675      1.96673403654645
  H   0.39759125095429      3.17775949795050      1.19990538283880
  N   -0.23705162128093      2.06242476297995     -1.21707302336980
  O   -1.00173267326230      2.98202526156288     -0.94413297591723
  O   -0.01705023941260      1.63317658183888     -2.34437192204340
