15
Coordinates from ORCA-job run
  C   0.40356956844479     -0.03172548073178     -0.05503257396790
  H   1.61000843510400      1.55008813443213     -0.63221203168587
  Cl  -1.63921438161027     -0.44941803686845     -0.81844601411497
  F   2.11374947706248     -0.07982836611599      0.89016575435035
  C   0.59977459393062      1.47533086314176     -0.20806069164907
  H   0.07795969226290     -0.43941938546002      0.88198528038483
  C   1.04311737528009     -0.89191940658933     -1.01844802322220
  N   1.55864019132718     -1.54571349306694     -1.84876711396831
  N   0.54698897176454      2.02977104406402      1.14504899539361
  H   0.79061344795332      3.01383292756056      1.09508316653234
  H   1.29883804723351      1.53899345062690      1.62409751247392
  C   -0.34939282713335      2.23060843693098     -1.12185730858741
  H   -0.41903248023842      1.75905737572447     -2.10229969480233
  H   -1.34593898823634      2.27450359412243     -0.68691290070069
  H   0.03684887685495      3.24903834222925     -1.25596435643630
