12
Coordinates from ORCA-job run
  C   0.62122612998534     -0.04752989457022     -0.02412347214489
  H   1.85434988685552      1.60819180341017     -0.58659018249285
  F   -1.15497129659624      0.14820495125374     -0.22124930496108
  F   2.29448845587196     -0.30375743758099      0.34430475027610
  C   0.86050364658956      1.43684539272025     -0.18090063315703
  H   0.37196927338641     -0.46044612801469      0.93548550310749
  H   0.74165228330522      1.92226703450314      0.78362130980450
  C   0.65821483545648     -0.92837549815922     -1.17495633282518
  N   0.71987024538110     -1.66753572700629     -2.08496807228326
  N   -0.08232246679732      2.12124624891173     -1.10985723223536
  O   -0.77074576567084      3.03674123416494     -0.66340141020596
  O   -0.03513522776720      1.78735802036743     -2.28896492288248
