15
Coordinates from ORCA-job run
  C   0.42152972501971     -0.04476041804382     -0.04822467640221
  H   1.60246605014309      1.63713051846699     -0.46669708335987
  Cl  -1.71187765400122     -0.22910932438055     -0.33536443078074
  F   2.26515780728129     -0.06551023612248      0.54907204763275
  C   0.58328491101195      1.46337610290676     -0.12781298937420
  H   0.31357719094236     -0.50190918478072      0.91589733313000
  C   0.84005818979638     -0.88363113424226     -1.14226569589104
  N   1.15861753880628     -1.58954025009551     -2.02661220298175
  C   0.33923839056293      2.09609575640795      1.21971595392396
  H   -0.67788891689922      1.89545625579612      1.55805467370143
  H   1.06500769705175      1.64658447151695      1.89695365993119
  H   0.48966497622764      3.17553097214343      1.18368880981206
  N   -0.26073123334682      2.09142559920460     -1.20829322087518
  O   -1.03906431514922      2.99443887624842     -0.90975366204696
  O   -0.04747035744691      1.69570199497410     -2.35083851641943
