15
Coordinates from ORCA-job run
  C   0.59308301902747     -0.05186346106990     -0.00684052399773
  H   1.70703413245861      1.75354624253594      0.09690302702272
  Cl  -1.73869716630243     -0.12076842022624      0.21426433640297
  Cl  2.87684296541670     -0.40980083763495      0.01257585053806
  C   0.66426713611452      1.46659137398495     -0.04214435655020
  H   0.58479801155769     -0.57137451048769      0.93248996447139
  C   0.47404980032518     -0.76671873584629     -1.24438369656468
  N   0.39431087484518     -1.30694163357403     -2.28741990269092
  N   0.01688089496119      2.01759032439527      1.20661229010493
  O   -0.65976936721547      3.03661242983145      1.10714019517415
  O   0.30367522703258      1.45990187508862      2.25999991376473
  C   0.12195259920666      2.10331198479982     -1.30034636543587
  H   0.70286950859543      1.73833294466161     -2.15012963909265
  H   -0.92602354615845      1.84685009306843     -1.44180127462915
  H   0.22556591013515      3.18625033047299     -1.24233981851774
