14
Coordinates from ORCA-job run
  C   0.57915883794451     -0.02018281215697     -0.05806958765685
  H   1.70275331342641      1.80395701059975      0.03243325577914
  Cl  -1.76011201240066     -0.02696509060736     -0.01458306500660
  Br  3.00894355072626     -0.44208959143568      0.27444866216075
  C   0.66265997435096      1.49701884426604     -0.07255705757314
  H   0.49818005586426     -0.55164783329079      0.87051022332609
  C   0.60032564939056     -0.72004708172894     -1.30745219169757
  N   0.59836380778754     -1.28919410172947     -2.33847111901614
  N   0.04968382889842      2.01212450289304      1.25266800232245
  O   -0.55874887810625      3.07739622912127      1.19888427941962
  O   0.30958242502902      1.39136514915280      2.27566152567925
  N   0.10841021237591      2.08119908885601     -1.23061442026806
  H   0.20537047980827      3.08575148011859     -1.19623081313134
  H   -0.87111124509519      1.83162420594170     -1.30101769433759
