14
Coordinates from ORCA-job run
  C   0.50788636569432     -0.06437956321329      0.03571646274461
  H   1.70722610362484      1.72490790760105      0.10491135051610
  F   -1.10133154895526     -0.09686944105801      0.32447394524653
  H   2.33136827614556     -0.21283618102770     -0.34518555246263
  C   0.65390715449346      1.46651948339689      0.02246982966424
  H   0.83967253411697     -0.59793955761865      0.91303621644690
  C   0.57845456408726     -0.78372130185001     -1.20761634149880
  N   0.40502642555251     -1.36650073273232     -2.22178876344573
  C   -0.02736794742477      2.05075360970324      1.18467496866467
  N   -0.48869119396578      2.60363306055061      2.11294261041188
  C   0.08521290139517      2.05107691954801     -1.26988358576434
  H   0.67020374902804      1.68408946705775     -2.11553811514807
  H   -0.94890771100312      1.72844991117545     -1.38690579605862
  H   0.12790032721080      3.14311641846699     -1.25417722931673
