13
Coordinates from ORCA-job run
  C   0.63433208244278     -0.01891550760623      0.03755012718200
  H   1.45047380137256      1.88138404997217      0.44580548366918
  F   -1.03105181560920     -0.28595699952855      0.66255609770958
  F   2.31597982591616      0.02114214598271     -0.58134677486562
  C   0.52002563144963      1.49249998999273      0.02859325756351
  H   0.99859787965682     -0.53067941707652      0.90994411264412
  H   -0.31370178652760      1.76925369924052      0.67233292453294
  C   0.25877710405258     -0.80820894916704     -1.12119429900420
  N   -0.04951658171865     -1.41195560917934     -2.08043384728671
  C   0.33140429387966      2.05467296628566     -1.37315454212513
  H   1.16560854241038      1.73820089364304     -1.99911744897498
  H   -0.59836388279711      1.68831840773803     -1.81462174382117
  H   0.29402490547199      3.14926432970280     -1.35471334722351
