12
Coordinates from ORCA-job run
  C   0.54252702057874     -0.01629885480847     -0.03393545585655
  H   1.74142495580045      1.66884554017252     -0.08940190456831
  Cl  -1.56573958633459     -0.18053799532889      0.16275360957523
  F   2.56776269153028     -0.19845742333743      0.05744529867211
  C   0.67049729868603      1.49017012927723     -0.04870148355631
  H   0.73925982993376     -0.54450343747516      0.87792605862702
  H   0.27043117217031      1.85425375106990      0.90899385212846
  C   0.72582791036025     -0.74662740902129     -1.26493309555955
  N   0.78367048846700     -1.35146661889081     -2.27122662779348
  N   0.02970186570656      2.07833834058262     -1.22000961467039
  H   0.23668645289701      3.06886399937870     -1.24158158542176
  H   -0.97284009979581      1.96522997838107     -1.13409905157647
