15
Coordinates from ORCA-job run
  C   0.64664829460828      0.03131333166367     -0.04916320987321
  H   1.68005224457703      1.88948376629784     -0.23128390314074
  F   -1.31245438958620     -0.01013172261073     -0.20843615203414
  Cl  2.74833801256114     -0.30949130018314      0.51663272922687
  C   0.65126341514642      1.55736191113867     -0.08618728096303
  H   0.35882451578040     -0.49755095246392      0.83785435403878
  C   0.68852783390451     -0.71178881996237     -1.28470833475786
  N   0.74917862727230     -1.32929337105807     -2.28323988271651
  C   0.14359394303488      2.05806752032721      1.26442873282607
  H   -0.87163342150084      1.68475716477474      1.40069171348627
  H   0.78180187354163      1.70288159027253      2.07949028061813
  H   0.13930839805217      3.15346696384983      1.28619321581108
  N   -0.11940774647185      2.01501521660947     -1.23974562353056
  H   -0.22727965474750      3.02103637067581     -1.17696422076360
  H   -1.02508194617236      1.56075233066845     -1.14321241822755
