16
Coordinates from ORCA-job run
  C   0.68978624815095     -0.00505315782198     -0.00260117611753
  H   1.70851132762847      1.85575175499153     -0.19865676091111
  F   -1.31004946618968     -0.07726596321425     -0.09150116142128
  Cl  2.76510288792146     -0.35497941970290      0.44475794095096
  C   0.67467435981182      1.52230780372744     -0.08404351945592
  H   0.39396172971681     -0.50176632392294      0.90085394743294
  C   0.62564840750797     -0.77489290398562     -1.22115558718789
  N   0.63572734152206     -1.36684188135038     -2.23743373483477
  C   0.12476877992539      2.05608879192989      1.23294147089916
  H   -0.88588587730673      1.66685347183295      1.35277144342986
  H   0.74490142108622      1.72498792585827      2.07168426472554
  H   0.10715816544006      3.15114793067446      1.23393828679055
  C   -0.11807394648147      2.04723315549756     -1.27845008755441
  H   0.27833021689333      1.65017594223118     -2.21718340826112
  H   -1.15417247938315      1.73319492453825     -1.18176210199750
  H   -0.04132911624351      3.14014794871657     -1.31283981648745
