16
Coordinates from ORCA-job run
  C   0.46291614580195     -0.05014671514069     -0.04395597083726
  H   1.61705280635896      1.62466563162672     -0.33420040640443
  Cl  -1.64215901849417     -0.40973054416716     -0.32346951992434
  F   2.36641673242419     -0.10042699513733      0.56192742777403
  C   0.55731846450834      1.46690292207580     -0.13137645011009
  H   0.42845872554922     -0.54714906667065      0.90525586837438
  C   0.94421083376414     -0.80652240634057     -1.17420106760690
  N   1.28338782177556     -1.37358693281745     -2.14717332158243
  C   0.25277083858093      2.05981107284239      1.23583230345534
  H   -0.76947551798575      1.81794207650879      1.54171390184706
  H   0.95992795793280      1.64563414698453      1.95644618275286
  H   0.35982315625602      3.14977493084172      1.22108154609018
  C   -0.25038721297689      2.11801788090336     -1.25009244090335
  H   -0.14191097518759      1.56842280669573     -2.18850011395323
  H   -1.31262304355799      2.16696850394769     -1.01209385099162
  H   0.12333228525029      3.13651268784713     -1.40587408798021
