14
Coordinates from ORCA-job run
  C   0.46956641821281     -0.05657896578752     -0.05102618032460
  H   1.56683484288069      1.68160538327382     -0.38285803004702
  Cl  -1.65207998366464     -0.37418988473983     -0.32288071582769
  F   2.32100141061623     -0.00568119218403      0.52250689572537
  C   0.52632125633801      1.46352143153834     -0.13693445781520
  H   0.40821967363734     -0.54009231814525      0.90387797459167
  C   0.92261403341739     -0.82320757181521     -1.18396582001731
  N   1.26802974065778     -1.42251730236970     -2.13461413177024
  C   0.21818867664512      2.06404113414657      1.23164167945294
  H   -0.79107891833959      1.79102925125127      1.54512398326561
  H   0.95339932520123      1.65888752405330      1.92738476188480
  H   0.30139899703381      3.15323563685238      1.20840658666675
  C   -0.30144140102528      2.06435536009721     -1.18738784281470
  N   -0.86904407161088      2.67540151382865     -2.01479470297040
