13
Coordinates from ORCA-job run
  C   0.62279528624977     -0.01948066027818      0.01176371493922
  H   1.52723297306646      1.86721052276173      0.37011410806065
  Cl  -1.59547789457623     -0.35145131964567      0.71537046478300
  Cl  2.92171727774140     -0.14004757816134     -0.47768493054027
  C   0.56463043359606      1.49861026506209      0.01750923020007
  H   0.88284653968115     -0.56771652945934      0.89829302995562
  H   -0.20046085666095      1.80657995972055      0.72877303947726
  C   0.34007617057375     -0.76460159618676     -1.18487249977549
  N   0.10139859535824     -1.32916643979362     -2.19007324583769
  C   0.26011358025796      2.07358888901845     -1.35686293314488
  H   1.02830341094483      1.77861719990416     -2.07395868334739
  H   -0.70877595624029      1.72084699084684     -1.71613859212091
  H   0.23219044000783      3.16603029621108     -1.31003270264918
