14
Coordinates from ORCA-job run
  C   0.53914142286378     -0.07090212688242      0.01092024905482
  H   1.71458704015130      1.61771289844760      0.02470895317246
  Br  -1.72260692036814     -0.35733735765213      0.30643223859511
  F   2.52559957994232     -0.13975072302028     -0.14308117797413
  C   0.63473665559582      1.45409933872710     -0.00825340103145
  H   0.77112269580405     -0.60136508198950      0.91594469351013
  C   0.63318346577661     -0.77978307389524     -1.23927239508465
  N   0.63461414001202     -1.32593072743103     -2.28153777802566
  C   0.06519535137719      2.06352601458888      1.19413681547504
  N   -0.31242442664315      2.63987682591174      2.14580066502819
  C   0.06288499309646      2.09002989131105     -1.27343758403882
  H   0.58310837544629      1.68829077634899     -2.14475162422404
  H   -1.00294785611443      1.87997039847899     -1.36563876964511
  H   0.21436548305988      3.17186294705624     -1.24484088481188
