11
Coordinates from ORCA-job run
  C   0.69323009481980     -0.04560513904799     -0.04307952804603
  H   1.70371568383666      1.85807803431595     -0.03297528232740
  Cl  -1.64456332547790     -0.12564595223328      0.19081562655260
  Cl  2.97075087433513     -0.30465010098835      0.15171069740381
  C   0.68263413015755      1.47767591854575     -0.05785848489493
  H   0.65311492637563     -0.57936106774766      0.88552697403803
  H   0.15071802233927      1.82196589779581      0.82942049794889
  C   0.64909151382476     -0.77922337373699     -1.27420010021691
  N   0.62167265967471     -1.35645598419454     -2.29975004122012
  C   0.02479617969073      2.04874644426000     -1.23166617526137
  N   -0.42570075957634      2.58621532303129     -2.17258418397658
