13
Coordinates from ORCA-job run
  C   0.52144814791421     -0.06669443971697     -0.02210815390811
  H   1.72919404174030      1.64649069347165     -0.42977407270076
  F   -1.21698781808058      0.08813672400784     -0.41371070967777
  F   2.14615941438616     -0.23422686267584      0.50561737203793
  C   0.70486671174825      1.44222123434603     -0.11914451361180
  H   0.18576880977526     -0.51329997229402      0.89602602251316
  C   0.72085415933387     -0.89870994972497     -1.19107714157953
  N   0.90576809909840     -1.61252283137959     -2.10464642899296
  C   0.45574517063183      2.05674596067759      1.17909342053229
  N   0.30941929936318      2.54623731773200      2.23560635333834
  N   -0.15585116782766      2.09247711315526     -1.17626401488696
  O   -0.98952224916367      2.92333492971143     -0.84174502326444
  O   0.12620738108041      1.77430008268956     -2.32454310979941
