15
Coordinates from ORCA-job run
  C   0.53772876106594     -0.01849068797138     -0.04701202517256
  H   1.66742209994453      1.65038181796759     -0.56345467573894
  Br  -1.96593451042343     -0.50517791625804     -0.52288186659513
  Br  2.75500807331311     -0.34943991277259      1.01960552245576
  C   0.65522331817194      1.49283978927684     -0.16374282088673
  H   0.16184931737464     -0.49017735194680      0.84017785907997
  C   0.87970894580014     -0.79664079144527     -1.20132512412201
  N   1.21149353694051     -1.35166794197005     -2.18710736720510
  N   0.48700348477840      2.06807042870755      1.16637815891453
  H   0.56776697770814      3.07616200957923      1.09037139787375
  H   1.25808804131833      1.73920365652961      1.73964914615536
  C   -0.30248911131130      2.16322340926035     -1.14118908624759
  H   -0.30676675576946      1.65126896103426     -2.10425807549730
  H   -1.31343295569490      2.15733715008892     -0.74147420644304
  H   0.03386077678340      3.19630737991976     -1.29535683657096
