10
Coordinates from ORCA-job run
  C   0.63257466472819     -0.01806884002835     -0.03573000327015
  H   1.65642060542562      1.81079434073116     -0.48363662637347
  Cl  -1.71506644113134     -0.12269890180097      0.01500147738961
  Cl  2.91425184447304     -0.35011836193804      0.41478020951639
  C   0.70729918071720      1.48928653654834     -0.05932591096910
  H   0.52589938401540     -0.58686143298136      0.86480312314337
  H   0.63154916853872      1.86387690252164      0.96089611227584
  H   -0.11501115879626      1.89523222896882     -0.64524569431684
  C   0.70697204226616     -0.72378381665904     -1.28515437587087
  N   0.77190070976325     -1.24768865536220     -2.33709831152478
