12
Coordinates from ORCA-job run
  C   0.63420948422275     -0.07088936739231     -0.03995346208932
  H   1.67784458684349      1.78114671988189     -0.23209308264283
  Br  -1.84301887371142     -0.21999504575087     -0.04332589598023
  Cl  2.86759359716453     -0.24833519874853      0.44482189961573
  C   0.63970653814386      1.46176567784558     -0.09134981138172
  H   0.48505155599731     -0.59095643318758      0.88578669657399
  C   0.73872404990880     -0.78207893427307     -1.27771657249635
  N   0.85499399263459     -1.33058261780009     -2.31370422860079
  C   0.19709147422648      2.02351680072636      1.18723511780517
  N   -0.08948005867593      2.51962196894355      2.21182395361806
  C   -0.12243144001824      2.03877255181167     -1.20582610621773
  N   -0.59685490673624      2.61103387794341     -2.11540850820400
