13
Coordinates from ORCA-job run
  C   0.48001702562663     -0.07328674659424     -0.00462812290635
  H   1.73012875041770      1.67826836425449      0.22249411132712
  F   -1.11180538859501     -0.02466532613471      0.21300220471834
  H   2.33878215519615     -0.21588495512625     -0.30872018593528
  C   0.68942138813709      1.43917725846352      0.02338472746080
  H   0.79551189664490     -0.58962933434531      0.88914543487771
  C   0.59524517630145     -0.77615662374214     -1.25116999342686
  N   0.46033173145610     -1.36188757825442     -2.26837009028582
  N   -0.08112661931053      2.00508811041605      1.20546831292445
  O   -0.87839986598391      2.91739916693960      1.02459812960246
  O   0.22640138101152      1.52632332732793      2.29104322897293
  C   0.24433306478767      2.08625485333192     -1.20551597827658
  N   -0.04513069568974      2.63323948346354     -2.20299177905290
