14
Coordinates from ORCA-job run
  C   0.53995732278069      0.01224600942741     -0.06639097496295
  H   1.62576110815660      1.75575952487676     -0.48297365922396
  Br  -1.96092300448626     -0.38165791242979     -0.32179627955564
  Cl  2.70568364281237     -0.21754254151067      0.79581849806401
  C   0.61096939514265      1.53493725470879     -0.13347738765396
  H   0.26689336102174     -0.49965381213923      0.83475305457011
  C   0.81723621770189     -0.72910838393157     -1.26056747146569
  N   1.08891074858036     -1.30291968520402     -2.25246713490247
  N   0.37435192436468      2.03751244216983      1.22228059638920
  H   0.52097710333253      3.04165936765121      1.20716223849075
  H   1.09688467579911      1.64303620280145      1.81875291379771
  N   -0.26564804219650      2.09722531641539     -1.13190701998985
  H   -0.07347094152293      3.08836736322354     -1.21883457234014
  H   -1.22843351148694      1.95212885394090     -0.85094280121712
