11
Coordinates from ORCA-job run
  C   0.39446067065252     -0.05303569083859     -0.05503894071525
  H   1.43426959269048      1.73118841877279     -0.54522567955935
  Cl  -1.66530039925051     -0.32268758657841     -0.41318664137128
  F   2.28981381632219      0.01587724577263      0.50046095829451
  C   0.48477492806168      1.46436888504141     -0.08523867061684
  H   0.36518062069901     -0.57624909418426      0.88129322299590
  H   -0.34263406616058      1.91027264115425     -0.64033006845497
  C   0.91807825141758     -0.75423172443664     -1.20158976540200
  N   1.27523562848739     -1.30186953560327     -2.17846755405001
  C   0.48332720334940      2.00268097550847      1.27145272224539
  N   0.44355375373083      2.48493546539161      2.34009041663390
