14
Coordinates from ORCA-job run
  C   0.28708250883085     -0.02711533875277     -0.14128922667804
  H   1.51406161569507      1.63054158370126     -0.59217703892644
  Br  -1.79953085665623     -0.40074612822572     -0.36604135686489
  H   2.38890707428851     -0.01115238993096      0.79539642985118
  C   0.51517337070259      1.49721870152800     -0.17205630497633
  H   0.44912221908967     -0.48909984845943      0.81792743312679
  C   0.91402458068363     -0.74692396175369     -1.23054064322402
  N   1.30247448720746     -1.32178095271363     -2.18192637296578
  N   0.43590417068290      1.94931868868610      1.21602346944490
  H   0.66621804623516      2.93959497678833      1.22821972440856
  H   1.21184235848535      1.45517930120622      1.66804476261096
  N   -0.39323268273778      2.19160355975747     -1.06523563601278
  H   -0.05982057829225      3.14274418593489     -1.17602474059823
  H   -1.31307631421493      2.22260762223392     -0.64091049919590
