12
Coordinates from ORCA-job run
  C   0.68758657552263     -0.01100676771866     -0.01457061807889
  H   1.52048312155478      1.88468167467187     -0.49475728064823
  F   -1.04247987969675     -0.22685907859232     -0.16970860345927
  F   2.41141876900393     -0.02948145989605      0.28859972176987
  C   0.61786471115484      1.49064769945186     -0.03375372510530
  H   0.57294090624828      1.82256133606744      1.00273589739269
  H   -0.27639080068703      1.81057380953209     -0.56196646602408
  C   0.89081901404470     -0.76744438322071     -1.23539466398354
  N   1.05544025925922     -1.33430690297146     -2.25045016404813
  N   0.55937521419935     -0.78481702128455      1.26739277533525
  O   0.39042160788522     -0.14356200884299      2.29628320101937
  O   0.63320050151082     -2.00259689719653      1.19354992583027
