17
Coordinates from ORCA-job run
  C   0.77574427842586      0.02492730316477      0.02965445678176
  H   1.63347394056751      1.96675550832922     -0.12676588045164
  F   -1.13414363817220     -0.12784857421239     -0.05067107588924
  Cl  2.93144921423942     -0.08076530551679      0.36819518532457
  C   0.63087446477275      1.55930402009329      0.00152329780707
  C   0.81181456927577     -0.67725105245059     -1.23063658653794
  N   0.87278502834938     -1.24234314186043     -2.26011506599316
  N   0.53752994247931     -0.88011373119476      1.21603452899516
  O   0.43917518653217     -0.36426469433618      2.31876573081152
  O   0.49276529762915     -2.07699607065035      0.98189942153016
  C   0.02406819533879      2.16342776498746      1.26510429343453
  H   -0.94911848106018      1.71510276415594      1.45409351559286
  H   0.66043899147691      2.02699201994484      2.13817759008855
  H   -0.09754233020442      3.23778778300708      1.08460017618632
  N   -0.10091003864027      1.88843073773869     -1.22160808813896
  H   -0.16793306341018      2.89732679851086     -1.28932488666864
  H   -1.02490155759973      1.48382787028939     -1.11790661287295
