14
Coordinates from ORCA-job run
  C   0.75820551274854     -0.05702398740797     -0.06358999107974
  H   1.81179741955436      1.71000571478486     -0.61637128219770
  F   -0.99928584486710     -0.05146590381838     -0.25828450264655
  F   2.40737639352375     -0.16614450627453      0.31243978433321
  C   0.85217662147022      1.44393008149793     -0.18247696902756
  H   0.72935033688396      1.85866998732453      0.81368137804529
  C   0.87232621354659     -0.93320917085321     -1.21069578652711
  N   1.00493465010433     -1.64334795878949     -2.13632547933055
  N   0.46488147862338     -0.68529651013586      1.27543646309273
  O   0.33190134214944      0.06848819130272      2.22932173669450
  O   0.40742479427115     -1.90451867720902      1.30933165246720
  N   -0.18025701236274      2.06031077626254     -1.05901214367459
  O   -0.96255298530555      2.85994683252900     -0.55166045707387
  O   -0.11528892034033      1.79128513078687     -2.25472440307524
