12
Coordinates from ORCA-job run
  C   0.56817536236521     -0.01937492004093     -0.02480097495517
  H   1.64418894824288      1.79787156226382     -0.02563823239192
  Cl  -1.54891895389814     -0.23803624931423     -0.09709829946024
  F   2.51480434959029     -0.10167772776846      0.14751411617099
  C   0.60596240949166      1.48437415257274     -0.01216213762311
  H   0.10787775644199      1.83350939995381      0.89008936356895
  H   0.06276957835247      1.86126618255882     -0.87884965506446
  C   0.86463690959710     -0.76491413689444     -1.22104489083236
  N   1.02801160573312     -1.30505602449980     -2.25262102245304
  N   0.70673080799684     -0.76446709051404      1.26757255096236
  O   0.68476409659311     -0.09382138145139      2.29049542040111
  O   0.78167712949347     -1.98128376686591      1.20450376167687
