14
Coordinates from ORCA-job run
  C   0.64258330444167     -0.00388901511476     -0.01158690635466
  H   1.52305570693798      1.92396849190688      0.26855282072436
  Cl  -1.66069118635750     -0.22649712248111      0.03488656064950
  Cl  3.01475621936485     -0.05274713088072     -0.00905820170649
  C   0.54240564375084      1.51180034997349      0.04808650852913
  H   -0.12870085960524      1.74973683340348      0.87667091716965
  C   0.70714359711395     -0.75119744800079     -1.23149714501040
  N   0.71908988132690     -1.35262159407395     -2.24362142624172
  N   0.71778656162721     -0.77100544475931      1.26720978552549
  O   0.73209950411111     -0.09807068513667      2.29074317637523
  O   0.74467848592393     -1.98975399279776      1.19741338883174
  N   0.10994497740457      2.00472256530905     -1.24995862158272
  H   0.29348255423628      2.99708801575308     -1.30768861743471
  H   -0.88453439027658      1.84469617689906     -1.34825223947440
