14
Coordinates from ORCA-job run
  C   0.50476919662008      0.01131308983224      0.08783454997108
  H   1.77153118798325      1.74634017740799      0.20714145927589
  F   -1.00652780962252     -0.06636384975090      0.34255022551659
  H   2.37434565570776     -0.24047250924124     -0.15535820437234
  C   0.72315451334247      1.53847991801007      0.02456482937744
  H   0.49045338373051      1.82971328538320     -1.00485423038585
  C   0.67885424610065     -0.75660404687092     -1.12223250992817
  N   0.56840268241390     -1.29927969912251     -2.16613178588228
  N   1.02623132882988     -0.66460670692302      1.28781794093849
  O   1.24893168611063      0.05741353889494      2.27834157221451
  O   0.95064345296261     -1.89806572237952      1.33429233736326
  N   -0.08818193987144      2.32828453557707      0.93817990651155
  H   0.17757401808850      2.03391969660722      1.87143869236032
  H   -1.04956160239626      2.03249829257538      0.82055521703951
