14
Coordinates from ORCA-job run
  C   0.66755466124540      0.00887123215470     -0.03213924013338
  H   1.69675709704772      1.86017078169050     -0.07366013159784
  F   -1.04878510441329     -0.10292977434638     -0.09371414451554
  F   2.45100949863800     -0.11357457074205      0.18960950173221
  C   0.66523498041702      1.52270495892137     -0.03696810526566
  H   0.21947652701166      1.81270023601986      0.92075074777530
  C   0.82729403046609     -0.75442357746848     -1.25245083474778
  N   0.92605048871134     -1.35239928580596     -2.25809959593722
  N   0.61576899763429     -0.74947256072487      1.26031134418172
  O   0.56352359312206     -0.09224272282693      2.29246156639044
  O   0.61048172400873     -1.96954445221185      1.19352323238091
  N   -0.05121628216814      2.01780057128297     -1.21310996187896
  H   -0.07204729302070      3.02972722646011     -1.17470765808215
  H   -0.99800291870019      1.66884193759700     -1.13990672030207
