14
Coordinates from ORCA-job run
  C   0.43961865430417     -0.01632594463198     -0.03432559576876
  H   1.64217619624596      1.76028576412932      0.01132805174585
  F   -1.08509235052034     -0.12244651307334     -0.07015225459672
  H   2.35950457598073     -0.25107543716138      0.13242384068549
  C   0.59036024834459      1.49539434076570     -0.01616507789372
  H   0.11353501137420      1.81566674167090      0.91701149252165
  C   0.89123058730147     -0.74409033180415     -1.19872186914259
  N   0.99178224609179     -1.31337759868692     -2.22873991149951
  N   0.72761219124815     -0.72143233251025      1.23081971783687
  O   0.72133917806701     -0.03795912691016      2.26873994047285
  O   0.66728855356213     -1.95749030272105      1.21130570435259
  N   -0.02261219541983      2.04077285970668     -1.23032190792798
  H   0.03883025435937      3.05118488347127     -1.19396513395529
  H   -1.00247315093940      1.78712299775539     -1.21733699683074
