15
Coordinates from ORCA-job run
  C   0.56289607906374     -0.01966367961693      0.01148452414840
  H   1.38767766651148      1.88490602761928      0.46904365276067
  Cl  -1.72802555191528     -0.32853256435564      0.33335962453415
  Cl  2.87774865332011      0.00215531662005     -0.33900388231092
  C   0.46248567209327      1.49075665786606      0.05452380855106
  H   -0.35017049658966      1.76178006017694      0.72485199392958
  C   0.44902573143989     -0.81233532015196     -1.17825550927843
  N   0.34236001702642     -1.39834979470583     -2.19406386409118
  N   0.80452052866408     -0.75678450913554      1.28838179649139
  O   0.90112369853897     -0.06219175195683      2.29214562646750
  O   0.88417025979229     -1.97456125829756      1.23401802522629
  C   0.21752235153371      2.05242588454079     -1.33770114056239
  H   1.03550176451791      1.78699880108226     -2.00962976432150
  H   -0.71740684897189      1.66801199446331     -1.74906228088903
  H   0.15105047497497      3.14282413585159     -1.28922261065551
