15
Coordinates from ORCA-job run
  C   0.66902853125065     -0.04227878758395      0.04581528646663
  H   1.49228748285530      1.86885030426731     -0.30556661001995
  F   -1.05228791367032     -0.30640487126130     -0.09925261878806
  F   2.39834630712126      0.00760412127293      0.36093086187910
  C   0.52125501818075      1.46830259742825     -0.01676770141377
  H   -0.19250211690775      1.65202141325986     -0.82151156776275
  C   0.91115991474465     -0.72993681517593     -1.20991722781808
  N   1.09956273209103     -1.21689230926770     -2.26187785188404
  N   0.60028189959204     -0.92268266884220      1.26300990112204
  O   0.44961889788264     -0.38854079595998      2.35334830843078
  O   0.70057584230788     -2.12660899785980      1.07429405323430
  C   0.01790374412894      2.15867503805753      1.24325427532214
  H   -0.92986921407295      1.72515509939003      1.55740129712763
  H   0.73119497458228      2.06774806280037      2.06006891354325
  H   -0.13340610008638      3.22144860947456      1.02385068056079
