15
Coordinates from ORCA-job run
  C   0.41265321021856     -0.08733738270723     -0.04755745886138
  H   1.59040970291596      1.69667339306204     -0.30730760357490
  F   -1.15478642506527     -0.18047285894036     -0.25926043002235
  H   2.26372963100260     -0.16923774943143      0.30484445884789
  C   0.55172017494901      1.45473841813519     -0.09013058182209
  C   0.94231252935346     -0.80446803527980     -1.18988363454467
  N   1.15903237518811     -1.36786100250115     -2.20451359935669
  C   0.58655779264630     -0.74026723157034      1.22921482100668
  N   0.45695760313995     -1.27122907135435      2.27809449116612
  C   0.14967833939097      2.06160936648798      1.25284047829429
  H   -0.85394416332874      1.72943763036044      1.52021978154770
  H   0.85205523690533      1.73088127657882      2.02002644336244
  H   0.16601472012729      3.15256526217544      1.19805572762492
  C   -0.27165259109551      2.01487124580251     -1.16868266327043
  N   -0.86079813634803      2.56714673918224     -2.02183023039751
