17
Coordinates from ORCA-job run
  C   0.65350974737826     -0.05037222858275     -0.00914132883799
  H   1.66323967565238      1.78104478364574     -0.22657520262172
  Cl  -1.73113510799920     -0.34279784032369     -0.18675726560974
  Cl  2.96808816686653     -0.21857892391653      0.28600554687803
  C   0.62512536554469      1.48998036785248     -0.06934387496680
  C   0.76582474339116     -0.80109300794134     -1.23068561254238
  N   0.87869982134854     -1.34552257506369     -2.26925468550699
  C   0.50731871283897     -0.75671856416401      1.23667539548535
  N   0.41198183154724     -1.27821202017827      2.28856246876371
  C   0.17619653213067      2.06952992746750      1.26524579507578
  H   -0.84045374145918      1.74599162550300      1.49553479470493
  H   0.84064160198132      1.75687307307096      2.07370019769183
  H   0.19543913921217      3.16212848867920      1.20872116123320
  C   -0.16756021481756      2.06138520245733     -1.24391668176373
  H   0.02147468862124      1.50816642838965     -2.16653183005487
  H   -1.23804769043559      2.04587104916874     -1.05387927028529
  H   0.15672672819834      3.09665421393570     -1.39738960764334
