14
Coordinates from ORCA-job run
  C   0.39496392789833     -0.04924184812168      0.04712356569666
  H   1.63274396399907      1.71752499505803      0.22217903761573
  F   -1.19936195604761     -0.05161337653909      0.26354986667714
  H   2.23215130645741     -0.32112615668668     -0.26888995194975
  C   0.59397708629946      1.47227666653556      0.01953783009585
  H   -0.02963913614386      1.85162653668892      0.83422040766227
  C   0.52242271395537     -0.79212396743419     -1.18689747892822
  N   0.35086195956128     -1.36042140713131     -2.21000342756089
  C   0.86874809162981     -0.73273597624928      1.23345470510848
  N   1.03405652241346     -1.22900505226721      2.29262099250446
  C   0.14130591845946      2.06283874853931     -1.30737190160343
  H   0.78889953358518      1.72464689183300     -2.11985001600057
  H   -0.87968162299860      1.74728196907967     -1.52496644688455
  H   0.17315169093123      3.15633197669495     -1.27285718243318
