17
Coordinates from ORCA-job run
  C   0.63285220701590     -0.04305865016984      0.01219332635715
  H   1.71259787001953      1.75804844066778     -0.04761102639915
  F   -1.14903762182397     -0.13921305859163      0.06624039794867
  F   2.42142199620587     -0.20266309243003     -0.03906720077442
  C   0.65545759256770      1.49445640692320     -0.01757611493354
  C   0.59843222421552     -0.80580682527016     -1.22400638807931
  N   0.56242525471454     -1.38612685611938     -2.24491380223189
  C   0.67330976184851     -0.75694521937888      1.27700207747324
  N   0.69860726671230     -1.29715120718182      2.32000936495204
  C   0.03372170124882      2.08057221451527      1.24581131861090
  H   -1.01130337615079      1.78315760606679      1.31601719067984
  H   0.55521882281732      1.73363626243393      2.14150021313994
  H   0.10401085470753      3.17328846283371      1.21642269746555
  C   -0.02566014311075      2.03037562276576     -1.27255348951513
  H   0.45837898537492      1.65362947894057     -2.17715623505688
  H   -1.07058424032932      1.72431563109874     -1.28492275318694
  H   0.03722084396637      3.12381478289599     -1.28641957645008
