14
Coordinates from ORCA-job run
  C   0.58937326938759     -0.04853843397722     -0.01558854386691
  H   1.40364114745531      1.87048423257270     -0.48487208133233
  Cl  -1.77562910111278     -0.33408565067187     -0.26848851091872
  Br  3.06472111279752     -0.02878605962369      0.38461236756544
  C   0.47684137778344      1.47711598442028     -0.06880948781731
  H   -0.33809314506820      1.72447744691123     -0.74810659960099
  C   0.78439540521496     -0.77358342713294     -1.24164535350136
  N   0.95000175390509     -1.31087549596789     -2.27709926855955
  C   0.45240680057779     -0.78403312280748      1.21423841243713
  N   0.33984867363148     -1.34546926812789      2.24390501492465
  C   0.21834076617836      2.07136251196574      1.30544282557252
  H   -0.71421411105531      1.68448283065228      1.71928026342374
  H   1.03743678149549      1.83341401199862      1.98691033809174
  H   0.13819926880927      3.15931443978812      1.22828062358194
