17
Coordinates from ORCA-job run
  C   0.54386143421398     -0.06714986127761     -0.01325186709935
  H   1.65598040289676      1.65780102208378     -0.19859300246829
  Cl  -1.62536533854348     -0.37475966308007     -0.20700070620748
  F   2.48511839029037     -0.13103677559660      0.24109248683649
  C   0.59127450129904      1.46790442440077     -0.06639159054945
  C   0.86489548733471     -0.80083187193099     -1.21526766151334
  N   1.05745809309513     -1.36479446409015     -2.22960112135214
  C   0.59716978926442     -0.76154553019133      1.25279122089391
  N   0.56535604086316     -1.28391344040974      2.30639102306084
  C   0.15442886342723      2.07326746363761      1.25992123953202
  H   -0.87808516184293      1.79945626019511      1.48859373080451
  H   0.79807720112155      1.73140361255877      2.07286718462510
  H   0.22227715070256      3.16436447825332      1.20369355874810
  C   -0.15442754479071      2.07921834127704     -1.24907857552984
  H   0.02395925882622      1.51903934090331     -2.17002960669592
  H   -1.22941330061382      2.11589682960283     -1.07741311548015
  H   0.21450473245578      3.10000983366394     -1.39775319760499
