16
Coordinates from ORCA-job run
  C   0.63067503136588     -0.02340281355184     -0.02200012254736
  H   1.62146850844725      1.83345037165946     -0.18115660060001
  Cl  -1.73218280387113     -0.28465382832029     -0.13090170557929
  Cl  2.99411902373257     -0.14927806453108      0.21027451240940
  C   0.58923965721611      1.51867379765165     -0.04092108126650
  C   0.74320571388049     -0.74536354364912     -1.26033279797431
  N   0.83530183828447     -1.32820875947651     -2.27935990586343
  C   0.56411637603009     -0.75689429756057      1.21402750174418
  N   0.49846146272969     -1.30532549122373      2.25441505977263
  C   0.11085175544906      2.06858871430146      1.30014372674465
  H   -0.90950682858177      1.74512027141880      1.50913345592718
  H   0.76218698241629      1.74364641101711      2.11539575226630
  H   0.13619992435218      3.16188159366757      1.25702176803614
  N   -0.12212965014509      1.98159406190953     -1.22147497385643
  H   0.07584978880018      2.96591161637897     -1.35135573449931
  H   -1.11816678010625      1.84737996030856     -1.10090885471380
