14
Coordinates from ORCA-job run
  C   0.57549907944407     -0.05050748690257     -0.01363937291243
  H   1.39818580893933      1.85513800992621     -0.50157973598868
  Cl  -1.75035926936263     -0.35541160234430     -0.29509145998790
  Cl  2.90295672367622     -0.00950877684277      0.38691533840521
  C   0.47242684746950      1.47352950202785     -0.07292978897975
  H   -0.34894518620690      1.72905854188809     -0.74096543780674
  C   0.80781492241496     -0.77971298240213     -1.23136876389641
  N   0.99897157082230     -1.32045717000907     -2.25980927070942
  C   0.44789170895121     -0.77967072714987      1.22134202037803
  N   0.33805218181692     -1.33446961702083      2.25419379739336
  C   0.23978252203988      2.07463936878701      1.30267646704590
  H   -0.69380978379899      1.70425812498621      1.72975744195279
  H   1.06286584257760      1.82484883138558      1.97427534369211
  H   0.17593703121652      3.16354598367059      1.22428342141393
