13
Coordinates from ORCA-job run
  C   0.63258464019057     -0.03244948944241     -0.00877282338381
  H   1.64096294469995      1.85030465763931      0.16621380371421
  Cl  -1.70753714724414     -0.10076912106424      0.10426858804486
  Cl  3.02131621439976     -0.22155145713047     -0.09819502144251
  C   0.62193603833855      1.49793726911096      0.02910471915775
  H   0.02956473101913      1.77776499639211      0.90815295693941
  C   0.60612469388121     -0.75111953390744     -1.25410049441457
  N   0.54704749736685     -1.34498793511759     -2.26898878192951
  C   0.69994812401057     -0.76094895443929      1.22931225329369
  N   0.72824921954476     -1.30085873609227      2.27537035340969
  N   0.12165722645254      2.01934593571406     -1.22842366408381
  H   0.35963623304105      2.99864745716751     -1.30606159755939
  H   -0.88427041570079      1.91373491116975     -1.25500029174599
