17
Coordinates from ORCA-job run
  C   0.55054090960709     -0.05304784897122     -0.01871747736573
  H   1.58290271497269      1.81738111647185      0.09891466367674
  F   -1.04597763545199     -0.28456496033958     -0.02912344497300
  H   2.42715248253386     -0.10812304534229     -0.02219804984749
  C   0.54510318968238      1.49527981421150      0.03483275382310
  C   0.94700754030355     -0.68294265050444     -1.25918670090180
  N   1.01356984826181     -1.17942215828796     -2.33061209200807
  C   0.94896732658855     -0.75568214327019      1.18166391755136
  N   1.01596603826529     -1.30400609349707      2.22750513230527
  C   -0.20060222176618      1.98052397426532      1.27477902707011
  H   -1.25220114341446      1.69921190794756      1.22145558953434
  H   0.22407803452540      1.54953343501734      2.18517657216010
  H   -0.12252300251010      3.07085748319593      1.34554716744506
  C   -0.07176037940444      2.06116318251217     -1.24004968578055
  H   -1.09795543504244      1.70861354503812     -1.34846815441751
  H   -0.07108702874205      3.15553037449788     -1.19714783866927
  H   0.49388876159104      1.75402406705511     -2.12340137960265
