14
Coordinates from ORCA-job run
  C   0.59608880322351     -0.04177382836266     -0.00707110286218
  H   1.42953804821614      1.85176847106670     -0.45752887483779
  F   -1.15758785500108     -0.27638099877260     -0.24618032919592
  F   2.35156305938688      0.00408863990447      0.31720276758533
  C   0.48292612978913      1.47459101881285     -0.07154959645770
  H   -0.32068694964931      1.70714991287923     -0.76988119028974
  C   0.85200344321020     -0.77346640438986     -1.23515007232918
  N   1.05956607918925     -1.32428751089672     -2.25157317041000
  C   0.45684106152105     -0.78382315967413      1.23586248857516
  N   0.33803416740388     -1.35417824809378      2.25580459494909
  C   0.18934813478116      2.06765663910690      1.29721576534976
  H   -0.75041731816714      1.66856718811613      1.68252858048193
  H   0.99254578594297      1.81805485772536      1.99280515877806
  H   0.10750741015335      3.15731342257813      1.23557498066318
