13
Coordinates from ORCA-job run
  C   0.55730342693158     -0.02919378528856      0.05083883291758
  H   1.02800691651410      1.85550774908569     -0.76009410687144
  F   -1.14401389627172     -0.37670431716393     -0.53014887220696
  F   2.22829087418862      0.11342158043960      0.56127354606720
  C   0.36293952886753      1.48170803408146      0.03164614848022
  H   -0.67101074587939      1.67838004757804     -0.23760024791543
  C   0.98188163714545     -0.71681177851852     -1.15607461781819
  N   1.36090565633325     -1.22893789496093     -2.14275161685924
  C   0.22297269522011     -0.80580989411549      1.23116040401287
  N   -0.01096932855124     -1.44491953747287      2.18816513011173
  N   0.64454338922163      2.03557015909017      1.35187833898488
  H   0.54426183365106      3.04258435877717      1.31326361723769
  H   1.60962801262904      1.80659527846814      1.55356344385908
