13
Coordinates from ORCA-job run
  C   0.37535832035015     -0.05291151576205     -0.01802691975650
  H   1.47745100095733      1.74783610321993     -0.43095794926467
  Cl  -1.62667480503788     -0.34377091170306     -0.16444524339426
  H   2.22306742534854     -0.15355490786399      0.44924576572532
  C   0.49008473390931      1.48317914588876     -0.04049210135600
  H   -0.26900177733292      1.84337631242497     -0.73851532858838
  C   0.87173230536674     -0.67193570622325     -1.23638495731349
  N   1.13572799330691     -1.14608421964454     -2.28228948381812
  C   0.85877522286022     -0.69942796400330      1.19652121891411
  N   0.75102438318621     -1.26275123970292      2.23887997506738
  N   0.20739202670520      2.01187071108609      1.28618642410929
  H   0.32263336455297      3.01847718706904      1.26541901319292
  H   0.89716980582721      1.63708700521430      1.92997958648238
