16
Coordinates from ORCA-job run
  C   0.50831321181634     -0.04884133987537     -0.03003247448169
  H   1.60630267296722      1.69189667609655     -0.22828044480945
  Cl  -1.64019907609078     -0.34028161407762     -0.15879148007806
  F   2.47640266794171     -0.05862278043635      0.24026059808386
  C   0.55083983406954      1.48815278663137     -0.06084131482558
  C   0.82652699577076     -0.75563076105500     -1.24852739001452
  N   1.07373615797636     -1.30528320588727     -2.25799364408570
  C   0.62587166117238     -0.75784848494925      1.22417814588796
  N   0.61285548472054     -1.30552424941001      2.26530165593420
  C   0.14437202161614      2.06973990906565      1.28861054183167
  H   -0.87883812677455      1.78553325331100      1.54431164520622
  H   0.81686438539948      1.72300713100823      2.07620599060345
  H   0.20395621846416      3.16169147114820      1.23899086914806
  N   -0.17143939056865      2.00120330318469     -1.21790748466315
  H   0.09359997308349      2.96982584335981     -1.34989108140711
  H   -1.16947469156413      1.95410206188536     -1.05359413233018
