13
Coordinates from ORCA-job run
  C   0.51455140494503      0.01809309442608     -0.03984412440159
  H   1.62421937841180      1.88311913100266      0.07662450346097
  Br  -2.38933541400566      0.16308281329785      0.14780121449373
  H   4.19492670623383     -0.91291145618895      0.03483493928448
  C   0.58771285544318      1.52522709981284     -0.00776447509733
  H   0.05881242489569      1.84666243406788      0.90167220522294
  C   0.62619847889434     -0.68662119802540     -1.25992862045566
  N   0.71494042609739     -1.28294470315336     -2.28426579995441
  C   0.63094468879523     -0.69307082226925      1.17548837400416
  N   0.75115418150242     -1.24971455185189      2.21971932775589
  N   0.03419634644007      2.08720921974092     -1.23909048375843
  H   -0.00640764765385      3.09648667351155     -1.14308276114116
  H   -0.92469382999949      1.75043226562906     -1.28928429941357
