11
Coordinates from ORCA-job run
  C   0.70080908207471     -0.03912411762539      0.00003897286304
  H   1.71159812269904      1.88078497936349     -0.03543943025068
  Cl  -1.70619583191911     -0.02531863028140     -0.00785167502944
  Br  3.17791355646645     -0.32875052087178      0.01382207231523
  C   0.70007394442175      1.48506753026786      0.00026922681269
  H   0.19079490007291      1.83210748439154      0.89797835179918
  H   0.13046199137502      1.83312954790527     -0.85963330564967
  C   0.64244161824382     -0.76465789558989     -1.24090311675068
  N   0.60343917535917     -1.31291238169738     -2.28277997603065
  C   0.63093612715494     -0.76975280049286      1.23739989285877
  N   0.58252731405129     -1.32336319536945      2.27603898706222
