15
Coordinates from ORCA-job run
  C   0.58245057877059      0.00380031594220     -0.03879513051236
  H   1.61057075940571      1.75403718298386     -0.56247924146960
  F   -1.14056897293901     -0.23396449522952     -0.52229789656009
  F   2.25970681311718      0.00036597304026      0.56525762220003
  C   0.62328414610710      1.54204567748168     -0.14068099352941
  C   0.97624859582156     -0.76907086487225     -1.20091603169751
  N   1.31751386568436     -1.37883194870622     -2.14478997311178
  C   0.19912209036034     -0.68388048695655      1.18375744460618
  N   -0.07581003825456     -1.24456233650282      2.17842800000909
  N   0.50498988671943      2.05018085162592      1.23320756687852
  H   0.69711865793148      3.04717754975392      1.20716339356802
  H   1.26445715519322      1.62000125676656      1.75466014483863
  N   -0.36704669095573      2.07832553940062     -1.04581181118308
  H   -0.43882027544842      3.07767246914302     -0.89121177502021
  H   -1.24605657151329      1.62593331612931     -0.82643131901642
