12
Coordinates from ORCA-job run
  C   0.67359033576172     -0.06300924232979      0.02117626416060
  H   1.71764871338499      1.81290518309799     -0.05432086618008
  F   -1.09399757735351     -0.04215259891998     -0.01033289482698
  F   2.42808271307511     -0.18855213639778      0.04942194659479
  C   0.68833353169800      1.46542526317179      0.01445559893381
  H   0.12200516565204      1.79199348347126     -0.85884031958902
  C   0.66466084920592     -0.76419106970281     -1.25204966444050
  N   0.66381806043536     -1.29616238715259     -2.29890249132912
  C   0.62607187312539     -0.82614329935965      1.25694318558371
  N   0.58800827921590     -1.43787360459669      2.25855553030064
  C   0.05268361628341      2.03593444922592      1.19863113877007
  N   -0.40213556048432      2.57031595949232      2.13913257202208
