13
Coordinates from ORCA-job run
  C   0.43655699054196     -0.03173433181061      0.02222037983910
  H   1.12338406659821      1.80363561704260     -0.73959994322316
  Cl  -1.64887694601547     -0.47147445076222     -0.58697548818352
  F   2.30673811378643      0.16028327127151      0.51739782612498
  C   0.37949431019176      1.49794755636438      0.00615596453281
  H   -0.60611592940762      1.83324252496603     -0.31140306199348
  C   0.98782775850703     -0.71803925575564     -1.12359281911485
  N   1.40580276180277     -1.23802510002486     -2.09173608900646
  C   0.31806219536525     -0.76489750704689      1.26189744354038
  N   0.20300738881374     -1.38305147867120      2.25534343974188
  N   0.64363485693080      1.99564748450871      1.34642115657129
  H   0.56705948577226      3.00501300555884      1.34826421989625
  H   1.59816494711290      1.72284266435931      1.55072697127474
