14
Coordinates from ORCA-job run
  C   0.55988428474446     -0.03802089915010      0.02333216189426
  H   1.53348698327431      1.80454918053456      0.39187454211191
  F   -1.18940922506241     -0.15049284607783      0.36753704805290
  F   2.29249609457094     -0.11658184017302     -0.39853733898565
  C   0.55094643804160      1.48360073769102      0.04669418490955
  H   -0.21108572674295      1.78927971357894      0.76307066381915
  C   0.30044703530645     -0.80276077956040     -1.18609989746365
  N   0.08700838242810     -1.39407456978081     -2.17832006802609
  C   0.83721245139311     -0.75194861868924      1.25706376083178
  N   1.06833815336668     -1.28809062968633      2.27625075063352
  C   0.25407218755693      2.05833039521790     -1.32900602827990
  H   1.01418949556012      1.73270268067883     -2.04118330859822
  H   -0.72381266901319      1.71743867442603     -1.67354795852580
  H   0.25082611457585      3.15232880099046     -1.29727851237373
