12
Coordinates from ORCA-job run
  C   0.64478854583077     -0.06711417185244      0.01338498805558
  H   1.57481688724254      1.85344644903002     -0.31549676040268
  Cl  -1.70165091288128     -0.17298949260180     -0.14963454585016
  Cl  2.96876820086553     -0.13721421300024      0.23491411411417
  C   0.59792159673525      1.46502016607828     -0.02989771913162
  H   -0.14299619312721      1.77348117141787     -0.76713267704882
  C   0.74253017872767     -0.75947786171328     -1.24187229833672
  N   0.83399308775097     -1.27702003839714     -2.29541773251700
  C   0.54565675596186     -0.81422951465887      1.23658373671578
  N   0.46761394309460     -1.41375129203889      2.24693949607492
  C   0.23079923958826      2.04267642072399      1.25734385405320
  N   -0.03347132978895      2.56566237701250      2.27415554427338
