11
Coordinates from ORCA-job run
  C   0.47217147559730     -0.03642864753408      0.02577684807155
  H   1.77759003965593      1.71017836092288      0.04199029565901
  Cl  -1.67669403595616      0.01700151030253      0.02678922468084
  H   2.12712730145449     -0.49846057751850     -0.37234036617933
  C   0.71403710979026      1.47029682203269      0.02283591787758
  H   0.22835379554190      1.90732182465522      0.89474229901198
  H   0.25291018936979      1.88328948297935     -0.87580116396264
  C   0.99952569181156     -0.75065714875231     -1.14465649759313
  N   0.92682258343573     -1.26216785767129     -2.22207427251972
  C   0.71541802781140     -0.71928650329858      1.27824218819639
  N   0.82753782148779     -1.25387726611791      2.32343552675748
