13
Coordinates from ORCA-job run
  C   0.68095119368424     -0.07186891813643      0.05107300927705
  H   1.73794995402659      1.82010945006867      0.07436764977288
  Cl  -1.68030234429645      0.01481716160130     -0.05700897928148
  Cl  2.99038081520405     -0.30333137736824      0.11690286416540
  C   0.71447530193054      1.45206033138105      0.03550041624896
  H   0.19640731954562      1.81546318771576     -0.84661099023961
  C   0.65571150122881     -0.71969092145466     -1.23377182285120
  N   0.66605523395061     -1.21160003942994     -2.30323031978469
  C   0.57355540957706     -0.89388568473591      1.22555883363024
  N   0.49455035965047     -1.62426628196320      2.14580161871219
  N   0.03888926680068      2.09343392942269      1.19909521358715
  O   -0.55456348041856      3.14336417107784      0.96942401832049
  O   0.21498946911637      1.59510499182109      2.30421848844262
