12
Coordinates from ORCA-job run
  C   0.45556922243337     -0.07734016404265     -0.02247420296685
  H   1.70034076202793      1.71362177995332     -0.01476375387258
  F   -1.13990150309990     -0.04430653398925     -0.01195177730720
  H   2.31056706793271     -0.31799413440060      0.00156053073276
  C   0.64727013835771      1.44858156174302     -0.03126669757602
  H   0.16051379512366      1.82079296618371      0.87419179968992
  C   0.75249217933080     -0.81529766140442     -1.22930599503194
  N   0.75846427362409     -1.39661599582716     -2.25732859065084
  C   0.77672308100128     -0.73966807081220      1.22034703730063
  N   0.77627654115071     -1.23384523161104      2.29441159080815
  C   -0.00051113015911      2.06997055588866     -1.18543007691999
  N   -0.47033442772323      2.63108092831861     -2.10297986420603
