13
Coordinates from ORCA-job run
  C   0.54815178802127     -0.04376801278840      0.03052354240732
  H   1.26476919927360      1.81911401775345     -0.67727051364231
  Cl  -1.77179296964229     -0.36395454606353     -0.47603032233213
  Cl  2.84198629262015      0.01919316984475      0.51003589451588
  C   0.47826386343045      1.48558455389496      0.00950364177539
  H   -0.48789182739160      1.78175499980222     -0.39077920981055
  C   0.83497586390732     -0.74560586377324     -1.19129130057916
  N   1.09930241390628     -1.26327045509261     -2.21536127912011
  C   0.30684238768287     -0.78910288907630      1.23646202152888
  N   0.14787976592824     -1.40325574712296      2.22829434297684
  N   0.59609736149291      2.00160731954789      1.35960256711854
  H   0.29260073555730      2.96558211189723      1.37992278055391
  H   1.56355512521352      1.94751134117652      1.65150783460747
