16
Coordinates from ORCA-job run
  C   0.62063047559686     -0.06122678760548     -0.01451383966410
  H   1.65743463088286      1.63419576011019     -0.64212906027431
  Cl  -1.68252164313391     -0.51966356067187     -0.69492457548049
  Cl  2.82738044107422     -0.16439895031127      0.73680010522020
  C   0.68530477685876      1.47207281053405     -0.15974388384963
  C   0.96857247422724     -0.85190224777640     -1.16314291702994
  N   1.31497506211836     -1.41297993468899     -2.13937617266911
  C   0.18978775393031     -0.68711879751613      1.20682906978000
  N   -0.09360038044638     -1.17586495699387      2.24041917257208
  N   0.61339709686140      2.04842638373876      1.17420409066432
  H   0.61129685576639      3.05801128316496      1.08940834335071
  H   1.44407152600946      1.77454462217335      1.68807836626329
  C   -0.36111414801059      2.12612711575593     -1.04742194601682
  H   -0.42870605018226      1.63287050532953     -2.01602772828695
  H   -1.33927321518104      2.09954915597475     -0.57473358148216
  H   -0.05309565637169      3.16779759878248     -1.20569544309708
