11
Coordinates from ORCA-job run
  C   0.69356958712217     -0.03857215219642      0.00047956658234
  H   1.72334102209736      1.86410545651952      0.01485530360827
  Cl  -1.67773275375625     -0.03284455048719     -0.00217525134405
  Cl  3.03239818659886     -0.30731744663640     -0.01070112847161
  C   0.70565931622486      1.48333122358204      0.00117887780762
  H   0.15948874879850      1.83649985422186      0.87414744255224
  H   0.18167165219698      1.83766409620400     -0.88485976745534
  C   0.64935342712414     -0.76951894086489     -1.23840778896136
  N   0.61664927312240     -1.32204300330971     -2.27748432018826
  C   0.65446688364638     -0.76698182420510      1.24071033629554
  N   0.62593465682460     -1.31711271282770      2.28119672957461
