13
Coordinates from ORCA-job run
  C   0.44430483984256     -0.02848522401290     -0.02954477799648
  H   1.74243191976415      1.69688008616742     -0.06796711087875
  F   -1.15377396652995      0.02048659830604     -0.00582760103224
  H   2.31949986983023     -0.39417869326833      0.00826355758309
  C   0.67886082164792      1.48601771337264     -0.02773626919621
  H   0.27633889312291      1.82747601942755      0.93882957068252
  C   0.71378733168664     -0.76069697962133     -1.25180253903976
  N   0.68638728903391     -1.35174416467633     -2.27356475641515
  C   0.79352568870793     -0.72409244324436      1.18857938375704
  N   0.75360509910685     -1.22417699565670      2.26183353091066
  N   0.01933482876301      2.07724941295336     -1.18894905240289
  H   0.10440320772145      3.08515592621729     -1.13351129527744
  H   -0.96148582269762      1.83515874403566     -1.12572264069440
