16
Coordinates from ORCA-job run
  C   0.70888322253401      0.00746345801673     -0.02129387213324
  H   1.67411127836208      1.90926280807824     -0.17982934323882
  F   -1.23082147040300     -0.05461666639493     -0.12759386146983
  Cl  2.91256409644583     -0.20915673915020      0.23307375263342
  C   0.65483572098365      1.54955032096530     -0.04427767945285
  C   0.69206874335022     -0.72267026929162     -1.26756488962446
  N   0.69838662908201     -1.33020232576646     -2.27443669437431
  C   0.46356994031573     -0.73622485014510      1.19410547445138
  N   0.29741131578385     -1.30924200170355      2.20773700743481
  C   0.12110061385138      2.06552646574833      1.28957034715815
  H   -0.88447940772578      1.67544544555311      1.44427747427341
  H   0.75968683003512      1.76274072124117      2.12399626663581
  H   0.09096278000967      3.15983259420022      1.26251198794278
  N   -0.09931468535702      1.96408450177649     -1.22032645701756
  H   -0.15265037915971      2.97591698780965     -1.23105698841220
  H   -1.02662522810807      1.56540954906261     -1.11689252480647
