14
Coordinates from ORCA-job run
  C   0.52507700805938     -0.07802530124717     -0.01413991065449
  H   1.50058975968694      1.62829940129183     -0.70618702717252
  Br  -1.73995693264288     -0.56014772361668     -0.71050149825418
  F   2.31388911577939      0.09059385592954      0.61133505878771
  C   0.57027930372736      1.45991750078254     -0.14913650182939
  C   1.05565586141542     -0.86723688987301     -1.09670674137069
  N   1.51860794550484     -1.46243807295655     -2.00006949220709
  C   0.25364181164051     -0.70539741833114      1.25636408508731
  N   0.06957031421458     -1.22690759529610      2.29490295202512
  N   0.60025593053690      2.02195221009436      1.19511597791164
  H   0.62585308025119      3.03283487371500      1.13369655891549
  H   1.46962633017033      1.68379974502044      1.59554400328695
  C   -0.49397347095892      2.12299942088654     -0.91488280127486
  N   -1.19170605738503      2.86291599360040     -1.50414466325101
