14
Coordinates from ORCA-job run
  C   0.73363615668235     -0.02290030754150     -0.00385464593457
  H   1.71656428900676      1.90370303375063      0.01970621255598
  F   -1.19270827513120      0.06896694535438     -0.01260068090195
  Cl  2.92000932903352     -0.26359160219125      0.02503476465435
  C   0.69656356563161      1.51968814909797      0.00522638215068
  C   0.58311704058232     -0.72246739765444     -1.25851182927748
  N   0.48446912900835     -1.31999655015042     -2.26634985078191
  C   0.55331636125812     -0.77550640310135      1.21496314399920
  N   0.43658043933625     -1.38473246448479      2.21406070863046
  C   0.04191895722169      1.99195624838033      1.24483507977966
  N   -0.42443437413682      2.51410690835817      2.18866592725512
  N   0.05706855827993      1.98454855796049     -1.20938917070012
  H   0.07365569223937      2.99649021594180     -1.23480471060667
  H   -0.89856686901224      1.64606466627997     -1.16917133082277
