11
Coordinates from ORCA-job run
  C   0.56958040840903     -0.03577553846872      0.00092567790568
  H   1.76753208156957      1.71056622504578      0.01464863595086
  Cl  -1.59860313682091     -0.06982178983112     -0.00183350247717
  F   2.52662148306638     -0.25126867412530     -0.00987894552027
  C   0.70807891032484      1.47559114589010      0.00123878426777
  H   0.20139300108828      1.88185217911973      0.87647748811572
  H   0.22596511968633      1.87859204296147     -0.88932235705146
  C   0.71767784584931     -0.76113471555721     -1.24018673817786
  N   0.75672359831118     -1.30467017491179     -2.28221438222296
  C   0.72230868594579     -0.75816865180738      1.24282543732268
  N   0.76752200257021     -1.29855204831555      2.28625990188700
