13
Coordinates from ORCA-job run
  C   0.63232630763911     -0.01653554727826     -0.02792327232891
  H   1.77236411342322      1.77488226940706     -0.05680465739497
  F   -1.12259574822263      0.01046959664409     -0.03054009488130
  F   2.44613480255289     -0.24468184216406      0.02875674905324
  C   0.72057986709050      1.50434232067414     -0.02673174625881
  H   0.28452477154028      1.82494700963479      0.93025367087375
  C   0.65892271132276     -0.76099606796344     -1.27399504743314
  N   0.64535695271042     -1.37349999113945     -2.27583784766383
  C   0.62038692280041     -0.73711648181033      1.23310545457571
  N   0.57675650399884     -1.27916606301710      2.27412951730229
  N   0.03685297785509      2.04295636832145     -1.19801302748901
  H   0.07320700190093      3.05448051529605     -1.16186280306508
  H   -0.92759718461182      1.74496791339507     -1.12165689528996
