16
Coordinates from ORCA-job run
  C   0.50525796853531     -0.00718684089389      0.02317637748063
  H   1.74385954648953      1.72758143992929     -0.17851983588490
  Cl  -1.66898730533872     -0.13930788132781      0.31570488233849
  H   2.18744148254589     -0.37634607093939      0.24668965371373
  C   0.67023417057533      1.54142169937889     -0.08743140992248
  C   0.61440802749260     -0.78631888503164     -1.18359569371877
  N   0.62795656863411     -1.39686089817673     -2.19407523600141
  C   1.23715240483690     -0.55505251159425      1.17502135581610
  N   1.36281004869482     -0.86685851483580      2.32435490943671
  N   0.22323584389061      2.24313269722097      1.10557078389554
  H   0.71222380977315      1.84910914813606      1.90572205899663
  H   -0.75408098107234      2.00225874489907      1.24066574974958
  C   0.00050422768409      2.11398368871000     -1.32720243920248
  H   0.37250067372766      1.63417133366925     -2.23535595994545
  H   -1.07936290677185      1.97319870235403     -1.28147179246730
  H   0.21938642030296      3.18351414850198     -1.37122340428465
