15
Coordinates from ORCA-job run
  C   0.36569886170125     -0.08525484375620      0.02441241597493
  H   1.15243132702523      1.77101170931006      0.68153522531906
  Cl  -1.75193927491565     -0.44415116308063      0.44151242046659
  F   2.23299977797640      0.24545493086895     -0.59049587551771
  C   0.33572719093185      1.43013212181490      0.05546501597611
  H   -0.62334234495439      1.81866525774837      0.39998042770523
  C   0.36069909638206     -0.86923892900675     -1.18823029757352
  N   0.32822416766105     -1.62401927277287     -2.09023136910681
  C   0.87251661540005     -0.75821212452299      1.28529817161381
  H   1.95578091634545     -0.67359334512592      1.28638907141493
  H   0.43796140751086     -0.27348460426046      2.16135460330463
  H   0.56601837653474     -1.80330746823753      1.29552577848940
  N   0.56453626455369      2.07707625408226     -1.26275625839799
  O   1.23460805935342      3.10752317822151     -1.25925975305560
  O   -0.00922044150602      1.61135829871728     -2.24007957661303
