14
Coordinates from ORCA-job run
  C   0.54931283126067     -0.06753086674082      0.04055865212310
  H   1.76295776257067      1.64109396885313     -0.10181333744095
  Br  -1.81863991464322     -0.06393595552172     -0.10035063608865
  F   2.55925341020689     -0.16435892326302     -0.09095063609796
  C   0.69497892206014      1.45354136966091      0.00922281382728
  H   0.15222904458994      1.86190606752755     -0.84462576563773
  C   0.70467659323277     -0.75071989070809     -1.22070117591847
  N   0.76145794596632     -1.30763756685753     -2.25631639272918
  C   0.62530401093126     -0.83238930723292      1.34495891943447
  H   1.65676403013176     -0.79228282680048      1.68457567119779
  H   -0.05091304402854     -0.39761192980017      2.08015508137318
  H   0.33046592525125     -1.86818590264930      1.17581916884782
  C   0.21234116297942      2.10246727781670      1.22399279128945
  N   -0.11582868050935      2.66364448571576      2.20171484581984
