16
Coordinates from ORCA-job run
  C   0.52649677850666     -0.05958048451627      0.03079236417985
  H   1.72610588185333      1.63117886648216      0.05563244566778
  Cl  -1.69438107580819     -0.07721126178127      0.03642492278981
  F   2.50975699267990     -0.11900292867643     -0.20495982263282
  C   0.64886616133879      1.46499341896713      0.02022280345661
  C   0.61455077852227     -0.75390382903718     -1.23145350009181
  N   0.60711176419398     -1.37554830493563     -2.23030317001185
  C   0.66833194796845     -0.82366802029545      1.32873360085408
  H   1.71612241809106     -0.80151307269110      1.61441793110554
  H   0.03654527884292     -0.38434446751180      2.10022178525383
  H   0.34746754307070     -1.85388536907374      1.17375513884520
  C   0.06690240028382      2.06244618989743      1.24214093086930
  N   -0.32440374583657      2.65441965031185      2.17949248965591
  N   0.13908273228117      2.04117121763031     -1.21004990926861
  H   0.35527733395097      3.03009167461411     -1.23049376916123
  H   -0.86705318993924      1.92019672061589     -1.23439424151162
