17
Coordinates from ORCA-job run
  C   0.42529075843015     -0.06907760616104      0.07556187444364
  H   1.66922452407343      1.68023731474726      0.26655033296581
  F   -1.21361758954747     -0.02642268053662      0.34616138389554
  H   2.17311696865272     -0.14600636776317     -0.58084968988226
  C   0.62136894421624      1.45887193448566      0.06809823038672
  C   0.40674031253612     -0.76918862855178     -1.17841826010008
  N   0.15008322533679     -1.37722251908459     -2.16134962260636
  C   0.77199820457843     -0.84042537697221      1.33798408487472
  H   1.84151945166319     -0.97429156842881      1.46654792236619
  H   0.35061647879236     -0.29914325566073      2.18853060597643
  H   0.27604061759401     -1.81228771488280      1.28945178049988
  C   -0.15469331105786      2.09110611095267      1.14611361950405
  N   -0.66676767141670      2.69033155632713      2.01786608533380
  C   0.22711563584259      2.05031672151828     -1.28239355890226
  H   0.88884007850960      1.63697911133309     -2.04611137194790
  H   -0.80253537429245      1.77371357669908     -1.51034303961362
  H   0.31981874608885      3.13955939197856     -1.27425037719430
