15
Coordinates from ORCA-job run
  C   0.63657636597599     -0.07416754523977      0.06939294856854
  H   1.83318939602097      1.71878567545418      0.21926008389525
  Cl  -1.74254981430363      0.22910047032430     -0.02843541046732
  Cl  2.95847795331745     -0.42127993047027     -0.19843819430527
  C   0.78923620269696      1.44129275335139      0.08282935076032
  H   0.39232692802439      1.86732837106122     -0.83319496829363
  C   0.46601414196884     -0.67990612037370     -1.22615456466466
  N   0.36499306439057     -1.18867738634362     -2.28379520651603
  C   0.62142383406007     -0.94340405028256      1.31258949744286
  H   1.39742315560721     -0.61394586377424      1.99765013886579
  H   -0.34160698342657     -0.89539054717192      1.81175558086576
  H   0.83721141035238     -1.96888339707503      1.01386606326896
  N   0.08104126346692      2.14938887329499      1.19281836837430
  O   -0.43594570261966      3.22609726256188      0.90967835391375
  O   0.16682878446816      1.68288143468312      2.32386795829140
