18
Coordinates from ORCA-job run
  C   0.77928737583890      0.02236554408291      0.04349326360423
  H   1.65140990632933      1.98236023137642      0.02551144993268
  F   -1.26602035250354     -0.04365788248448     -0.15263249124498
  Br  3.19114105830137     -0.12055651300103      0.02704339504230
  C   0.64800313613969      1.55712011269676      0.01778070629695
  C   0.68825436964013     -0.70352574081615     -1.20312097055365
  N   0.64690088804475     -1.35541295377979     -2.18284004697392
  C   0.65077906907226     -0.77381705903868      1.32774194239353
  H   0.98395243223988     -1.79642876333010      1.15266112489843
  H   1.27380208514651     -0.34740190275205      2.11262413077993
  H   -0.39862909240235     -0.77231120994113      1.61145939558602
  C   -0.09330523405192      2.06759193761863      1.25712934333514
  H   -1.09563861076039      1.64446353148969      1.26397458555896
  H   0.42591609803858      1.81364288407886      2.18610814362660
  H   -0.15138007060354      3.16060444483786      1.20156380966858
  N   0.02554422817288      1.93935092153218     -1.24490271354663
  H   -0.10533585721587      2.94472825148387     -1.25303457418036
  H   -0.87940142942665      1.47351416594624     -1.23619049422384
