16
Coordinates from ORCA-job run
  C   0.53225437598584     -0.09797421681182     -0.04640172960029
  H   1.35135821764693      1.67215162058226     -0.89139704053648
  F   -0.95391263250667     -0.36566837078785     -0.75381331390032
  H   2.27868916837062      0.15809750860450      0.47884144051537
  C   0.57709559617880      1.43805421504467     -0.14898386629318
  C   1.30942202487512     -0.83772109354521     -1.01057598580944
  N   1.79277987100571     -1.49166767153826     -1.86586210877990
  C   0.14586365093510     -0.76166568320562      1.26644293077772
  H   0.97011151347847     -0.81821753996700      1.97049853339813
  H   -0.66837598292986     -0.18022318295189      1.70060770205124
  H   -0.22942704638592     -1.76113927465420      1.03859423100603
  N   0.83881578568107      2.04761440328862      1.16203617709824
  H   0.94892093228526      3.04883104357799      1.03020927012512
  H   1.74345955155170      1.64611187111470      1.41571288687033
  C   -0.68230202094010      2.03879590618325     -0.64214634357310
  N   -1.58175300523206      2.68729046506581     -1.03020278334943
