16
Coordinates from ORCA-job run
  C   0.57250246092362     -0.05531482458966      0.02837495883058
  H   1.33182879924991      1.83860223717434     -0.58469291201471
  Br  -1.94740619298280     -0.42906653173108     -0.32787871111428
  Cl  3.00501123657075      0.09401290677600      0.19953349741234
  C   0.45560903970430      1.46613215062369     -0.05643324139174
  H   -0.42029569673930      1.71435962086282     -0.65415813864306
  C   0.79381220014018     -0.75728692687930     -1.20855779302901
  N   0.97336431629309     -1.31620990236071     -2.23124827254505
  C   0.47568353681857     -0.84399980676000      1.32875773855585
  H   1.39956775397125     -0.76667194925232      1.89580955201868
  H   -0.35693030688175     -0.47772093847416      1.92383099071760
  H   0.28351843237425     -1.89106734350145      1.09744627425432
  C   0.35670466084416      2.12653158088652      1.30923827652830
  H   -0.56607784153110      1.84136541615146      1.81914169946417
  H   1.21362486622462      1.85693756621660      1.92893476385691
  H   0.35234273502025      3.21418674485725      1.19233131709909
