17
Coordinates from ORCA-job run
  C   0.36603465820858     -0.08840595413317      0.06036604859456
  H   1.67317302868059      1.59311644892129      0.23263325466907
  Cl  -1.70339791573118     -0.13866367510083      0.24638142685112
  H   2.14921778668471     -0.22216363255387     -0.62144843922181
  C   0.60519866259566      1.43809100781703      0.06617609404729
  C   0.60804978316718     -0.76226034569510     -1.19170327333377
  N   0.37234723481750     -1.37320999243446     -2.18456714693922
  C   0.73525460576681     -0.82418652853206      1.34193290621340
  H   1.81214449476299     -0.82637703707289      1.50022533568303
  H   0.23724881507857     -0.33890879377464      2.18341259548121
  H   0.37129560675175     -1.85134295328572      1.27788153013211
  C   -0.06703824672239      2.09626911327669      1.19121160198857
  N   -0.49537099200951      2.71854327132872      2.09200470159719
  C   0.22099331129625      2.08458191480728     -1.26258230589297
  H   0.83659658558649      1.64984078451759     -2.05214465888663
  H   -0.82774523943056      1.88811931778430     -1.48515809199399
  H   0.39015782049655      3.16400705412984     -1.22547157898916
