16
Coordinates from ORCA-job run
  C   0.41521029081625     -0.04581881613195      0.06035402182550
  H   1.60072240965861      1.73871632421608      0.34311561118403
  F   -1.24903945291589     -0.03130754485644      0.32872698531750
  H   2.17757481918208     -0.18230679249172     -0.57410979109595
  C   0.59005550882065      1.46985643352075      0.04148075446177
  H   -0.11335582388159      1.85234163313461      0.78927028683333
  C   0.40319594636425     -0.78315658320505     -1.17374034298198
  N   0.13858008634327     -1.40288961925689     -2.14788798187103
  C   0.75167389761267     -0.78396606130367      1.34629525835935
  H   1.82043294006471     -0.84033375193323      1.52958598395086
  H   0.25185837427502     -0.25728375280448      2.16344732107449
  H   0.33016530185355     -1.79060149302698      1.29636996894212
  C   0.26253150485181      2.06219317222487     -1.31949572224720
  H   0.96844434666842      1.68919289791959     -2.06541229519838
  H   -0.74516604313016      1.76502962263493     -1.61486524180848
  H   0.31730589341635      3.15610433135960     -1.29891481674592
