17
Coordinates from ORCA-job run
  C   0.65030308705559     -0.02806735827717      0.00060421329569
  H   1.62102808048172      1.77291700288135     -0.54041730523078
  Cl  -1.82295835795937     -0.38182733923449     -0.38408282341598
  Br  3.16620035782824     -0.09710872470458      0.30890050653115
  C   0.65743511388285      1.51641207367179     -0.09629487393865
  C   0.79472505354482     -0.74291718653038     -1.23712671990710
  N   0.95774816070995     -1.32568991973255     -2.24933279459616
  C   0.38375146995432     -0.76006041438543      1.31011861462257
  H   1.26097087975258     -0.75816666491083      1.95212079118926
  H   -0.43874158393758     -0.26926253235193      1.82081692629251
  H   0.09866905461322     -1.78752733262215      1.09287905660285
  N   0.53780838957003      2.03738451877977      1.27240745841198
  H   0.57264002035011      3.04972090099248      1.21087545701811
  H   1.36825040971364      1.74522295320515      1.78281157605555
  N   -0.31727448341457      2.04775724906186     -1.01450983850553
  H   -0.17288438009123      3.04666086061190     -1.10445106123107
  H   -1.25492127205430      1.84329191354519     -0.69388918319441
