15
Coordinates from ORCA-job run
  C   0.58558103364863     -0.15244646481664     -0.14987025961165
  H   1.61412213467119      1.32655464138479     -1.36052222247740
  F   -0.96769462557114     -0.09625151758471     -0.61728040131817
  H   2.45540194769865     -0.21939265470407      0.08555011493616
  C   1.02060907211142      1.27584174009531     -0.45297607883491
  H   1.53634478299565      1.72650416204278      0.38750195196739
  C   1.05054611652667     -1.18161999415982     -1.04759997823724
  N   1.22536920012513     -2.05830150432751     -1.82014259985374
  C   0.30135955063676     -0.52961673387876      1.29594002771674
  H   1.20932680433236     -0.67721274261938      1.87185252443045
  H   -0.30136350001377      0.27226964336180      1.72691087627979
  H   -0.30291341127154     -1.43868691208825      1.29907701935218
  N   -0.17852580216346      2.18588569661604     -0.68726189159869
  O   -0.75912748303057      2.60944125815970      0.31246454789289
  O   -0.46633582069596      2.48699138251871     -1.84322363064382
