16
Coordinates from ORCA-job run
  C   0.46201785536864     -0.07227581086729      0.02736613056825
  H   1.64170821296060      1.71640916017330     -0.19006572111968
  Br  -1.85907716613324     -0.24436245319968     -0.17205354403473
  H   2.13705551235745     -0.41878328244023     -0.40957769111241
  C   0.59948429180065      1.45547219292969      0.01331730724717
  H   0.00131385039686      1.81994858564445     -0.82707459903883
  C   1.03546658084973     -0.73361763103967     -1.14520318812621
  N   0.99163724515777     -1.27519931718661     -2.21559513686047
  C   0.63229531262026     -0.80149262276638      1.35686982354614
  H   1.60625635099317     -0.62693571638201      1.82031454699637
  H   -0.14456816227370     -0.47208362650908      2.04614367233482
  H   0.50370534306063     -1.87309375750036      1.18847260951762
  C   0.16082646049270      2.14746262475719      1.30036922650099
  H   -0.87648113964309      1.90451063514879      1.53326081068995
  H   0.78876895376909      1.85510830715582      2.14666863482358
  H   0.24245049822249      3.23372271208209      1.18721711806738
