16
Coordinates from ORCA-job run
  C   0.42314627159229     -0.04740497748339      0.06343961727333
  H   1.56064075854980      1.67440688330598      0.37795213326919
  Cl  -1.77328589578644     -0.13984314937878      0.39920750759777
  F   2.34490288810100     -0.09314352719288     -0.55610434802154
  C   0.54019347088112      1.46608517589866      0.05827072421038
  H   -0.16045849224440      1.87420507273883      0.79007584213070
  C   0.32948296368365     -0.78374936249088     -1.17756737977511
  N   0.15908998180252     -1.39469439304575     -2.16900626250773
  C   0.79530457446697     -0.78926249496775      1.32614973144326
  H   1.88045052691281     -0.78242854686963      1.39088474520022
  H   0.34335144540631     -0.29222225696484      2.18589193243778
  H   0.42484416268296     -1.81372007151191      1.29079119108297
  C   0.30286437733027      2.07256106645697     -1.31379557713340
  H   1.06015213693266      1.69260738452415     -2.00031071605107
  H   -0.68807803964041      1.80830048045839     -1.68939684559057
  H   0.37758886932892      3.16407271652283     -1.27226229556619
