15
Coordinates from ORCA-job run
  C   0.35786791223923     -0.08678870948780      0.02628366983381
  H   1.20828902748474      1.75114616557862      0.65366471342485
  Br  -1.90760551112301     -0.45467625513582      0.41942434972636
  F   2.27437852252315      0.25312870405376     -0.58516367434085
  C   0.36023233493596      1.43052547026025      0.05989819778075
  H   -0.57635456481891      1.83689606881681      0.44486114019114
  C   0.40039253868247     -0.86445699189605     -1.18874989807163
  N   0.37947274413005     -1.61974610161377     -2.09177919813522
  C   0.86445208790986     -0.76069516019103      1.28800673104700
  H   1.94909278185188     -0.68857436322163      1.26607724438210
  H   0.45369978047686     -0.26007291944246      2.16699340081826
  H   0.54524170219530     -1.80191361168037      1.31081911358033
  N   0.54863771728731      2.07716914218442     -1.26461257592208
  O   1.20664466205932      3.11523324175355     -1.27724398232988
  O   -0.04174173583422      1.60278532002149     -2.22805923198492
