14
Coordinates from ORCA-job run
  C   0.46774285727420     -0.07101474200371      0.02873630012514
  H   1.73468357372573      1.67845930101002     -0.10194039990211
  Cl  -1.62056279012258     -0.06170558913097     -0.12159593911756
  H   2.29688695967807     -0.32881059149796     -0.30328897125376
  C   0.67536772029389      1.45306741099025      0.02349437314502
  H   0.11771480630885      1.87032427407357     -0.81883359583719
  C   0.94296820418021     -0.72042222124045     -1.17271263346630
  N   0.86896222737014     -1.25788378318258     -2.23224659278719
  C   0.59280341740291     -0.81947832432784      1.34982319661579
  H   1.61172153385099     -0.81339167290300      1.73034378769150
  H   -0.07236059949140     -0.36052489734962      2.08181513966106
  H   0.26751345021596     -1.84981602574237      1.19225500445657
  C   0.22180803471771      2.10119342576229      1.25086425531803
  N   -0.08088939540467      2.65800343554236      2.23952607535098
