15
Coordinates from ORCA-job run
  C   0.41744630419362     -0.10376387454228      0.02591957449204
  H   1.72204343183647      1.59156245930522      0.05744941505811
  Br  -1.80559446916420     -0.14339549008548     -0.01201754826068
  H   2.23469396250015     -0.27584459363136     -0.45450946791690
  C   0.63803286445188      1.43126701044262      0.02616245698489
  C   0.84351498250528     -0.76957448887679     -1.18684924095310
  N   0.71870317790158     -1.38012371056018     -2.19970478811463
  C   0.67815766778733     -0.80200521478744      1.35722481331749
  H   1.72288525664866     -0.73436537394448      1.65718924731128
  H   0.04465651249102     -0.35755386280229      2.12602516960115
  H   0.39887053171536     -1.85200837612622      1.25004642396188
  C   0.07206437255410      2.08131008038622      1.21139895852459
  N   -0.27784710269821      2.64423933485919      2.18176707769773
  C   0.14539977283659      2.07600975624129     -1.19490283068990
  N   -0.16599726555961      2.66401634412197     -2.16288926101394
