14
Coordinates from ORCA-job run
  C   0.40922051506574     -0.08065299234173      0.01587735523240
  H   1.64795704075287      1.67792088515842      0.30852173490787
  Cl  -1.65825765786148     -0.12124261947815      0.11178821740008
  H   2.21077094113431     -0.23005047249456     -0.58740250341471
  C   0.61960640428997      1.43878809567850      0.03982742026476
  H   -0.04863542558908      1.84870710064663      0.80226535902776
  C   0.76404919065316     -0.79295682932463     -1.19101531831498
  N   0.57455606737953     -1.46659105188658     -2.15392413939465
  C   0.72802412299458     -0.76742771297283      1.33917285718967
  H   1.80057922471608     -0.79989858763218      1.52136421850888
  H   0.23022844254656     -0.22606065092049      2.14673205478421
  H   0.32788375043682     -1.78259306713637      1.31448336626519
  C   0.31652797964169      2.09383271802345     -1.23028847050683
  N   0.10054940383923      2.68671518468054     -2.22002215194965
