15
Coordinates from ORCA-job run
  C   0.56275399488978     -0.07208016094263      0.08441554287537
  H   1.85616738072302      1.56201335107346      0.41415435138670
  Br  -1.81162214035851      0.03946700255730      0.02243968833179
  F   2.53706381227683     -0.20495732409792     -0.20332979323686
  C   0.81303508014855      1.42737801544897      0.13788611151422
  H   0.60075044915777      1.87977374954899     -0.82693484018553
  C   0.60501973439476     -0.67109428561375     -1.22993638943181
  N   0.58383594086493     -1.16847648775672     -2.29648680994023
  C   0.65981693392105     -0.96166576356492      1.30471549649624
  H   1.70620839567729     -0.99108923042223      1.59846166282073
  H   0.03994185571235     -0.58147465909650      2.11165792914223
  H   0.32169926978181     -1.96332741508218      1.03835689404183
  N   0.02169644818558      2.19631055855062      1.14149757154884
  O   -0.55018772331720      3.21329085059652      0.75484380655671
  O   0.07846056794196      1.82515179880097      2.31194877807978
