18
Coordinates from ORCA-job run
  C   0.56368866101391     -0.05504743558846      0.06681303326055
  H   1.57708491242491      1.74517652262535      0.51376890146905
  F   -1.24908645144242     -0.03057583128720      0.23967989937388
  F   2.29326192377447     -0.06438096580251     -0.38401876525226
  C   0.60619249391938      1.47030460783457      0.10342303887295
  C   0.29690936317961     -0.73597277023748     -1.18999401432389
  N   0.10966189310406     -1.29319280438011     -2.20745215665916
  C   0.81036846586357     -0.87632012402639      1.31115041080491
  H   1.15170960583667     -1.86761188883506      1.01009889875469
  H   1.60137545396588     -0.40822200358971      1.89402857223283
  H   -0.10163679688785     -0.94902279216482      1.89624193363534
  N   -0.36900510110627      2.02396217804852      1.11270941913394
  O   -1.25837659164487      2.78252923247855      0.74126209126330
  O   -0.14610897889971      1.73953586495310      2.28832481468429
  C   0.38569672003540      2.08850930802449     -1.25527868718777
  H   1.16160013737723      1.70712904422404     -1.91907976680651
  H   -0.59699748647634      1.80444276627846     -1.62899972018372
  H   0.44810177596232      3.17702709144467     -1.20607790307245
