13
Coordinates from ORCA-job run
  C   0.54546791599740     -0.03213897597255      0.03072452854258
  H   1.83137505742207      1.62012420446266      0.20251776224931
  Br  -1.81083959715980      0.04646161355705      0.00544601289483
  F   2.58276622261934     -0.27312752473462     -0.24662366988148
  C   0.77151382673977      1.46412520033045      0.01860853609137
  H   0.15753816328237      1.94231191285054      0.78289179252924
  H   0.50075174247975      1.87900265187059     -0.95257139663568
  C   0.63963094915566     -0.76799331505182     -1.20945072740399
  N   0.59769122478232     -1.35730754850966     -2.22818118778374
  C   0.68307174627029     -0.77530783815491      1.34160706570925
  H   1.74010951905138     -0.76323522923656      1.59466867279262
  H   0.08027948417331     -0.29168200434506      2.11137778166100
  H   0.34103374518614     -1.80451314706612      1.23029482923470
