15
Coordinates from ORCA-job run
  C   0.49083730820233     -0.04066209867080      0.02605083241372
  H   1.72005524727808      1.62109639879184      0.12076102516270
  Br  -1.85833180365416     -0.07097694402568      0.08920396635637
  F   2.56991986792978     -0.17801044910260     -0.26821040119929
  C   0.64751263073761      1.46715124104307      0.02267281944829
  H   0.12730109231058      1.84553559073701      0.91549752660111
  C   0.61133926278584     -0.76311006030664     -1.21806555320691
  N   0.57634069752539     -1.39907140369701     -2.20858620847791
  C   0.70284423011196     -0.77785802780410      1.33042266667165
  H   1.77150331640114     -0.75371509850924      1.52612197786239
  H   0.13418502749735     -0.29820548206388      2.12861230991080
  H   0.36377965798683     -1.80979358253411      1.23686989300119
  N   0.19350220465307      2.06340545776124     -1.22505541461279
  H   0.48069427884312      3.03371283555623     -1.24970800073073
  H   -0.81867301860892      2.02506162282465     -1.25133743920060
