16
Coordinates from ORCA-job run
  C   0.64434990289394     -0.02426897036828      0.02210733454273
  H   1.67890502547975      1.82268367955160      0.12508178414065
  F   -1.13189729425788     -0.03078640351553     -0.16032061158033
  F   2.49739832085512     -0.05598358981863      0.02140904737442
  C   0.64182784346678      1.50517207087383      0.03074365527299
  C   0.75748824685923     -0.71722349081290     -1.24792059079574
  N   0.81111761741697     -1.32785360257844     -2.25011979934514
  C   0.64670274064572     -0.80007695631723      1.32028117838143
  H   1.02095612119259     -1.80565002232408      1.13184011840502
  H   1.33269460949059     -0.31948335928858      2.01623092896075
  H   -0.35952773224890     -0.84202999508527      1.73192816951475
  C   -0.09454511799942      1.98639439615038      1.22329740834643
  N   -0.64746508313942      2.48060120041353      2.13505988232646
  N   0.09121570891457      2.02198496377979     -1.21414374882573
  H   0.02963239643037      3.03195536212559     -1.16341787283499
  H   -0.84207330600001      1.63040471721419     -1.28187688388370
