16
Coordinates from ORCA-job run
  C   0.64891677595482     -0.06862131278767      0.05418568585795
  H   1.60569763360473      1.79666930691210      0.48389551698467
  Cl  -1.74636192223269     -0.06520216908567     -0.04284959591553
  Cl  2.95262710287080     -0.05967534438288     -0.23824020189276
  C   0.63302470183379      1.46424320054957      0.11472064515835
  C   0.53413338736550     -0.72206836674969     -1.22268247359292
  N   0.49111972023813     -1.31345276207562     -2.24072286968353
  C   0.75126813098803     -0.90400246314992      1.31657190473966
  H   1.13186352883546     -1.88700742261895      1.03957873384762
  H   1.45686581640410     -0.44523445868608      2.00484388275438
  H   -0.21651840143042     -1.00079936291716      1.79919006881621
  N   -0.31465087450128      2.05597422973562      1.15009939554436
  O   -1.02257849964095      2.99438277385902      0.81568254570920
  O   -0.18233369292134      1.61866868178807      2.28584942211310
  C   0.39222613618028      2.07199251573446     -1.18539385630090
  N   0.27201045645107      2.58512295387479     -2.23496880413983
