15
Coordinates from ORCA-job run
  C   0.50678381163444     -0.03773864922712      0.02548177910939
  H   1.72327212774813      1.64636552529951      0.13376258576958
  Cl  -1.69832211185377     -0.03800230794374      0.09707974778647
  F   2.53237251786444     -0.19398986456486     -0.27732934810975
  C   0.65621057315994      1.47021302994293      0.02285437609207
  H   0.11749634358344      1.84334831794195      0.90648066800546
  C   0.58780856961169     -0.76232190169173     -1.22126847494100
  N   0.53047979968850     -1.39714140691435     -2.21054666233807
  C   0.69735739152025     -0.77580787324812      1.33155958079634
  H   1.75944702062167     -0.75644416096057      1.55753203361154
  H   0.11062439753510     -0.29684689051338      2.11676713353267
  H   0.35578856463531     -1.80601348870088      1.23027940671268
  N   0.20413105480440      2.05904455307146     -1.23003904989064
  H   0.43286429722657      3.04526191520319     -1.22953598283219
  H   -0.80350435778011      1.96463320230569     -1.27782779330457
