16
Coordinates from ORCA-job run
  C   0.59560527168718     -0.05289436816674      0.02957093249865
  H   1.36528485398652      1.85150574925511     -0.54474599670307
  Cl  -1.78796254961957     -0.36239517921408     -0.28053848009332
  Cl  2.99899178555702      0.06831346858860      0.17742907316768
  C   0.47354003211272      1.46741528385589     -0.05276251200698
  H   -0.38220787750427      1.70960100634266     -0.68110451476221
  C   0.78032444857642     -0.75353413306036     -1.21501042454176
  N   0.92886254363149     -1.31059453972482     -2.24267556181007
  C   0.48340677461401     -0.85010962425588      1.32179792780546
  H   1.40804287014470     -0.81294486507208      1.89102596911427
  H   -0.33537874393625     -0.46082360479276      1.92137327538925
  H   0.24616700482514     -1.88529458571677      1.08032528372009
  C   0.31583276316865      2.11978470839601      1.31067645258780
  H   -0.62195308593232      1.82097960395761      1.78305072582315
  H   1.15091771193025      1.85785317243256      1.96331460338005
  H   0.30338619675835      3.20792790717506      1.19870324643104
