16
Coordinates from ORCA-job run
  C   0.42978946789052     -0.12220794838674     -0.08301514466199
  H   1.27985013870943      1.60587600168841     -0.99206649990993
  Cl  -1.34751503736024     -0.56903542493056     -1.01405210602329
  H   2.37980566613056      0.10665857287771      0.35095997662728
  C   0.56521391252478      1.41794291004101     -0.17933867690308
  C   1.36998729622090     -0.86897794838248     -0.89130986812560
  N   1.81515377374052     -1.60979154568892     -1.70193378181537
  C   0.10939259643326     -0.68555974064193      1.29418677425975
  H   0.95446305373504     -0.57125688943066      1.96748883994104
  H   -0.74827437260302     -0.14958152743250      1.70180705886996
  H   -0.14699107566897     -1.74133083903942      1.19000609951806
  N   0.98218577868285      2.00548307292569      1.10445757064442
  H   1.06555545248724      3.01094081299810      0.97917644530039
  H   1.90978873720165      1.60486881800542      1.25362827614040
  C   -0.68377179948718      2.12340418522596     -0.53089481421122
  N   -1.56163358863731      2.86523749017093     -0.77554014965079
