15
Coordinates from ORCA-job run
  C   0.48903739758355     -0.06465678474663      0.12673081775174
  H   1.77014294428022      1.46062921940559      0.99352898879631
  F   -1.10353595413871      0.07404055705167      0.39891884027734
  H   2.27913237539615     -0.09523387861433     -0.46603368661314
  C   0.93752415108616      1.38068740308016      0.30318209904432
  H   1.16139563236777      1.84847884157077     -0.65015816512098
  C   0.44098703380420     -0.57339511736547     -1.22276032183343
  N   0.19302285885936     -1.00605475450290     -2.29383825896608
  C   0.75561449225485     -1.04283895713518      1.26073858715571
  H   1.79704536317937     -1.34408610629304      1.31178527535499
  H   0.45123927586461     -0.55264113532727      2.18778591779342
  H   0.11412012457337     -1.91473730443718      1.11961583688639
  N   -0.15915994228732      2.23030658675390      0.93408246071630
  O   -0.83286762053099      2.94978441135343      0.20068184921240
  O   -0.26905813229258      2.17893701920648      2.15942975954471
