16
Coordinates from ORCA-job run
  C   0.75911747384386     -0.00945896277205      0.03361258605644
  H   1.63091064126416      1.96527159639839      0.16376718089570
  F   -1.24054922249085      0.06275856576529     -0.13411224535936
  Br  3.14859389576779     -0.12088172606290     -0.05315674442540
  C   0.64190270464486      1.52430864350602      0.03127168541506
  C   0.62918562816014     -0.71685946656438     -1.21729880649227
  N   0.55242006246269     -1.35632734657259     -2.20271729215899
  C   0.64508888669280     -0.78574032910678      1.32820095301682
  H   1.05958858403714     -1.78426685953550      1.19517091272158
  H   1.20792879436201     -0.28567142486686      2.11676418751232
  H   -0.41011036590855     -0.83924280105275      1.58577220926267
  C   -0.15810225566785      1.94495599763521      1.20615761636870
  N   -0.70713653335862      2.41036532705242      2.13533662622851
  N   0.10413838469945      1.98255085367499     -1.23547283683792
  H   0.03799485102206      2.99336787000775     -1.22834814092809
  H   -0.82419152953111      1.57071006249368     -1.28476789127577
