15
Coordinates from ORCA-job run
  C   0.70380324175878     -0.04846459324080      0.10037137051804
  H   0.98058405172049      1.87490210576466     -0.75759708297706
  F   -1.16935761049638     -0.41617298684295     -0.62784316574776
  Cl  2.86735153355271      0.20017328964539      0.55478918553556
  C   0.39058353242214      1.44001525928309      0.05971601990242
  H   -0.66545145621665      1.48986110629049     -0.19180938884436
  C   0.96405842862693     -0.71034841809745     -1.15709917713368
  N   1.28504997607483     -1.23494373250664     -2.16067786690272
  C   0.37089449420798     -0.86351666373200      1.32578273109645
  H   0.84549575317480     -1.84273726449933      1.25798703427703
  H   0.72694191372837     -0.34974287385711      2.21562614184010
  H   -0.70986331820632     -0.97186047910680      1.34515186512567
  N   0.60627498538581      2.08342747734622      1.35393630179362
  H   0.20983895236633      3.01417829043399      1.31342501541201
  H   1.60412552190016      2.16612948311924      1.50573101610468
