18
Coordinates from ORCA-job run
  C   0.66110758638557     -0.07731385209634     -0.01203817196261
  H   1.63188252544894      1.61161301011540     -0.78451650145433
  Cl  -1.64251290853159     -0.61203496085156     -0.83871458688906
  Cl  3.00958768480843     -0.13018113208884      0.57919567712928
  C   0.73422530612483      1.44844570310836     -0.17650572135653
  C   1.03167643302516     -0.86110101553527     -1.15934956379934
  N   1.38413599180449     -1.45282225920457     -2.11638804997651
  C   0.21774989056098     -0.70518919243280      1.29292700141721
  H   0.98692954310245     -0.58648319705719      2.05093560483960
  H   -0.69063824289352     -0.21206648487914      1.62810215517004
  H   0.01095330913519     -1.76205445661214      1.13721734925265
  N   0.85242281849882      2.04462526764210      1.15280678833419
  H   0.82981801044947      3.05251524297144      1.04834638500996
  H   1.76345952806777      1.78847506164737      1.51957504800478
  C   -0.42211633388352      2.12022909138030     -0.90601041909594
  H   -0.59066832345938      1.67158462657098     -1.88228378614427
  H   -1.34202755964844      2.04473347392089     -0.33098383484211
  H   -0.15585525899563      3.17697507340104     -1.04191537363704
