15
Coordinates from ORCA-job run
  C   0.45657941900954     -0.03847558366819      0.06181246430505
  H   0.92513137109632      1.83600247887449     -0.81178672231973
  Br  -1.78948643516500     -0.50244226839812     -0.67521901937659
  F   2.46384901050084      0.23198335807126      0.36984900394603
  C   0.37046190877890      1.48978787667062      0.06934652934702
  H   -0.66856211901318      1.79998798300675     -0.02805472306822
  C   1.01490246353894     -0.69481217561785     -1.09740500380999
  N   1.41299480309993     -1.24512970509354     -2.05917479561542
  C   0.33105999390147     -0.81281654661737      1.35393951214775
  H   1.27940531297566     -0.72620310032690      1.87697407658577
  H   -0.47181829661971     -0.39121320820392      1.95588113551955
  H   0.10898784983157     -1.85819826036391      1.14060014698577
  N   0.88799587918244      2.00540393682954      1.33469912670830
  H   0.82532733124268      3.01673273508923      1.31554159581797
  H   1.86350150763958      1.72029247974793      1.33048667282672
