14
Coordinates from ORCA-job run
  C   0.47269917024300     -0.07415240100657      0.03357167666727
  H   1.72284896616469      1.69365529653903     -0.14844697700651
  Br  -1.81757081368207     -0.10213841603009     -0.15934189909216
  H   2.17341378826832     -0.39097503022457     -0.36944951634036
  C   0.66956760712188      1.45236681865987      0.01506835412922
  H   0.08344172620654      1.86380031779079     -0.81069585410069
  C   1.01023441806822     -0.72475760573814     -1.15247909143276
  N   0.96031803284875     -1.25936761034210     -2.22035428985849
  C   0.61251695810292     -0.79888839252108      1.36681647575309
  H   1.61279764091534     -0.71008274072929      1.79320990307468
  H   -0.10796562837307     -0.38363811154609      2.07129181998589
  H   0.37557018181975     -1.85400200864088      1.21512710341355
  C   0.26001718198087      2.10448887960381      1.25608660069431
  N   -0.00352922968513      2.66169100418530      2.25583569411294
