15
Coordinates from ORCA-job run
  C   0.62776492304858     -0.02965490213429      0.02272363362951
  H   1.65899760189076      1.82514180106861      0.25654303141163
  Cl  -1.80311472608323     -0.00021893160806      0.11625124626230
  Br  3.17095190752749     -0.24467702423449     -0.39717873399282
  C   0.64473892748214      1.49213815728428      0.04413351763794
  H   0.00207295421789      1.78732866793945      0.88329272052641
  C   0.48990998563742     -0.73970260799333     -1.22093311484637
  N   0.35244851297942     -1.37300883139966     -2.20594102855030
  C   0.67378982870639     -0.78753330423392      1.33588314981057
  H   1.68843628447575     -0.82660902336923      1.72391650831113
  H   0.02237558842303     -0.28934294046930      2.05317538350868
  H   0.30065964421828     -1.80054875721473      1.19028119841796
  N   0.23195659047640      2.03607351463333     -1.23683345467941
  H   0.41717864538383      3.03041928795783     -1.25576581432501
  H   -0.76535666838416      1.88475489377346     -1.33429824312221
