17
Coordinates from ORCA-job run
  C   0.53586898117210     -0.07456787472679      0.04649827971282
  H   1.74517870492973      1.65031901402335      0.16366862094738
  F   -1.26132516428852      0.08353474888586      0.24514907883903
  F   2.26579465348284     -0.28093143915824     -0.42081024317801
  C   0.67995681476821      1.44863030750519      0.03425935163538
  C   0.22053419363405     -0.79032717665960     -1.17798732364279
  N   -0.02448707724054     -1.37370287700557     -2.16813159034633
  C   0.73314363388134     -0.82207420242001      1.34447570100998
  H   1.64520224145347     -0.46183509351642      1.82026434765527
  H   -0.13089944450144     -0.67473303361809      1.98822946336167
  H   0.86336792506164     -1.88406353419316      1.13406433986907
  C   -0.01779294532027      2.06428497969614      1.16882755484760
  N   -0.47321428404488      2.66148520943356      2.07202067448281
  C   0.20828492569566      2.06041335965336     -1.28257451839455
  H   0.80725055830322      1.64885371523445     -2.09678237136171
  H   -0.83914327340769      1.80446344004880     -1.43429888667724
  H   0.32643955642108      3.14730045681718     -1.26772247876037
