18
Coordinates from ORCA-job run
  C   0.45454709384877     -0.03004315175247      0.01655336866136
  H   1.73453364025852      1.68105690704581     -0.04106194746863
  F   -1.21253447851708      0.02110615199599      0.02368184051953
  H   2.32629848744535     -0.35897811710990     -0.28337126785966
  C   0.66369792961688      1.49438281309821      0.00420303944315
  C   0.67719133225930     -0.74877955291780     -1.21059868823627
  N   0.52542063873554     -1.36831628108590     -2.21089314039038
  C   0.64042488568816     -0.78980308258431      1.32400268642301
  H   1.52260993264964     -0.46662901679965      1.86984931943069
  H   -0.25450811327486     -0.64287151017263      1.93422974959930
  H   0.75296819076782     -1.85237494890579      1.10455642881968
  C   0.09972731985070      2.13541717661249      1.27639809712219
  H   -0.97047479229384      1.93956509492456      1.34745536027117
  H   0.59149743713949      1.76278086071767      2.18004572566322
  H   0.26397966669844      3.21871756794450      1.23488778643834
  N   0.05689105203399      2.02327266960920     -1.22001691872333
  H   -0.01461351828212      3.03238490234331     -1.14119616858891
  H   -0.88237670462473      1.64174151703673     -1.25435527112446
