15
Coordinates from ORCA-job run
  C   0.43406701233646     -0.08110699150973     -0.02282361301924
  H   1.79739762131290      1.59162511341044     -0.10815688405723
  Cl  -1.62301675373622      0.02167569830138      0.02666668913556
  H   2.28213915051068     -0.39173180986662     -0.50181831547835
  C   0.72610890613559      1.41135198859748     -0.03702811059819
  H   0.30746261966842      1.86673078724899      0.85721429244676
  C   0.78159857001293     -0.91243206638472     -1.15602607710211
  N   0.59030299429740     -1.69490470752571     -2.03109391792887
  C   0.65989773653817     -0.72406235940421      1.34648470163670
  H   1.71868837785037     -0.79452348028055      1.58337530037163
  H   0.14396383925270     -0.13495232660416      2.10741762280215
  H   0.21939331278384     -1.72282694173560      1.33347650761840
  N   0.12238926019788      2.15853043212949     -1.17755192615973
  O   -0.36913105910820      3.25909669345887     -0.92014065035706
  O   0.23143841194711      1.67748997016465     -2.29957561931041
