13
Coordinates from ORCA-job run
  C   0.63647261118655     -0.03858552773013      0.02088117434855
  H   1.82014554454197      1.73600701302350      0.28905045412388
  Cl  -1.79556353627900      0.23020267924951      0.00421090414369
  Br  3.13397965827315     -0.50333355196890     -0.34639150050234
  C   0.79805557137472      1.46915009246365      0.02886145187309
  H   0.10975475668522      1.89308077751300      0.75846575371528
  H   0.55225453178806      1.87936616094634     -0.94964225604429
  C   0.42823150341986     -0.74899471457577     -1.21300035813086
  N   0.26168361389633     -1.33525130495057     -2.22234749729937
  C   0.66655041157430     -0.78891222219998      1.33765566878164
  H   1.47325907007335     -0.39067688883946      1.95236452000910
  H   -0.28411554063881     -0.66832469192965      1.85351654067733
  H   0.85968180410427     -1.84700782100153      1.16768514430431
