15
Coordinates from ORCA-job run
  C   0.74950422337015      0.00103982186473      0.01608324860214
  H   1.57162499892418      1.97918604091728      0.24479146702330
  F   -1.24089465187187     -0.01165200847297     -0.18370134730458
  Cl  3.01654833708797     -0.11031213651040     -0.01278656390483
  C   0.60791549676343      1.51490030722091      0.03908742775021
  H   -0.07326317356392      1.71401402895157      0.87731777265900
  C   0.67054964186677     -0.72724272618472     -1.22949073696266
  N   0.63200363016081     -1.37486484016144     -2.21082736370460
  C   0.64131424454009     -0.75978216918979      1.31748142856385
  H   1.06720680654210     -1.75622055880857      1.21047820897857
  H   1.20088618862138     -0.23593437523022      2.09359845151245
  H   -0.41435564035085     -0.82002397499373      1.57064524191551
  N   0.10212356800463      1.99222898567553     -1.23979270902334
  H   -0.00475881147465      2.99878346178046     -1.19915540355163
  H   -0.81359485862017      1.56044014314138     -1.31847912255336
