16
Coordinates from ORCA-job run
  C   0.57929594395005     -0.09834265253357      0.00092230644434
  H   1.38729521970160      1.63382425796443     -0.88847121824503
  Cl  -1.49590680198791     -0.57135732455559     -0.86347852548238
  F   2.42383026451660      0.11181127664918      0.50701674293612
  C   0.59262975793800      1.43898728884266     -0.15709392471719
  C   1.15004650863346     -0.88406826837735     -1.06769255643042
  N   1.62552912454418     -1.51912312860098     -1.93629330138196
  C   0.21740548961808     -0.73622576360903      1.32417595396447
  H   1.06376681301594     -0.64549328602628      1.99922391022114
  H   -0.65409853408065     -0.23839106480538      1.74321597284493
  H   -0.02469531248748     -1.78550978039205      1.16262140258618
  N   0.87232731771766      2.03689679011326      1.15182731893311
  H   0.89308813772566      3.04474874651948      1.04611905969605
  H   1.80326881596397      1.69669742366707      1.37352429203926
  C   -0.62101872463895      2.09161392706923     -0.67325435339253
  N   -1.43976402013019      2.84660155807492     -1.04880308001607
