18
Coordinates from ORCA-job run
  C   0.57488762672435     -0.02296701510393      0.01460842419036
  H   1.74629792326275      1.72109157098866     -0.08941094216301
  F   -1.22713429377034      0.02006570824295     -0.03446074943069
  F   2.43703453840624     -0.23853348479750     -0.11209133353436
  C   0.68282357994095      1.50380960781419     -0.00908820443813
  C   0.56106094906596     -0.74698476397174     -1.24462076856957
  N   0.50260909590694     -1.38039978390081     -2.23265394459319
  C   0.61001829812852     -0.79810887277630      1.31490070877690
  H   1.49030415336698     -0.50333611864643      1.88164334442622
  H   -0.30539835419003     -0.62558413760209      1.87830719618165
  H   0.69654254062830     -1.86197170007250      1.09241871863356
  C   0.13233860845740      2.11834313688578      1.27948032270357
  H   -0.92352307828149      1.86673587879729      1.37832812352627
  H   0.67030276780223      1.76841358391899      2.16555167216922
  H   0.24278703398412      3.20825222827308      1.23426293318318
  N   0.02176465363015      2.00426537322240     -1.21552902517082
  H   -0.01195961215040      3.01711541508886     -1.17273245198008
  H   -0.92547643091262      1.64242337363911     -1.17454402391109
