14
Coordinates from ORCA-job run
  C   0.57807234886724     -0.07351215779994      0.01137258501322
  H   1.50776076590968      1.79783655067044      0.48757345679689
  Cl  -1.79675875264865     -0.14839126502362      0.24630892940080
  Cl  2.88992770760050     -0.07147540441856     -0.55170894624958
  C   0.57550927937055      1.45312789539094      0.03933983121097
  H   -0.26003325337444      1.79574593095857      0.65005750754272
  C   0.38419467558733     -0.81334932722415     -1.20544215279818
  N   0.22841552296786     -1.45154201415391     -2.18353925144176
  C   0.75770251643027     -0.79091942958257      1.33552923748047
  H   1.80047645067100     -0.77048483845747      1.64396211571136
  H   0.13659643851417     -0.30785157228472      2.08913384907105
  H   0.42274577739769     -1.82285224183128      1.24155941751351
  C   0.45333323166356      2.06606231063251     -1.27789209747626
  N   0.34511729104323      2.61609556312378     -2.30887448177522
