17
Coordinates from ORCA-job run
  C   0.49355361726203     -0.04665276008897      0.03730000616314
  H   1.67561768758410      1.70122027636170      0.14202557805724
  Cl  -1.58223121027912     -0.28173604455631      0.09589233846249
  H   2.32666436626241     -0.20761704597677     -0.48496248752606
  C   0.60946228337772      1.48717122733277      0.06528929217244
  C   0.86125093403583     -0.72703159801996     -1.19352100337476
  N   0.70857705716479     -1.38657827114443     -2.17198970332768
  N   0.80271280809541     -0.70160244713076      1.30147932440370
  H   1.78006242379251     -0.96208155717280      1.24173492114328
  H   0.24079877356431     -1.54555045170689      1.34571744542417
  C   -0.06504781319320      2.11467444387254      1.28704169957862
  H   -1.15032143147345      2.10958532106831      1.18673178705432
  H   0.20426288443722      1.57107747741674      2.19379149985134
  H   0.27396969582065      3.15410143696272      1.37834617600095
  N   0.16010375548896      2.01613386455931     -1.22084953577454
  H   0.12822396545641      3.02819342369055     -1.16062853218485
  H   -0.78656979739661      1.68700270453222     -1.37962880612381
