13
Coordinates from ORCA-job run
  C   0.63165300374165     -0.07253550050648      0.00551918879628
  H   1.45367646840219      1.83427461688978      0.48980908104305
  Cl  -1.72059473726989     -0.29281346886304      0.19933187001969
  Cl  2.95816608759710      0.03132767893108     -0.44735705202099
  C   0.53860806285072      1.44895827545969      0.04256644475968
  H   -0.30156639188865      1.72988431319110      0.67582527367382
  C   0.51186459396885     -0.81887637190386     -1.22722206086486
  N   0.42189683255419     -1.47023620570628     -2.20514303977237
  N   0.84913558098914     -0.70778504835225      1.27084717818233
  H   1.72499904757922     -1.21097432870107      1.23591245106848
  H   0.08143011918286     -1.33887214330146      1.45460405889744
  C   0.36281164862323      2.06028972829201     -1.26895802139237
  N   0.21678968366937      2.60352845457081     -2.29895537239017
