13
Coordinates from ORCA-job run
  C   0.63755363220032     -0.07254181215896      0.00453893975331
  H   1.47432092034604      1.83897961831126      0.47488871650092
  Br  -1.89684698329757     -0.27755783059831      0.17133038340239
  Br  3.14071224509414      0.02101649722371     -0.45832802149329
  C   0.55091062357245      1.45290998237495      0.04460326279359
  H   -0.27467245721906      1.73180159992397      0.69840288834746
  C   0.52605104948872     -0.81965783927932     -1.22604139700047
  N   0.44265438571403     -1.47710165180237     -2.20250276826952
  N   0.83209674553382     -0.70945047855657      1.27627235412215
  H   1.70563831793689     -1.21875427324182      1.25430533331969
  H   0.05893762570987     -1.33872954902231      1.44702126113907
  C   0.34678434489837      2.06360338665143     -1.26352940908246
  N   0.18472955002197      2.60165235017432     -2.29418154353285
