17
Coordinates from ORCA-job run
  C   0.56945831804638     -0.04300445851302      0.02357482876476
  H   1.65495681782843      1.71210713566165     -0.04466097570167
  Cl  -1.67065369220227     -0.28457253659267     -0.07129454716653
  F   2.57844164403540     -0.06024587008654     -0.03397427838581
  C   0.59154431078118      1.48535300130496      0.00977447639036
  C   0.73709438754349     -0.74695993730585     -1.23735896031803
  N   0.83623939258774     -1.38955162418319     -2.21820413904712
  N   0.68756644481341     -0.73922266716593      1.26948500591395
  H   1.67424119956028     -0.97841357711434      1.29690113090539
  H   0.11232581622025     -1.57008957519193      1.24143973946071
  C   0.03405311324605      2.08427101748279      1.29699584739715
  H   -1.02974822034764      1.86646932194928      1.39832086386473
  H   0.55313459367299      1.68381957910237      2.16849133786116
  H   0.17551306500507      3.17094397882849      1.26676872674283
  N   -0.00788145396861      1.98370162946455     -1.22391650099152
  H   0.19785447043357      2.97225101996059     -1.30454510666064
  H   -1.01305020725576      1.86345356239879     -1.17402744902971
