16
Coordinates from ORCA-job run
  C   0.55405840351628     -0.04122917217571     -0.02328863381812
  H   1.59720822061234      1.85800921022329     -0.23264254020849
  F   -1.06671621647606     -0.20466444707735     -0.13373850278152
  H   2.43290822228296     -0.05087024676678     -0.07116180053566
  C   0.58123641355230      1.49795537213595     -0.12675967300205
  C   0.96855770717736     -0.75003024057714     -1.21118520209908
  N   1.04775841206076     -1.40650725026409     -2.19291490497461
  N   0.63615019565963     -0.64971828464076      1.28269980554069
  H   1.57374287199625     -0.99684658331798      1.40689323183358
  H   -0.04904083598021     -1.39565291529824      1.29747984269629
  N   0.16969958077554      2.03143549027704      1.25483237243194
  O   1.07328753695840      2.24827861819870      2.05762322755031
  O   -1.02290719007766      2.24771557855199      1.46014777616717
  N   -0.25478761867735      1.96804449658865     -1.17246237678861
  H   -0.27600154744580      2.97854049673840     -1.19111523364286
  H   -1.18228415593469      1.59027987740401     -1.03737738836896
