14
Coordinates from ORCA-job run
  C   0.45344861177130     -0.09872759434395      0.10517044842122
  H   1.76947276608066      1.38658357798430      0.95882928933754
  Br  -1.71437034290023     -0.15450702129271      0.20108788047423
  H   2.32906212736668     -0.17887747783046     -0.54816998271466
  C   0.88797861263458      1.35688753889282      0.32679580714396
  H   1.06721289139113      1.84602011292660     -0.62718460164769
  C   0.74133060748939     -0.58430784056514     -1.24224015427588
  N   0.52375418578333     -1.05121622123800     -2.31260762303701
  N   0.77422550162044     -0.96173892895991      1.22453186874953
  H   1.75147587769380     -1.21157953591917      1.11051730110106
  H   0.20727377138450     -1.79858476071442      1.14567589888870
  N   -0.11767460601265      2.20247692580584      1.05600845799949
  O   -0.73234237729426      3.04695265468189      0.40343635620091
  O   -0.21039762700870      2.04751857057233      2.27123905335857
