15
Coordinates from ORCA-job run
  C   0.74065305005248     -0.03716792535770      0.04078939016960
  H   1.39532088005926      1.94772584552991     -0.46760510832687
  F   -1.22025232716812     -0.28023610711611     -0.25695831311371
  Cl  2.94953130809883      0.05010767910951      0.30100676790458
  C   0.50905192481939      1.46581757943482     -0.05373476164923
  H   -0.32155385862947      1.60535050312079     -0.74227739083595
  C   0.84295967815471     -0.76016356254291     -1.21775238521265
  N   0.95927207158734     -1.35198228689699     -2.22817006967362
  N   0.53545410363416     -0.75126249460804      1.26933746883328
  H   1.23924592764449     -1.47015991567308      1.36020221633232
  H   -0.39130005061472     -1.14823740273939      1.15868779846624
  C   0.16527707179833      2.05705007561263      1.30172423355627
  H   -0.74457840143930      1.58990448590469      1.67693443090350
  H   0.96803023750181      1.87958111395689      2.01843411213962
  H   0.00155838450082      3.13614241226500      1.20921161050661
