15
Coordinates from ORCA-job run
  C   0.53813261762139     -0.03039884485569     -0.07632511088181
  H   1.42130327751815      1.74531985925717     -0.88385321663849
  F   -0.94657545787824     -0.34682617979733     -0.66804093744202
  H   2.25505399350042      0.23627003339580      0.47618569555320
  C   0.57267236252098      1.51461837271364     -0.23623083303359
  C   1.28337923872628     -0.80905005047582     -1.04790479119811
  N   1.76755502949234     -1.48581766867357     -1.88409140735280
  N   0.23744801655783     -0.55997095120015      1.23866673692470
  H   1.09313963208480     -0.89024690732394      1.65665616776222
  H   -0.42640801222305     -1.31342474600328      1.10704550235548
  N   0.75459078138981      2.24592781794384      1.01314237964092
  H   1.63686145405411      1.86770291297339      1.36027911070299
  H   0.04731368271061      1.88612348034584      1.64912876970311
  C   -0.63462474980689      2.06536460547549     -0.89085771183629
  N   -1.52103186626850      2.61475826622462     -1.43084035425954
