15
Coordinates from ORCA-job run
  C   0.49797444154988     -0.06473499049119      0.00962987709863
  H   1.46738202183144      1.74809825438513     -0.42178811918403
  Br  -1.83169610845483     -0.40592137556583     -0.36630317517322
  F   2.51917089708818      0.04593920799905      0.26128658336715
  C   0.48488809583741      1.45715938234381     -0.05628746651922
  H   -0.27034283404968      1.78259779711769     -0.77295986542934
  C   0.87710147146251     -0.76403506135596     -1.20664671610634
  N   1.15283273939327     -1.34132197294658     -2.19526584960892
  N   0.49826114076245     -0.74977826529094      1.26950633621777
  H   1.49056493963351     -0.90396935724293      1.43211535530346
  H   0.00269780249635     -1.62550098389185      1.17271617550333
  C   0.22880081022936      2.07354861806686      1.30764570865253
  H   -0.72043019908209      1.72660125873522      1.71825556807671
  H   1.02710257681583      1.78837972122445      1.99248933118146
  H   0.20436220448639      3.16540776691306      1.22543625662002
