17
Coordinates from ORCA-job run
  C   0.59708365144393      0.03876133978814      0.08078511376199
  H   1.74100255353824      1.84995330346160     -0.00161995653880
  F   -1.02925874761380     -0.04217546387918      0.41048954274134
  H   2.36382904610313     -0.09865265486309     -0.53638423668450
  C   0.68814371861956      1.58241393662260     -0.02461675437399
  C   0.57791273044943     -0.78116330697030     -1.10853045661529
  N   0.33661919955888     -1.48893953509340     -2.02643801243314
  N   1.01137281142899     -0.53541411351422      1.34855169736450
  H   1.91050499835358     -0.96927730593853      1.20345363315811
  H   0.31268854018478     -1.22897383209320      1.59038842124660
  N   0.05143409773216      2.24376885347465      1.11522533555527
  H   0.49374810210123      1.84226474634708      1.93842108876626
  H   -0.89560581804154      1.87760666389894      1.13949227520814
  C   0.07078759687350      2.05932669665966     -1.32636713230482
  H   0.61398215479871      1.65340903132163     -2.18292687467421
  H   -0.96687097577984      1.72340618526164     -1.38584577269714
  H   0.09856634024908      3.15131545551600     -1.36427791148030
