13
Coordinates from ORCA-job run
  C   0.55694668689943     -0.07673130033755      0.01325064169407
  H   1.61056528498617      1.70915326015930      0.32458712260917
  Br  -1.80520342441902     -0.25720692342249      0.12914354657493
  F   2.52218351669277     -0.02825882346674     -0.27949402459445
  C   0.59178326126206      1.44481404451512      0.04470233779118
  H   -0.10936130016541      1.79567496598881      0.80174677916885
  C   0.61588444226238     -0.80617793296769     -1.23932888936091
  N   0.62310448130101     -1.45377337307425     -2.22245521559851
  N   0.81187421704106     -0.71972472371834      1.26765120744700
  H   1.78966349901240     -0.98371539094413      1.19712172037962
  H   0.21828494546449     -1.53298535513676      1.35723401399101
  C   0.27206637903606      2.07451896500903     -1.23104138623614
  N   0.03107801062657      2.63058258739566     -2.23633785386580
