17
Coordinates from ORCA-job run
  C   0.56828846065778     -0.08439985214988     -0.01435405396490
  H   1.63927091970882      1.75624790493028     -0.33059129867810
  F   -1.03785229864892     -0.27827908210076     -0.26866393736498
  H   2.39312854606630     -0.09601335062133      0.11967708936013
  C   0.61247723024789      1.45632856660083     -0.15523796379085
  C   1.08050753474818     -0.78574240819082     -1.16744118446073
  N   1.26384312995466     -1.36751454507822     -2.18211763571905
  N   0.53253002163601     -0.67306059721888      1.30507850177072
  H   1.43717122212050     -1.06849099422482      1.50388696421014
  H   -0.20034018393856     -1.37170182630622      1.29507478731540
  N   0.29199878697552      2.03756814041021      1.18747496765836
  O   1.24147199009656      2.38580377505403      1.88857382867873
  O   -0.88876220440752      2.13531911336465      1.51277743104051
  C   -0.32349950777323      2.03053519964087     -1.20165693911403
  H   -0.12453676879908      1.54052815396689     -2.15746062533916
  H   -1.35783279678601      1.85456749586276     -0.92667879259505
  H   -0.13761408185887      3.10425430606041     -1.31234113900710
