16
Coordinates from ORCA-job run
  C   0.53188645521556     -0.08768178810316      0.05433986204280
  H   1.65733797715860      1.63185074556125      0.25901809461825
  Br  -1.84211208483508     -0.29893474987164      0.31295233934354
  F   2.44009514886730     -0.07148974227357     -0.42292295821259
  C   0.59762809062401      1.44045260672829      0.07587261458783
  C   0.44919400174342     -0.78281174693550     -1.21880223398242
  N   0.36785195169807     -1.37019735862017     -2.23608489403410
  N   0.86135929655487     -0.76653244768523      1.26736985268265
  H   1.82154986970426     -1.06331168790143      1.13106907527547
  H   0.24482478050377     -1.55557725968849      1.40177804898786
  C   -0.13068721311946      2.04291952708631      1.19436407351708
  N   -0.60440388622635      2.66905370084356      2.06852763234186
  C   0.21286422248699      2.07044381606481     -1.25863228712341
  H   0.88958492926354      1.69394069506742     -2.02716965425274
  H   -0.81514621216880      1.81505923323584     -1.52032796717286
  H   0.30814267252935      3.15754645649173     -1.20280159861925
