17
Coordinates from ORCA-job run
  C   0.61219556069172     -0.07744034796355      0.04827596586993
  H   1.63717527908671      1.68868645288147      0.52402137884057
  F   -1.12807788972505     -0.13492668346031      0.53351642750077
  F   2.23622755753633     -0.08089890890843     -0.61490737421319
  C   0.65924957463078      1.45138959477504      0.11009236910423
  C   0.15426080901298     -0.73438428716613     -1.18008555937444
  N   -0.17395836814493     -1.30730963760645     -2.15237395760235
  N   1.00538076189864     -0.83219430047026      1.19536126114552
  H   1.74881767957135     -1.45328942914928      0.91067442313271
  H   0.18827988846893     -1.33237457856907      1.51282358669965
  N   -0.29964952621257      2.02361739553544      1.12261853822897
  O   -1.27536290942556      2.65793386319269      0.72916493427892
  O   0.00503772073108      1.87920784993434      2.30342119278262
  C   0.44189715496029      2.09349758514244     -1.24024253944720
  H   1.20231501954676      1.70716807511522     -1.91724853513502
  H   -0.55053336733924      1.84717602364538     -1.61647713978565
  H   0.52699505471176      3.18009133307145     -1.17263497202604
