14
Coordinates from ORCA-job run
  C   0.55252393745575     -0.09844369047868      0.15883984691824
  H   1.68645749684520      1.40057062885856      1.19086676600579
  F   -0.99587288104634     -0.07215066466379      0.54831803601852
  H   2.31960277472596     -0.08531797881230     -0.43072943853522
  C   0.94896045967343      1.35189432424333      0.39765870179638
  H   1.29236266833643      1.82512658159581     -0.51607459199305
  C   0.41774781333162     -0.51186170337145     -1.23007847303162
  N   0.15172345772412     -0.90054088955562     -2.31210877035960
  N   0.93227906985267     -1.07016602109552      1.16254182833371
  H   1.76825849627773     -1.53860718210474      0.85136438159012
  H   0.15933660859647     -1.71837398003719      1.25328682599212
  N   -0.21692855028080      2.19922139569397      0.88023975460664
  O   -0.90402732461856      2.75573035635471      0.02506284283069
  O   -0.38197402687371      2.30981882337291      2.09390228982726
