13
Coordinates from ORCA-job run
  C   0.57032861444399     -0.07591380200050      0.01277587166029
  H   1.60113065686057      1.73095290105548      0.31337239440886
  Cl  -1.63850625076182     -0.23221840830497      0.13596753360291
  F   2.49569020747812     -0.03150679799562     -0.28423350079603
  C   0.58726609635262      1.44550866395345      0.03865697886524
  H   -0.11740776177724      1.78822357967976      0.79578292436144
  C   0.60703507488968     -0.81088532521069     -1.23971568809155
  N   0.59934512595885     -1.46120805699920     -2.22004246879712
  N   0.82080866334592     -0.71753856594781      1.26830612204828
  H   1.77747932347714     -1.04195107737052      1.19152742516275
  H   0.17641799628495     -1.48585373094106      1.39129793882723
  C   0.24967731555427      2.06758986221300     -1.23625185841568
  N   -0.00039506210706      2.62097075786868     -2.24066367283661
