16
Coordinates from ORCA-job run
  C   0.47832753359781     -0.10036480992233     -0.04973443423587
  H   1.49367534005898      1.72154676562110     -0.52068221791948
  F   -1.05062418878483     -0.32746366222816     -0.52509371658952
  H   2.26613629139115      0.07238581274197      0.42963225757279
  C   0.51155527985635      1.44251420668811     -0.13823008409755
  C   1.16375101443524     -0.79393305786472     -1.12456810440154
  N   1.55592773373431     -1.40298336515186     -2.05719166777423
  N   0.28079060992965     -0.75677901069915      1.22829552806352
  H   1.17169033567635     -1.11336766562830      1.53626385705780
  H   -0.38683069343298     -1.50300706139678      1.07029861270373
  C   0.32592028965790      2.07448735921901      1.23774555755103
  H   -0.62985625552608      1.77146676415557      1.66514347020984
  H   1.12812646527592      1.71517032090130      1.88274610684382
  H   0.36430139042280      3.16514164499046      1.16228143050969
  C   -0.48778364961022      1.99475246913791     -1.07197009456697
  N   -1.19376749668234      2.56467328943587     -1.81903650092708
