15
Coordinates from ORCA-job run
  C   0.72413780598462     -0.03233161681354      0.02922078261930
  H   1.51321931905871      1.90618130944408      0.39578425092708
  F   -1.24804131870979     -0.16219673971306      0.24876881103615
  Cl  2.90911140623311     -0.08764004708430     -0.51338984131160
  C   0.57968165872606      1.47268996520064      0.03635387151313
  H   -0.20543778817610      1.67490233457791      0.76389545016416
  C   0.40180896480064     -0.81160617114972     -1.15691127098899
  N   0.18624979739582     -1.46711368438194     -2.11022038371217
  N   0.88600936022238     -0.67622707182168      1.29552192975815
  H   1.47367021923534     -1.49157363673570      1.18372225256925
  H   -0.06412221353234     -0.94891313230806      1.52908302809839
  C   0.19300563385211      2.03438252515823     -1.32047396311104
  H   0.94586113422378      1.79057630431308     -2.07369745430459
  H   -0.76487230591755      1.60873156037511     -1.62159901969667
  H   0.09571832660322      3.12358810093893     -1.27243844356056
