14
Coordinates from ORCA-job run
  C   0.55297470579785     -0.10300764589965     -0.11986582268639
  H   1.72650443594766      1.40077910778213     -1.15404917934045
  F   -0.98992639012109     -0.06991376536393     -0.52764718616146
  H   2.38403344471434     -0.16150495659263      0.21929664928898
  C   0.96684659794602      1.33871040465633     -0.38195059614396
  H   1.28251828756284      1.79903320897090      0.54734833162271
  C   1.00878121339988     -1.09110486095307     -1.08649848450215
  N   1.21544205567208     -1.93270637657764     -1.88744089958538
  N   0.32717117675240     -0.49550183442796      1.25506654889779
  H   1.15024719311160     -0.96998253531090      1.59021421692027
  H   -0.47939280983653     -1.10799543957256      1.26015504762804
  N   -0.19086638369688      2.19094639113768     -0.87633927130098
  O   -0.86303138308164      2.78640997869766     -0.03616042722044
  O   -0.36279214416855      2.26347832345363     -2.09230892741657
