15
Coordinates from ORCA-job run
  C   0.48444098564062     -0.04918014542787      0.06439108316483
  H   1.52451586875129      1.71315821137323      0.42184291760797
  Cl  -1.72920673665929     -0.25016924391819      0.41573225943503
  F   2.38773509929666     -0.03937243988729     -0.50703786126086
  C   0.52501097648604      1.46226912700586      0.06903564254567
  H   -0.20524226929765      1.82209182752451      0.79417149317095
  C   0.36587119617877     -0.79486165062263     -1.17978461328249
  N   0.22988644858459     -1.42768367143856     -2.16264790624930
  N   0.87233742344761     -0.71443296713012      1.27029706513091
  H   1.84832092676100     -0.93620877758120      1.09795937687192
  H   0.32782503094593     -1.56024890062111      1.37463773281350
  C   0.28873534283903      2.06421918258977     -1.30494344083722
  H   1.06410729805622      1.71194043189610     -1.98645236326954
  H   -0.68952580891204      1.77498424399228     -1.69577180768248
  H   0.33118821788121      3.15694477224522     -1.25780957815891
