13
Coordinates from ORCA-job run
  C   0.62317697832375     -0.07163382683980      0.00535504515027
  H   1.45525913082799      1.82452026655649      0.51394287124855
  Br  -1.88521230573505     -0.32189798092838      0.21573013738587
  Cl  2.96945369891013      0.03975566531439     -0.46116381467895
  C   0.54458253749548      1.45158032181953      0.04696107496563
  H   -0.30404293379742      1.74024238180256      0.66584498587443
  C   0.50639753271278     -0.81473732364473     -1.22805287027588
  N   0.42650304499509     -1.46763057420747     -2.20689259249938
  N   0.84166411579274     -0.71043726781055      1.26975187537115
  H   1.75768568190243     -1.13937416165905      1.25807006815196
  H   0.12456116156858     -1.40772997766844      1.41503259764940
  C   0.40070070105478      2.06806716674887     -1.26638929858532
  N   0.26814065594871      2.60544531051660     -2.30141007975775
