13
Coordinates from ORCA-job run
  C   0.70177718845879     -0.06320719718059     -0.00273683042375
  H   1.64015642510300      1.85219388339986      0.18037241493093
  F   -1.08312882003755     -0.12845089012518      0.01251619948855
  F   2.47556101494855     -0.08039805863665     -0.15616544218810
  C   0.63854227490290      1.45875333105428      0.01573714471860
  H   -0.01151548607887      1.72238397262650      0.84950952364052
  C   0.65835048352547     -0.81359758260769     -1.25843879497441
  N   0.62771670107852     -1.46885560452718     -2.23315636750964
  N   0.77197088869573     -0.72640248288829      1.26820159710382
  H   1.61708946205074     -1.27828627447631      1.26450872014345
  H   -0.05631330823446     -1.29854932381385      1.34673599637137
  C   0.08095185822409      2.04253748986708     -1.20056019138390
  N   -0.33228868263692      2.57804873730803     -2.15974396991743
