15
Coordinates from ORCA-job run
  C   0.46340227965458     -0.05225522448864      0.06815927742659
  H   1.52541097078608      1.69143248791982      0.43278065999683
  Br  -1.90689232648468     -0.28080316758127      0.44640831261122
  F   2.40860280873115     -0.04267520244040     -0.51965698965681
  C   0.52354912836137      1.45822619974003      0.07309417854153
  H   -0.20551440471182      1.83005708084271      0.79362977490412
  C   0.35283022785087     -0.79289867459475     -1.17760175430864
  N   0.22494035445534     -1.42291650474143     -2.16434339718647
  N   0.86525891260692     -0.71362676361397      1.26654522191424
  H   1.86436919021952     -0.83389816338456      1.10987577159709
  H   0.40891849796220     -1.61511101919442      1.32159757789941
  C   0.31072764271384      2.06372921646261     -1.30323612223815
  H   1.09204823950508      1.70251210258056     -1.97288477658201
  H   -0.66607472766025      1.78585262096099     -1.70649075291003
  H   0.36442320600978      3.15582501153271     -1.25425698200889
