14
Coordinates from ORCA-job run
  C   0.45611581138412     -0.11490855728655      0.01480000675738
  H   1.68137717602666      1.62411133099779      0.11807585337588
  Br  -1.73021504798103     -0.27196322481810      0.00200399527077
  H   2.36122028944212     -0.18270673379387     -0.38459286788938
  C   0.60682857208709      1.42665802668837      0.04903015473081
  C   0.87149344852828     -0.75590675387812     -1.21747983318789
  N   0.79528277147158     -1.36535625912353     -2.23273844959936
  N   0.74260394054499     -0.72467385741349      1.29567202832756
  H   1.70934369948284     -1.02575513236727      1.27368387008200
  H   0.12809174019327     -1.52219113201015      1.41214419621133
  C   -0.02330182533418      2.01664766641208      1.23326967800819
  N   -0.44207188077026      2.59181461430867      2.16787583667841
  C   0.12233184031757      2.06893752794249     -1.17563911389008
  N   -0.18626053539306      2.62274248434169     -2.16439535487565
