15
Coordinates from ORCA-job run
  C   0.61237848850839     -0.03422664034904      0.04630046371000
  H   1.55571825524700      1.81794266485288      0.35929362314690
  F   -1.17248668390048     -0.16096026852039      0.31844371684043
  F   2.36036574764049     -0.07292271750655     -0.43589829680628
  C   0.57030675392112      1.47792555194942      0.04144640366736
  H   -0.16954453450251      1.76638924647863      0.78819157723511
  C   0.37457780141073     -0.80790108265911     -1.17483835774750
  N   0.18833699021916     -1.45662328323530     -2.13714761829620
  N   0.89553872093094     -0.69959632105536      1.28838400167070
  H   1.73344537158392     -1.24219411836874      1.13354550101736
  H   0.09844446576395     -1.28931463341356      1.48179183284540
  C   0.21199982607221      2.05323620250197     -1.31925973734265
  H   0.95350470842974      1.74825520714053     -2.06063634226287
  H   -0.76834894565633      1.68574733255315     -1.62794497598311
  H   0.18176303433163      3.14769285963148     -1.28805179169464
