14
Coordinates from ORCA-job run
  C   0.56459567377449     -0.01834178034881      0.00503723869971
  H   1.73413789656827      1.80012398954146      0.04253669914006
  F   -1.09846266716955     -0.01035942280398     -0.01134717618923
  H   2.44218275447058     -0.22705318514637     -0.19731884671277
  C   0.69223302881644      1.49921020160830      0.00082836376384
  H   0.19182738542626      1.79702996539198      0.93391329149808
  C   0.78845970960208     -0.75717236687465     -1.21764558068671
  N   0.71601873628522     -1.41605045587467     -2.19781212265997
  N   0.66850957266216     -0.69348437054004      1.28523041027339
  H   1.55067239984057     -1.18276545887600      1.29035166013876
  H   -0.10543615179736     -1.34904763255846      1.31324415206652
  N   0.08081866432714      2.05309848106965     -1.20927977312268
  H   0.06925892185566      3.06395978819366     -1.13765048465232
  H   -0.87619592466194      1.72309224721795     -1.21543783155668
