12
Coordinates from ORCA-job run
  C   0.78485996808988     -0.03658409843520      0.01951857951554
  H   1.43659259537012      1.88154012718146      0.66613390679131
  F   -1.19200797745958     -0.18748164925051      0.11687898056826
  Cl  2.99946742897889     -0.07782329195754     -0.33620075735120
  C   0.67516455044432      1.46774231883164      0.00777993684400
  H   -0.32192369463378      1.72226385313788      0.35636911995594
  H   0.82947905164447      1.85128864322804     -1.00134062149815
  C   0.53991028706802     -0.79318273422924     -1.19875052416168
  N   0.39204638753859     -1.42587169551899     -2.17965713217973
  N   0.84862353204552     -0.69912347371753      1.28897881581156
  H   1.48029149804246     -1.48555654222615      1.22310510071249
  H   -0.10630362712891     -1.01281145704383      1.42789459499169
