18
Coordinates from ORCA-job run
  C   0.54483342300282     -0.05248281420905      0.07854724180993
  H   1.66800462993626      1.74872442855308      0.19420086471755
  F   -1.08520324619937     -0.18889257155210      0.41524810248501
  H   2.28111378025172     -0.12777800244894     -0.54713958005321
  C   0.62041635911127      1.48416671336620      0.06103006816579
  C   0.50310574621291     -0.78674232912689     -1.16771812250246
  N   0.26714727982529     -1.42614785365207     -2.13490972391845
  N   0.96796289648600     -0.72710599244132      1.29330829292537
  H   1.85424079813867     -1.16985528110470      1.10471987999023
  H   0.25331646595794     -1.41755445419365      1.49303764090258
  C   -0.16426399461472      2.10005988788735      1.21854571941376
  H   -1.23874527847600      2.02340959975214      1.05644440166355
  H   0.07983760315754      1.58174978239332      2.14747008889878
  H   0.11211440567081      3.15712164198085      1.32024549193512
  C   0.14689864205945      2.01714768006939     -1.28358262427429
  H   0.78654111396093      1.65081380292595     -2.09075708012588
  H   -0.87586486320807      1.68217864804368     -1.47295123265887
  H   0.16701423872658      3.11270711375676     -1.29299942937449
