16
Coordinates from ORCA-job run
  C   0.47089565833078     -0.10190000776110      0.01327769213924
  H   1.63480188054385      1.66872172914932     -0.05666858457797
  Br  -1.71517020287292     -0.38681535067889     -0.07381985323835
  H   2.40071517281316     -0.20776862175220     -0.30102386563842
  C   0.56859814870360      1.44303480772123      0.00832489601921
  C   0.95645040632104     -0.76456859985767     -1.18635403951738
  N   0.92083257131429     -1.37344267725828     -2.20571958825876
  N   0.71885335749009     -0.71808351368739      1.30983910345114
  H   1.69587910956966     -0.98791493868557      1.30717433012469
  H   0.13658133205861     -1.54631982022687      1.37152716933253
  C   0.02267809978852      2.10020769542983      1.27693952932979
  H   -1.05109328442465      1.94292823538523      1.36835835098015
  H   0.51424634619129      1.65696985242698      2.14195527645724
  H   0.22726095217283      3.17424329298385      1.24510026115337
  C   -0.04192635965473      2.02623674632705     -1.18967598956134
  N   -0.46826318834541      2.59871117048447     -2.12333468819515
