17
Coordinates from ORCA-job run
  C   0.74405638647736     -0.06890351337962      0.03011638621615
  H   1.65031804886829      1.79820943745967      0.47903150680716
  F   -1.21529973502106     -0.05869595105392      0.33563594984429
  Cl  2.83285575199886     -0.13332261166866     -0.66505111910506
  C   0.68880342679835      1.45861115444555      0.09281192833788
  C   0.27690783714848     -0.74073080033568     -1.17342530957485
  N   -0.02592714345379     -1.33601273464913     -2.14227895811594
  N   0.95985794470518     -0.79530415470293      1.22646758061233
  H   1.31962542808968     -1.71192142246805      0.99365825858975
  H   0.03775936131278     -0.87164170266084      1.64267386614143
  N   -0.28160357757785      1.95902215881242      1.14387373673551
  O   -1.17673160056790      2.72421655868489      0.80233593654811
  O   -0.03376066182844      1.65303079068131      2.30572289810730
  C   0.36328805448330      2.06692351255443     -1.25016751302824
  H   1.09714349779841      1.72820489116929     -1.98167138311622
  H   -0.63434833483749      1.74861670732895     -1.54902712237015
  H   0.38730531560583      3.15564767978235     -1.19470664262942
