14
Coordinates from ORCA-job run
  C   0.72244398999950      0.03603074263737      0.03827574926930
  H   1.05673479750799      1.98552759585209     -0.80048235034002
  F   -1.19812105202722     -0.40558114725787     -0.29536925946680
  Cl  2.91110091829954      0.33033957859802      0.28989549482736
  C   0.39384096978587      1.53349687777630     -0.06139121735875
  H   -0.63287595539511      1.59003625787427     -0.41162050243575
  C   0.88732018768673     -0.71279047346675     -1.19543650932461
  N   1.07135903908194     -1.31233897749596     -2.19131755624020
  N   0.55017669109603     -0.63549041942317      1.29544128026359
  H   1.31507790501322     -1.27835203403189      1.44493956846297
  H   -0.33000991731757     -1.12550798506854      1.17481660775633
  N   0.51892544383251      2.25369285684528      1.19166724551607
  H   1.48184992453572      2.14617826201395      1.49388050177647
  H   -0.03168294209916      1.74333886514691      1.87359094729406
