18
Coordinates from ORCA-job run
  C   0.77984515131630     -0.01771309080405      0.04710491513830
  H   1.67744577253452      1.88709255090621      0.16163807145264
  F   -1.20355808490732     -0.18815427938422      0.25279472038398
  Cl  2.96549622741478     -0.13715355586357     -0.49544269060206
  C   0.66127972877094      1.50830191301977      0.04065547952517
  C   0.45445142115118     -0.78975985253920     -1.14362139337908
  N   0.23886345032531     -1.43705153113831     -2.10284727686353
  N   0.93583557911992     -0.67563517931487      1.30703225909956
  H   1.51027712609456     -1.49845767931118      1.18048628155796
  H   -0.01774860343233     -0.94107422816346      1.53814334430154
  C   -0.14751303626059      2.04394021733966      1.21997864337563
  H   -1.19908136591122      1.79947709159718      1.10088770144686
  H   0.21149635631625      1.60560583428352      2.15270871165851
  H   -0.01085264537727      3.13067384406718      1.27457443610657
  C   0.11211773024527      2.00048428317419     -1.29074438194118
  H   0.74685122724392      1.68401441710693     -2.12229676610428
  H   -0.88954436300847      1.59252400302495     -1.43281039072559
  H   0.06280832836424      3.09440524199927     -1.29550166443102
