15
Coordinates from ORCA-job run
  C   0.44081647545760     -0.07762956900275     -0.01692444713236
  H   1.23907947705947      1.82289941283349     -0.61054381221131
  F   -1.12636643212061     -0.39400701995350     -0.42245667129583
  H   2.26262280467966      0.12955861900186      0.34142492108054
  C   0.36606736599837      1.44801249706896     -0.07768622569330
  H   -0.53428731821888      1.70187669485065     -0.64799581923387
  C   1.07918367504009     -0.72558934056205     -1.14807774369282
  N   1.41916408965231     -1.29763474535170     -2.12447052400512
  N   0.34057060221333     -0.78495836858168      1.25026514393121
  H   1.26464910313008     -1.10365189163374      1.49639693723798
  H   -0.28805735688552     -1.56342270994996      1.08961324513404
  C   0.29998269163864      2.07977543278158      1.30224496043779
  H   -0.56379424652991      1.70828225309053      1.85509823235068
  H   1.20036573980508      1.81810533371521      1.86167081400893
  H   0.22867332908031      3.17085340169311      1.22127098908344
