14
Coordinates from ORCA-job run
  C   0.53944312111769     -0.09485290754105      0.01659004210257
  H   1.70331201502542      1.72773997893704      0.06262850604230
  F   -1.08049737356741     -0.08528631203580      0.05757653548799
  H   2.37957354809616     -0.16186185472229     -0.21671306543375
  C   0.65039920611441      1.45149660236084      0.02106937508916
  C   0.74750927660436     -0.77711958280164     -1.23764940872579
  N   0.70874459218878     -1.37635445619917     -2.25583513795976
  N   0.72188632977113     -0.75492192771128      1.28061636531683
  H   1.60089036315338     -1.24688367571188      1.26808541945818
  H   -0.06730071398320     -1.37811989614768      1.40611653892305
  C   -0.02203118718926      2.00074595340578      1.20415182180928
  N   -0.49708175976581      2.51931908993051      2.14387206843798
  C   0.06138506209924      2.03126605166298     -1.19065232179927
  N   -0.35339247966486      2.53228293657362     -2.16814673874874
