16
Coordinates from ORCA-job run
  C   0.60439726067832      0.06776494518245      0.03572147841492
  H   1.74844399065032      1.88737808653438     -0.12188094591277
  F   -1.03586938830098      0.01183791147111      0.17352741740304
  H   2.49035229870074     -0.10457934371648     -0.31632732348368
  C   0.70145019716292      1.60890758811551     -0.05601199295381
  C   0.77227789583883     -0.72596858437378     -1.15902776831167
  N   0.63522206834942     -1.43786983625965     -2.09558702811157
  N   0.86295387850792     -0.53324698553107      1.33207834230369
  H   1.76429422797699     -0.98229350763882      1.26902098945530
  H   0.12885918519979     -1.21842164683561      1.47696266566431
  N   0.14863381267520      2.24804476492989      1.14067784883019
  H   0.69070385666977      1.89621339079508      1.92582536933865
  H   -0.77097487941183      1.83082767996358      1.25879461522700
  N   0.02389161434385      2.03553140483804     -1.26753106770826
  H   -0.10301553702553      3.03909486790209     -1.19619670873273
  H   -0.89306048201572      1.60319926462329     -1.25921589142262
