16
Coordinates from ORCA-job run
  C   0.70768358571149      0.07780515157601      0.03265922046483
  H   1.76201787440503      1.91361513934383     -0.13270458490618
  F   -1.05919264571636      0.01983853436092      0.15584661350299
  F   2.55809265773219     -0.02265711232018     -0.21007061223866
  C   0.71944983993705      1.61460271522619     -0.06249924658233
  C   0.65115931336844     -0.74197917181745     -1.17498669463909
  N   0.56005545389335     -1.46685306989269     -2.09582484982294
  N   0.87371001654524     -0.53333885267105      1.32325424969615
  H   1.74804536550716     -1.03698362134759      1.27307479066639
  H   0.08937604360413     -1.15496025343833      1.46274810137512
  N   0.14767596140144      2.23971730526565      1.12982461124385
  H   0.71167729361369      1.92597699525918      1.91493978361753
  H   -0.74728429150919      1.77251638783751      1.25183821705042
  N   0.02658567347276      2.01092539047053     -1.27469179144933
  H   -0.08546248006364      3.01771931758126     -1.23187713794094
  H   -0.89502966190276      1.59047514456620     -1.22070067003781
