17
Coordinates from ORCA-job run
  C   0.36898457674072     -0.09947102429441      0.08264315401065
  H   1.64576129729010      1.57177491345030      0.46918477036956
  Cl  -1.65201202491102     -0.21228231122196      0.38269417560681
  H   2.19023309790082     -0.16504173279833     -0.63638191540133
  C   0.63069159618868      1.42271552752453      0.11452371201882
  C   0.49767660070262     -0.71658017217367     -1.22367489752015
  N   0.24335363679461     -1.28966182773494     -2.23059866527237
  N   0.80840304322370     -0.83449264028611      1.24588469613518
  H   1.76283948696470     -1.11872859266303      1.06719961237746
  H   0.21522945761178     -1.64977795436183      1.34454958315348
  N   -0.19072031168041      2.11196415287383      1.18453376953940
  O   -1.10520086338253      2.86233075189633      0.84526946700050
  O   0.16328908222470      1.92753641071870      2.34692364917167
  C   0.39310034571335      2.07532219156038     -1.22729383000772
  H   1.10076392438506      1.65403120257559     -1.94120011404432
  H   -0.62361676851915      1.88189258616622     -1.56910208425454
  H   0.54147382275230      3.15441851876838     -1.15915508288309
