15
Coordinates from ORCA-job run
  C   0.56280069150239     -0.07259259514984      0.01984525937159
  H   1.69792793350656      1.65635549196178      0.10393900765691
  Br  -1.80862984089064     -0.21275373535802      0.00147918872162
  F   2.56095531584031     -0.07883029622471     -0.13279150626050
  C   0.62764066959163      1.45482908604557      0.03944809599909
  C   0.68147685895331     -0.75113227151110     -1.25713353353953
  N   0.73588810963813     -1.37822059792665     -2.25207035678434
  N   0.72772370803174     -0.75289202706922      1.26369633322942
  H   1.70106856525785     -1.03902250201689      1.25503227228388
  H   0.10321005832118     -1.54531427322761      1.31498877923866
  C   0.00262970839534      2.00266902177438      1.26115785023299
  N   -0.43293891592835      2.60463854396349      2.17204099235149
  N   0.13036839061788      2.03257560519659     -1.19460036024286
  H   0.37117566737934      3.01533748140291     -1.22381685752351
  H   -0.87870692021667      1.93787306813934     -1.22163516473492
