14
Coordinates from ORCA-job run
  C   0.46111962649582     -0.00089377962065     -0.00827042056871
  H   0.87374080266559      1.89566281379931     -0.92172871700808
  F   -1.07312207510749     -0.41388839513420     -0.48116977319240
  H   2.24400457241035      0.34227504609324      0.34386797241363
  C   0.30692893258334      1.52552826364621     -0.06486865209057
  H   -0.75581847226511      1.71936306114860     -0.22935114398861
  C   1.13678434875442     -0.68118917495164     -1.09805212093888
  N   1.54843352924985     -1.28435440162806     -2.02533454165004
  N   0.34061290321436     -0.63945553388200      1.29121560260865
  H   1.26638316650626     -0.89697634833207      1.59740652533508
  H   -0.23637954862777     -1.46014538982938      1.15095875079698
  N   0.71821680231093      2.25532238961440      1.12751537447041
  H   1.68230717961986      1.95188230094037      1.26852268801802
  H   0.20292823218959      1.83544914813588      1.89617845579448
