17
Coordinates from ORCA-job run
  C   0.55597241678543     -0.04590650382199      0.02284392595356
  H   1.65706290596024      1.68761051865172     -0.05326727302723
  Br  -1.85191081376153     -0.33305373722979     -0.09092204816944
  F   2.60565682815159     -0.06299242659237     -0.01617148111644
  C   0.58906352835955      1.48065400224531      0.00851045405135
  C   0.73515167603779     -0.74789791066022     -1.23523317675557
  N   0.85100048837066     -1.38737897336522     -2.21727748574418
  N   0.67464756332417     -0.73640184569348      1.26862542616813
  H   1.68017331542035     -0.89269951720275      1.32074081401682
  H   0.18216936135304     -1.61787611833593      1.20654055507088
  C   0.04920338998102      2.08565994103980      1.30015748185762
  H   -1.01547403477524      1.87476789021114      1.41159872838584
  H   0.57309101755425      1.68385590897928      2.16821958704771
  H   0.19768153834675      3.17121567863820      1.26681195852443
  N   -0.00928320870587      1.98659354915091     -1.22216683910731
  H   0.22446879059617      2.96818003508537     -1.31264562009153
  H   -1.01758476299837      1.89597950890002     -1.16259500706464
