17
Coordinates from ORCA-job run
  C   0.76877342083665      0.01159507699223      0.02173632985818
  H   1.67025039866036      1.94637247079391     -0.08146849393161
  F   -1.20533710374880     -0.08219590406866     -0.08363656452341
  Cl  3.05897946219529     -0.11918225931134      0.01913709893801
  C   0.66155461606687      1.54230226590325     -0.00545498590153
  C   0.73035989769029     -0.71252289535213     -1.23888208130054
  N   0.69380155663178     -1.37561912435472     -2.21050755466903
  N   0.67357784330238     -0.70178944532107      1.25915399546619
  H   1.32979756707644     -1.46970472224663      1.24915994162910
  H   -0.28318453958854     -1.03762341663881      1.27548418715178
  C   0.04011498048074      2.05656148516971      1.29126273798389
  H   -0.96897910168468      1.65855587208159      1.38469825831164
  H   0.62860303033216      1.75258229888612      2.15834768624994
  H   0.00306487157457      3.15153249934303      1.25307781263061
  N   -0.04120180153318      1.93068960560943     -1.22424830520629
  H   -0.11355720526929      2.94095421381017     -1.25242451106069
  H   -0.96552789302306      1.51780197870394     -1.15166555162623
