14
Coordinates from ORCA-job run
  C   0.48327834092013      0.01548681956586      0.01878659534338
  H   0.97927658562831      1.87845075342870     -0.89015912765513
  Br  -1.76670702670914     -0.58849922697113     -0.59263835464750
  F   2.44530176306205      0.32040351151683      0.37351310683319
  C   0.34937984594765      1.54996363180689     -0.06243524721975
  H   -0.68244837708546      1.81906992334802     -0.27816268727834
  C   1.01573573465514     -0.70709356539730     -1.12252554055315
  N   1.42747338371642     -1.29813130273249     -2.05416704657828
  N   0.41078359925159     -0.60309749893581      1.31087196345222
  H   1.38669525223155     -0.70813410442368      1.57134423137295
  H   -0.03732357909712     -1.50494631953721      1.22396493931576
  N   0.77535229931655      2.23053988710066      1.14611715885418
  H   1.71733622327248      1.88008117119098      1.29606658184480
  H   0.21200595488987      1.86448632003972      1.90631342691567
