14
Coordinates from ORCA-job run
  C   0.56039043997640      0.01174863296383      0.04800601598519
  H   1.68581293844948      1.81913713234190     -0.26799584369455
  Cl  -1.50305807622663     -0.16360939439995      0.11708401642652
  H   2.46631531851792     -0.19927702470690     -0.34988097538666
  C   0.65529644427290      1.55044104064799     -0.05219382567008
  H   0.02920001841048      1.86303952370249     -0.89215662000795
  C   0.91925687671675     -0.73064763093413     -1.14303594225451
  N   0.79485376283481     -1.34738490117442     -2.15113987561260
  N   0.84816220222198     -0.55144415510497      1.36161727192728
  H   1.81503439960373     -0.84934338545553      1.32525603385269
  H   0.24782634505685     -1.35835047859742      1.49183559197254
  N   0.23130539843619      2.25921659679427      1.14755227328238
  H   0.71279251845452      1.81267257590808      1.92191660238201
  H   -0.74704858672540      2.03238146801475      1.29002527679775
