15
Coordinates from ORCA-job run
  C   0.74627652138382      0.03596769978494      0.03070898671451
  H   1.73378867175155      1.91649285564215     -0.10664901986475
  F   -1.02127719671195     -0.03628010215086      0.19700117370798
  F   2.52748625227448      0.01562712674165     -0.26795339868629
  C   0.69969940137233      1.58062471162130     -0.04513924136537
  C   0.63035133338772     -0.79221370998278     -1.16702429569155
  N   0.53067064304978     -1.49676450018890     -2.10225244930360
  N   0.94269188382712     -0.53935205837728      1.33026408753944
  H   1.80439444951267     -1.06388813939647      1.28701530628463
  H   0.14589506610663     -1.12977541372498      1.52156804419218
  N   0.07294025884900      2.19983738965872      1.11563477207428
  H   0.59520297715028      1.84523083290889      1.91161304198561
  H   -0.83512022781966      1.74791577037744      1.17630980961978
  C   0.01057544777485      2.02514353949375     -1.26251682007329
  N   -0.50476548190862      2.43178399759242     -2.23561999713355
