16
Coordinates from ORCA-job run
  C   0.48570768423982     -0.08017127508844      0.07568919273276
  H   1.64017351254513      1.70131358232625      0.32473834289857
  F   -1.12065732494752     -0.14839726324531      0.40796263381385
  H   2.21606132286638     -0.09255950611801     -0.56703243798941
  C   0.60784080436898      1.45295467092817      0.08649817547467
  C   0.42865602552620     -0.77006817153586     -1.19479958320054
  N   0.19165295004573     -1.37553279827041     -2.18220547368636
  N   0.91618035351621     -0.76781477609667      1.26920912259360
  H   1.78992075931101     -1.23253259583199      1.07748751085295
  H   0.18699926650486     -1.43127396160648      1.50192486490203
  C   -0.22025752750385      2.03906180114755      1.15093938978183
  N   -0.79561232245403      2.62940614674321      1.98800785092455
  C   0.23164525051916      2.04747435537520     -1.26693459961839
  H   0.91716045796778      1.65660939517932     -2.02182094854670
  H   -0.78825792541575      1.75835120329031     -1.52456541961407
  H   0.30275671290987      3.13790919280316     -1.24654862131933
