17
Coordinates from ORCA-job run
  C   0.60615831269826      0.02056956524030      0.08552604689959
  H   1.75853159205607      1.73044586015682      0.03548562552708
  Cl  -1.59448427590944     -0.18103678194990      0.50477032213859
  F   2.49747988245830     -0.08238763358325     -0.52003592316411
  C   0.68376599055447      1.55811359134615     -0.00523103321672
  C   0.45538768499362     -0.80578935245034     -1.10050545648457
  N   0.28186332828111     -1.48505589994839     -2.04617735534869
  N   1.02075060715509     -0.54956412413228      1.33503199662940
  H   1.97906105197874     -0.82756038176802      1.14514636769145
  H   0.44828867583437     -1.35682931561789      1.54276327033046
  N   0.09244960215641      2.27196479151935      1.11659020425110
  H   0.43522108886237      1.81409868565104      1.95645839270479
  H   -0.90469077336143      2.08529780883649      1.10278121337122
  C   0.15100323872618      2.07263805427607     -1.32760574993149
  H   0.70944251259942      1.63252504258836     -2.15565566119874
  H   -0.90634237702231      1.82098686477973     -1.44331104823395
  H   0.26205385793877      3.15921322505576     -1.35623121196538
