16
Coordinates from ORCA-job run
  C   0.46062520177276     -0.06547656565803     -0.07703413294941
  H   1.47332432130311      1.74217808030525     -0.44334233235230
  Br  -1.72029467060836     -0.54576370014901      0.07233658471580
  H   2.51929993847831      0.13734352242895      0.54984585043129
  C   0.46313416877525      1.46265157535600     -0.13843736731134
  H   0.71700286084816     -0.49325338836832      0.87230938639934
  C   0.83406002864042     -0.79965245295249     -1.34658050444448
  H   0.12995943486672     -0.54453617898931     -2.14311699301858
  H   1.84563977157197     -0.53698812789349     -1.64789155251789
  H   0.78345168216071     -1.87762163946860     -1.18105754888204
  C   0.19686627243186      2.08486962803626      1.22871955605047
  H   -0.76915936456210      1.75714204146973      1.61493019196249
  H   0.99867712298412      1.74564990581857      1.88967288131901
  H   0.21004457127758      3.17702189804108      1.17360409574690
  C   -0.43833439509046      1.99617045338797     -1.16636695173255
  N   -1.06819694485003      2.51007494863543     -2.01613116341670
