18
Coordinates from ORCA-job run
  C   0.59251624745380     -0.01062658293743     -0.09003692231124
  H   1.60593339157641      1.77108473404814     -0.38418343983130
  Br  -1.97677706680119     -0.48896725225162      0.10191487489473
  Br  3.03210991119883     -0.27647514312425      0.71262142985466
  C   0.57399558736609      1.49921878502868     -0.13919225463012
  H   0.46802515190579     -0.51782752026278      0.84612872255276
  C   0.79634631651130     -0.78896961930987     -1.35730387053410
  H   -0.08115246311302     -0.70052869184321     -1.99772956898965
  H   1.66893652195053     -0.40207165193616     -1.88747698018344
  H   0.96402930145491     -1.84092920537704     -1.13225188327327
  C   0.24105004383320      2.09602113545712      1.22173262809160
  H   -0.77323012275914      1.81341340360937      1.51151676913055
  H   0.94610604739877      1.72939528113691      1.97120322535135
  H   0.30966306146785      3.18853961734232      1.18835275534315
  C   -0.30102939127632      2.08668332094730     -1.25091356868043
  H   -0.05892662557438      1.65540620592273     -2.22560233203519
  H   -1.35652533566800      1.90853720024779     -1.05060921498234
  H   -0.11784057692540      3.16518598330198     -1.30987036976773
