14
Coordinates from ORCA-job run
  C   0.47526991574327     -0.03283524271819     -0.09302318467946
  H   1.81055325716864      1.50959840421094     -0.12831700503380
  Br  -1.87146798907867     -0.04121352508107      0.09090082113406
  F   2.53808878638244     -0.33696812389330      0.38628455935491
  C   0.72357003565894      1.45132991990215     -0.07383342027753
  H   0.56787552268736     -0.55793815513613      0.83539459145864
  H   0.39976709925285      1.84000876630463      0.90149348689890
  C   0.64960090382975     -0.78386978256607     -1.37762031290889
  H   0.33899213802935     -1.82231522144940     -1.25603214203850
  H   0.08532452636573     -0.32367443876882     -2.18690817787505
  H   1.71994310356669     -0.74984198047589     -1.57640913459689
  N   0.12451883192072      2.14538742372322     -1.21746223699839
  H   0.38460433197170      3.12329245603666     -1.16643982623152
  H   -0.88326046349877      2.08684949991128     -1.11781801820644
