17
Coordinates from ORCA-job run
  C   0.38685841779212     -0.03041425284396     -0.11605965888871
  H   1.62512279068963      1.58683112084338     -0.28500136022565
  Cl  -1.82323784309021     -0.20097130815664     -0.28747036245058
  F   2.29926437178642     -0.14641759811807      0.68363019242528
  C   0.55360533568276      1.47405347616750     -0.11358334367194
  H   0.32413889927204     -0.54262821322848      0.82159088164407
  C   0.76920837450786     -0.78635996939494     -1.35097732704459
  H   0.45271616602180     -1.82739108863534     -1.27830552526971
  H   0.31631282338991     -0.33031177159631     -2.23063830916893
  H   1.85606390253157     -0.73973000770074     -1.40238105472753
  C   0.24457451552593      2.03593210006320      1.26896571398935
  H   -0.80022045214165      1.85165901235248      1.53359222054528
  H   0.90706054055852      1.54205392350258      1.98181619564764
  H   0.42972219915468      3.11649536172203      1.29838192449164
  N   -0.14115182456595      2.12068917093233     -1.23283833843299
  H   0.06502196902336      3.11286070021209     -1.19044868707404
  H   -1.13921018613882      1.99952934387890     -1.10094316178862
