16
Coordinates from ORCA-job run
  C   0.56494965444407      0.03687912970318     -0.10154724971474
  H   1.48574628781086      1.89498067943237     -0.62756342852269
  Cl  -1.48376870280626     -0.42427040045276     -0.09948461083221
  H   2.49192209540925      0.39825674853437      0.64253686639637
  C   0.55729867733330      1.56565247291034     -0.17358603247122
  H   0.70392018297137     -0.35498675406158      0.88437721614697
  C   1.04151771565203     -0.76894379005216     -1.28730793575754
  H   0.37634862662442     -0.61135933881910     -2.13602180095847
  H   2.05400884929493     -0.48201677073167     -1.56039663465981
  H   1.03010072549313     -1.82997416455877     -1.02996151288465
  N   0.37337934312598      2.22626573774681      1.08725908191773
  H   1.18271238465019      1.91600338094213      1.62221764514640
  H   -0.45976995284746      1.84227189018327      1.52185045949825
  N   -0.48714697447848      2.07142762547498     -1.15429514530600
  O   -0.25879268579448      1.82751993113471     -2.34084297674601
  O   -1.44921622688285      2.70968362261390     -0.74567394125238
