14
Coordinates from ORCA-job run
  C   0.44326736125274     -0.01712705908232     -0.07775473109083
  H   1.81133717995700      1.57585884959718     -0.12796713528791
  Br  -1.82401400386168     -0.00784359228210      0.14245831009568
  H   2.55566068010751     -0.53547769715328      0.56534470212221
  C   0.72988399476049      1.47118848379292     -0.08637981507604
  H   0.62476744526172     -0.52965765061271      0.84683451824805
  H   0.38193161431747      1.88786884305140      0.87059488989930
  C   0.62304686464148     -0.77517349115576     -1.37153452063397
  H   0.46197254448074     -1.84151030269898     -1.20253146164723
  H   -0.08168624550668     -0.41384107855759     -2.12077699615437
  H   1.63595953949089     -0.63074028506531     -1.73907277088244
  N   0.15314273194954      2.13441524607497     -1.26240704996185
  H   0.40446497064621      3.11554717359053     -1.22872401511188
  H   -0.85635467749743      2.07430256050104     -1.18787392451872
