15
Coordinates from ORCA-job run
  C   0.68064321176478     -0.01555501088804     -0.07836015374996
  H   1.65841737612997      1.88104369785142     -0.28868066805142
  F   -1.31616062832868      0.01851319655296     -0.02570196655558
  Cl  2.83211613254500     -0.24861447623504      0.45346567884206
  C   0.64914389619765      1.50909990586881     -0.10572715553439
  H   0.44555840766642     -0.52830950706771      0.83147388556894
  C   0.73130805219968     -0.74827843110590     -1.38772264693364
  H   -0.24973164214787     -0.68256163454263     -1.85000715099307
  H   1.48364308679080     -0.31034344843070     -2.04366843795614
  H   0.99196243596552     -1.79222396868017     -1.21147814528479
  C   0.23957624349691      2.00914645692277      1.22411061153306
  N   -0.08916610210560      2.50071611559500      2.23915180910389
  N   -0.21567942802623      1.98415189773622     -1.18333999054402
  H   -0.30635334636543      2.99084729037122     -1.10953880777802
  H   -1.10792769578291      1.53145791605179     -0.97883686166694
