17
Coordinates from ORCA-job run
  C   0.59664590436010      0.00439188061117     -0.09830785445273
  H   1.55143382914434      1.82735857730715     -0.39260110443541
  Br  -1.95322732510249     -0.46158477510599      0.12797213996801
  Br  3.06580954436886     -0.18129878393173      0.68242843879517
  C   0.53728671197159      1.51698507400385     -0.12612780051163
  H   0.52215610818905     -0.51736843075091      0.83509760089204
  C   0.77813557756394     -0.73219893316074     -1.38931155550985
  H   -0.05758625493913     -0.51967910708299     -2.05312671181701
  H   1.69453494655473     -0.38847997133681     -1.87123761292106
  H   0.84837253510613     -1.80428002313210     -1.20983802745409
  C   0.20894335325031      2.09560554736031      1.24652653615902
  H   -0.79281715496227      1.78770891339850      1.55127673863290
  H   0.93851541177917      1.74964774793138      1.98305237571591
  H   0.24939542951966      3.18996389793466      1.20877904749401
  N   -0.31692597112983      1.97730993291130     -1.22689142410079
  H   -0.27361703052941      2.99013590575818     -1.25326126207510
  H   -1.27120561514474      1.70166254728477     -1.01509952437939
