15
Coordinates from ORCA-job run
  C   0.56058257641303     -0.04536436104109     -0.07442525610149
  H   1.59783406671198      1.70122200459841     -0.38735742278553
  Cl  -1.60381961685707     -0.37396770427005      0.10449548795710
  F   2.54883734380197      0.10660625882853      0.31049279822226
  C   0.55992695734717      1.47129343150602     -0.14229278301872
  H   0.69945995423052     -0.51392031509882      0.87775615085509
  C   0.80158157434011     -0.79971523245137     -1.34892097391132
  H   0.14938740160953     -0.43422396028747     -2.14083507605524
  H   1.84862983336038     -0.65154456046707     -1.60417885224107
  H   0.60979112056017     -1.86169929216454     -1.19241526261313
  C   0.30995816891476      2.04879295372695      1.19336323939190
  N   0.11457087585821      2.60156202718509      2.21164202334355
  N   -0.30841137711556      2.01867891134945     -1.18021509767650
  H   -0.19066361131872      3.02456733532741     -1.20022967416783
  H   -1.27031526785647      1.80680250325854     -0.94173930119907
