16
Coordinates from ORCA-job run
  C   0.52818147416609     -0.04763138190545     -0.06529893532928
  H   1.47614736492738      1.74487279263861     -0.44940282546003
  Cl  -1.64645900344824     -0.47676495016663     -0.00456188600377
  F   2.44955527015661      0.18091880759700      0.42549320780964
  C   0.46370867246602      1.46616888458218     -0.14578229205333
  H   0.59967046413261     -0.50299078305515      0.90108513033434
  C   0.85163121180266     -0.82282990419045     -1.30919127737768
  H   0.20040763692295     -0.52552359209905     -2.13309749266944
  H   1.89589350228441     -0.62915715557744     -1.54767681392285
  H   0.70902024428576     -1.88944223651569     -1.13416615157424
  C   0.20007468069641      2.08597596865637      1.22257632876879
  H   -0.76410849761884      1.75209700340918      1.60864674915085
  H   1.00717809018230      1.74706935964203      1.87289140892810
  H   0.20870188711711      3.17817807221936      1.17147821563431
  C   -0.44958326321164      1.98325036433520     -1.16970079192041
  N   -1.09391973486163      2.50561875042992     -2.00183257431499
