14
Coordinates from ORCA-job run
  C   0.70603605849441     -0.03112297325654     -0.10276146096346
  H   1.76073467164725      1.78056885722180     -0.56235788120670
  Cl  -1.65019339227726      0.01240385874388      0.34026150893520
  Cl  3.00020862461372     -0.27687613637994      0.28604202218144
  C   0.78381520374541      1.47390624069707     -0.18953765409753
  H   0.64647596352117     -0.46050280247102      0.87510545159768
  H   0.58198023692458      1.92317278414914      0.77755331086700
  C   0.67657321966012     -0.90167314731783     -1.32574406284871
  H   -0.29108975387207     -0.84453464003759     -1.81734588621155
  H   1.44713286310561     -0.58728991916999     -2.02818231960355
  H   0.87731424127024     -1.93076695452537     -1.02873568631059
  N   -0.17667284487008      2.11755195958931     -1.14242988652794
  O   -0.75618085925037      3.12660248862013     -0.75163505239555
  O   -0.23286423271273      1.67177038413694     -2.28485240341571
