16
Coordinates from ORCA-job run
  C   0.71220816566049     -0.02142476326611     -0.05733014926928
  H   1.54079886600242      1.93201370427154     -0.35220057575905
  F   -1.32010478869854     -0.07760652102726     -0.02358137834027
  Cl  2.80754588060700     -0.11962659332747      0.48597937772909
  C   0.56942936596032      1.49373517491628     -0.10084054964886
  H   0.44240097967605     -0.52310172050444      0.85000323105137
  C   0.76516601803396     -0.78408982903454     -1.34976501868014
  H   -0.22142295816166     -0.71933239438308     -1.80298164946680
  H   1.52647134869303     -0.36994447727236     -2.01430389608181
  H   1.01395947741198     -1.82837785817126     -1.15727640699428
  C   0.10812676133784      2.02564403418361      1.25374297830379
  H   -0.85381041891355      1.56248415847108      1.46309641400547
  H   0.84216650503907      1.74203555105237      2.01180855971430
  H   0.01421218079237      3.11523236597492      1.24288593947205
  C   -0.34884970210378      1.91965683685878     -1.16494600214139
  N   -0.96219768133698      2.40251233125795     -2.04283087389418
