16
Coordinates from ORCA-job run
  C   0.63089626956603     -0.05057177321618     -0.06279553659609
  H   1.67055504946347      1.75578728229157     -0.31350239014780
  Cl  -1.74927000344783     -0.29990649977512      0.14631589921431
  Cl  2.92030111736745     -0.27086363684487      0.46244512437604
  C   0.63236855366026      1.47062181978104     -0.12330371687037
  H   0.53642855723155     -0.54529356627164      0.88142547451908
  C   0.74868460458461     -0.81405087718020     -1.35276808540611
  H   -0.16243867846165     -0.72035427006173     -1.94128391826239
  H   1.59811230437400     -0.44372434883579     -1.92857308849067
  H   0.92146675338096     -1.86695139244239     -1.13557429541440
  C   0.29065446791308      2.05837884680333      1.17286677705361
  N   0.03839650010793      2.60289965763150      2.18204389390344
  C   -0.21531911503585      2.10000430552448     -1.23654163759172
  H   0.05558697010997      1.66581352302907     -2.20103331142918
  H   -1.27472923081281      1.93565308803138     -1.06005632687921
  H   -0.00696412000116      3.17285784153554     -1.27555486197856
