18
Coordinates from ORCA-job run
  C   0.56163853480413     -0.02208440522589     -0.05002749833038
  H   1.63576713207174      1.74303670833688     -0.33885952373798
  F   -1.27755898911337     -0.14050960010561     -0.12224285371314
  F   2.36457388713783     -0.11869373650313      0.40679605320309
  C   0.59320589130376      1.49380659083320     -0.12952298119827
  H   0.42937984143483     -0.50311823318636      0.89902363752352
  C   0.79401597217426     -0.83591932627932     -1.29355240148794
  H   -0.10521359205436     -0.85431423827686     -1.90780904687982
  H   1.63557476337080     -0.41655441885284     -1.84804456527496
  H   1.06627402612442     -1.85477997252251     -1.01409622962955
  C   0.21952944756392      2.07180153897085      1.22908679693306
  H   -0.78902251512075      1.73898573367268      1.48346172049613
  H   0.92300084667025      1.70319761035768      1.98005605450064
  H   0.24983470219577      3.16845276810696      1.22836794172044
  C   -0.28267392104881      2.07193405959152     -1.23875505910769
  H   -0.01801059867926      1.64593674618100     -2.21154585692918
  H   -1.32629022322712      1.83711067795617     -1.04396626800265
  H   -0.14079520560799      3.15880149694555     -1.30006992008539
