14
Coordinates from ORCA-job run
  C   0.69563412287925      0.00352389870510     -0.08953819003695
  H   1.70557766295760      1.83741955780018     -0.27191727787574
  Br  -1.80638433599840     -0.23321512186512      0.43596215091205
  Cl  3.11945147372904     -0.27802094019303      0.31685215730486
  C   0.67719786732380      1.51074007274599     -0.11343189649742
  H   0.72867727463702     -0.50630343560123      0.85140047732029
  H   0.35626070721827      1.85827762351734      0.87609142578162
  C   0.70635297781013     -0.74956941119353     -1.38260095186649
  H   -0.20096749542878     -0.54207381265078     -1.94568716435715
  H   1.55874646852654     -0.41971975743787     -1.97676003369599
  H   0.79377024817609     -1.81879706560197     -1.19561542782698
  N   -0.13100951159315      2.02149773926512     -1.22209089876304
  H   -0.04133418790543      3.03016508882004     -1.24477186626048
  H   -1.09859327233199      1.79388556368975     -1.01768250413857
