16
Coordinates from ORCA-job run
  C   0.45869761074236     -0.04826592698110     -0.06677674447307
  H   1.51390144392436      1.78132705989602     -0.42878469970488
  F   -1.23467011959053     -0.15422585451214     -0.18184288531764
  H   2.28561328494978     -0.00562176871097      0.44820719175240
  C   0.51107013846138      1.47538255585369     -0.13266944224354
  H   0.44389572731368     -0.51456819423818      0.89865171885339
  C   0.82915261246005     -0.83775221654715     -1.30152672963299
  H   -0.05819732213730     -0.93904879335250     -1.93332740007679
  H   1.62535147629189     -0.35263588171679     -1.86526711195172
  H   1.18856137698851     -1.82773008726895     -1.01781694478017
  C   0.18902554477399      2.06142876545889      1.23779157487094
  H   -0.79230326472214      1.70270041346764      1.55053182616233
  H   0.95609957609559      1.70383781516398      1.92988364298657
  H   0.18977772281152      3.15522906876726      1.22683086724328
  C   -0.41271304116462      2.00847102833290     -1.14827486685139
  N   -1.05716276719852      2.54128201638738     -1.97414999683673
