17
Coordinates from ORCA-job run
  C   0.52602325173392     -0.03015976574101     -0.05191528995338
  H   1.58389024196983      1.75050168614114     -0.50681438408714
  F   -1.30512979529132      0.02406669352287     -0.20946802739693
  F   2.24953645224293     -0.07782629775331      0.45328554805157
  C   0.59579224307375      1.48011981050912     -0.13367126054634
  H   0.30784689434055     -0.47160052034276      0.90176575777571
  C   0.75605043064026     -0.89836048797709     -1.25749419764364
  H   -0.14236532725220     -0.94829076969151     -1.86630113993448
  H   1.58548479026735     -0.50407308965451     -1.84358526698488
  H   1.03615068310705     -1.89696692145839     -0.91590532205940
  C   0.32026725977530      2.10260085484903      1.21396840622284
  H   -0.68119443889485      1.81401282484672      1.52965736895307
  H   1.06778859086382      1.70007913953960      1.89876271973630
  H   0.39230441835680      3.19182485668313      1.18926459525783
  N   -0.33958468312355      2.02984047502131     -1.17993960200237
  O   -1.20441123414445      2.83862224261531     -0.85520863063320
  O   -0.11270977766517      1.69688926889032     -2.34190127475553
