17
Coordinates from ORCA-job run
  C   0.38965257364257     -0.02977932615594     -0.09329127861195
  H   1.52527447831064      1.59821270921355     -0.74232839349611
  Cl  -1.68974399632666     -0.44434059951155     -0.43060683980232
  H   2.27111759770516      0.04481451029364      0.88746526554971
  C   0.55569605751308      1.48103901868189     -0.23913107038313
  H   0.32307939214623     -0.42553545270172      0.89973025298288
  C   0.94598711603584     -0.89004346155614     -1.20807549890651
  H   0.45879151641245     -0.62821755508602     -2.15189649632890
  H   2.02046016266808     -0.75408834885603     -1.29734661879350
  H   0.73220660389486     -1.94179738079484     -1.01058723420293
  N   0.56339776631512      2.07669413068051      1.09668146785139
  H   0.82577220977872      3.05467366021369      1.00259021020243
  H   1.34007393784790      1.59055566271610      1.55553229510958
  C   -0.47419740947675      2.20101288085295     -1.10484275849115
  H   -0.60061193236255      1.70952539421147     -2.07173100510723
  H   -1.43984904322179      2.23310292032969     -0.60448119500418
  H   -0.12640703088288      3.22737123746870     -1.28232110256808
