13
Coordinates from ORCA-job run
  C   0.59399778124878     -0.05661585715428     -0.04938215510912
  H   1.36325769993847      1.87256894002728     -0.53511986474322
  Br  -1.85869897871804     -0.49561712566289      0.15748628773882
  Cl  2.93342354872791     -0.00317663190797      0.46304043449597
  C   0.46477752225622      1.45054288157762     -0.07976389727621
  H   0.59556624701782     -0.58548961867904      0.88152172455477
  H   -0.39935329259934      1.72729872883238     -0.68775864223058
  C   0.76897883505027     -0.74788797248854     -1.37441327620810
  H   -0.09437483777889     -0.56410510429581     -2.01391907745584
  H   1.67103090203925     -0.38359938923537     -1.86655054910899
  H   0.86756664083371     -1.82220679226113     -1.22402858928228
  C   0.30211342364454      2.04986796429611      1.24104314638621
  N   0.16664450833930      2.57966997695164      2.27904445823858
