17
Coordinates from ORCA-job run
  C   0.47364174472080     -0.00680976206438     -0.07474377851479
  H   1.58415742425198      1.78671554795949     -0.37737794092158
  F   -1.25091890682023     -0.10798831914821     -0.12480060488420
  H   2.38460123391534     -0.10379030277090      0.45159253184274
  C   0.56107399494333      1.51625376442426     -0.12746832631524
  H   0.48573856818174     -0.49093624253788      0.88042246542969
  C   0.78773828999519     -0.78668366213753     -1.32913743015202
  H   -0.10400567202257     -0.81155450856014     -1.96088512218051
  H   1.60502620394137     -0.32848371007864     -1.88185121492309
  H   1.08600511318759     -1.80443572099957     -1.07253855897793
  C   0.21617201479675      2.08256577909055      1.24639156873875
  H   -0.78701790139224      1.75074703464722      1.52383801193339
  H   0.93931390968712      1.72116890969123      1.98352644506226
  H   0.24089960001343      3.17966742513965      1.23925498817440
  N   -0.30385057409503      2.01367857067912     -1.21300462474320
  H   -0.37704277085189      3.02195183802403     -1.12383003540119
  H   -1.21568227245272      1.60381335864170     -1.04005837416746
