14
Coordinates from ORCA-job run
  C   0.55611166200813     -0.03294040078637     -0.09861639690011
  H   1.69155218865029      1.59429793126220     -0.95575698605621
  Cl  -1.50101563787067     -0.13453580007067      0.15655946337288
  H   2.62507619661999      0.07621907286613      0.37024914287174
  C   0.83075359485973      1.44562186531607     -0.31405056058214
  H   0.78355245446236     -0.39449417951759      0.88211597873172
  H   0.96560935020841      1.96265179690623      0.63088771526132
  C   0.73597098817509     -0.96957741060660     -1.27256776321867
  H   0.09476610881588     -0.65219717846300     -2.09519120463148
  H   1.77577129721899     -0.97352414284651     -1.59000665706051
  H   0.44457479411676     -1.98054648185919     -0.98161918798683
  N   -0.28425923921428      2.17385888252031     -1.03359953756922
  O   -0.85315478376198      3.09346742480908     -0.44603959085813
  O   -0.49203897428871      1.86490862046992     -2.20698441537436
