17
Coordinates from ORCA-job run
  C   0.56408730345948     -0.02726508535018     -0.08686731952570
  H   1.55875027070865      1.78532853755797     -0.51508828917720
  Br  -1.96158128429433     -0.30018106498622      0.05718892029068
  Cl  2.82403313203337     -0.14531835187786      0.59310977047775
  C   0.57904188565014      1.49030440413758     -0.13378844747960
  H   0.41849955809501     -0.48327487064664      0.87177952403899
  C   0.75940680370438     -0.86235119735923     -1.32065947234560
  H   -0.10290633788028     -0.79852507973143     -1.97898119707168
  H   1.63815008443709     -0.51693613401419     -1.86449497326951
  H   0.91607080366896     -1.89942670400228     -1.02418923495224
  C   0.31659082113843      2.12137389785633      1.21345073395701
  H   -0.68017404699043      1.85379744100849      1.56149171507055
  H   1.07089284989599      1.74345112443046      1.90466921119053
  H   0.39524679276983      3.20780083830918      1.15729072545453
  N   -0.34723416727412      2.05151274141963     -1.19358419648623
  O   -1.17010109609067      2.90109599685145     -0.86907242946713
  O   -0.14303337303151      1.67989350639694     -2.34775504070515
