12
Coordinates from ORCA-job run
  C   0.67979691662034     -0.02161807811419     -0.06089604331027
  H   1.49626389973995      1.88498578198547     -0.55749586372916
  Cl  -1.71643667538748     -0.33167825598030      0.34387113648317
  Br  3.18041318882412     -0.20069649382262      0.38214646583179
  C   0.61022155692154      1.47772156800403     -0.06959880028940
  H   0.67908034300480     -0.56611230953498      0.86027291644727
  H   0.55539541104327      1.86647713368766      0.94613452030914
  H   -0.27965074124126      1.79661342287439     -0.61346037647401
  C   0.69851983761574     -0.73834534958402     -1.37928297214649
  H   -0.22190777404062     -0.52274046903848     -1.92298353517936
  H   1.55139488288327     -0.40004064350953     -1.96886737527278
  H   0.77786915401630     -1.81459630696746     -1.23357007266990
