16
Coordinates from ORCA-job run
  C   0.46489486810778     -0.04988882958344     -0.05673594952043
  H   1.65998315463361      1.67749347205787     -0.08684877107136
  Cl  -1.59268650488819     -0.21623011636500      0.18223091353571
  H   2.59438186493710     -0.18060714119063      0.24890385823142
  C   0.59207223491007      1.46078675793439     -0.10068842842902
  H   0.75682243926855     -0.50142928781473      0.87157002894754
  C   0.68561380592139     -0.77741960513886     -1.36796078857796
  H   -0.17901593433766     -0.64097420401431     -2.02103621807881
  H   1.57336713678948     -0.41079689223387     -1.87142040930673
  H   0.81907943302482     -1.84112573589538     -1.16504165135095
  N   0.10983112984778      2.05921388751690      1.23024109133902
  O   -0.43407943223677      3.16657862703836      1.18546404802842
  O   0.39188996972092      1.46335882402403      2.26362584029480
  N   -0.04150209495493      2.05382447046936     -1.22802873810169
  H   0.05639583582240      3.05832855856660     -1.17654764138446
  H   -1.02941790656633      1.82919721462871     -1.20513718455553
