14
Coordinates from ORCA-job run
  C   0.59581491820100     -0.03923637287288     -0.01610250708305
  H   1.12832016155662      1.90129642710347     -0.68435405823804
  F   -1.47472570233225     -0.31630418286703     -0.27118792764314
  Cl  2.68523946511461     -0.07936185633697      0.66420452301074
  C   0.39307400274251      1.44772100361267     -0.00095534079837
  H   0.25832442709878     -0.58995245174115      0.83949297623021
  H   -0.61535160203487      1.56941883995894     -0.39323776420167
  C   0.79377669215219     -0.72172202078928     -1.33897642775611
  H   -0.15170917980628     -0.63637614213626     -1.86892946503068
  H   1.61490916099897     -0.26713553416319     -1.89717485776520
  H   1.02504467192366     -1.77655808838897     -1.18698982137519
  N   0.45195628050884      1.99925662805674      1.35286939386301
  H   0.25049617778614      2.99122085593790      1.30487334157658
  H   1.40573052609008      1.89188289462600      1.67891793521093
