15
Coordinates from ORCA-job run
  C   0.72130239834958     -0.00339692438587     -0.07342853283648
  H   1.73306673959331      1.84889014790493     -0.16620233692950
  Br  -1.80178964258496     -0.26181403669894      0.57092356659479
  Br  3.25443294988444     -0.37298113536338      0.21889437609843
  C   0.69801322676552      1.50606402187108     -0.11836417969724
  H   0.75539147716314     -0.49798195415099      0.87646679216482
  H   0.27756611966052      1.86424050281418      0.82289011133681
  C   0.64012173307437     -0.80005499430914     -1.34379728429453
  H   -0.31685806466306     -0.62024157440802     -1.83364605959211
  H   1.44528249840718     -0.50829092240062     -2.01958945403962
  H   0.73442376229507     -1.86313156649724     -1.12888600237200
  C   -0.07503780876217      2.09764754916661     -1.29490395120064
  H   0.36548631124487      1.80371035030402     -2.25102633855473
  H   -1.11609704863778      1.77610302745454     -1.26919509904884
  H   -0.04454465179006      3.19025750869884     -1.24095560762917
