13
Coordinates from ORCA-job run
  C   0.65757443200407     -0.04084286399379     -0.05176933799716
  H   1.68219267784483      1.76699381922876     -0.16369771364934
  Cl  -1.48700370953827     -0.32187152725828      0.39751268762094
  F   2.66350487656886      0.04268353804735      0.01206900540713
  C   0.63499320799533      1.47327716160390     -0.08215756950553
  H   0.90204405594115     -0.50617698734391      0.88032358418928
  H   0.21654295358870      1.85885235197697      0.84858501530121
  C   0.70952682888512     -0.81082894373182     -1.34016162292566
  H   -0.11949760511484     -0.53998470597421     -1.99470528595049
  H   1.66600868080043     -0.59329849916780     -1.81011502908547
  H   0.64689939857295     -1.87930794403060     -1.13184783679855
  C   -0.12151601712322      2.04035367270934     -1.19609817785268
  N   -0.67763978042512      2.53189092793410     -2.10559771875368
