15
Coordinates from ORCA-job run
  C   0.56673396947295     -0.02512621617102     -0.07514597398482
  H   1.28448235729024      1.89900363006426     -0.56931312476539
  Cl  -1.82764360073764     -0.50870309027304      0.08458233541113
  Br  3.02719280359529     -0.04013910257036      0.59326603367184
  C   0.39837789520726      1.46773415971596     -0.09556964745350
  H   0.51584529132156     -0.56740056371195      0.84850997397384
  H   -0.45811954640359      1.68889676872566     -0.73842445893066
  C   0.76241120765137     -0.73896817651007     -1.38157679658854
  H   -0.11952879437350     -0.59403763608620     -2.00641176782560
  H   1.63828565523971     -0.34012651102590     -1.89416928936634
  H   0.90684762438491     -1.80632800373975     -1.21963505649636
  C   0.18516232345622      2.06892407490046      1.28397879143441
  H   -0.70880395835196      1.63735339790070      1.73710086220658
  H   1.04962145396428      1.86338169503291      1.91795114477394
  H   0.05256531828293      3.15357557374834      1.22024697393947
