18
Coordinates from ORCA-job run
  C   0.47665916970955     -0.03370270977098     -0.06401979521654
  H   1.60867265620313      1.73564862822256     -0.38042651204051
  F   -1.24721932937957     -0.14417997464535     -0.19010155252946
  H   2.32266503748933     -0.14027210688919      0.48038314759441
  C   0.57496946657824      1.48901740385122     -0.13878918757251
  H   0.43084880124071     -0.50677483783050      0.89682268140194
  C   0.82427613953630     -0.84977776681062     -1.29013762208434
  H   -0.05620267995952     -0.91439254647147     -1.93752441887909
  H   1.65479597033331     -0.40944493301336     -1.84171495089580
  H   1.12925000388760     -1.85451225537439     -0.99468142488372
  C   0.24622206908551      2.07305513580328      1.22700087869510
  H   -0.75932583285369      1.75702223588588      1.51628405309516
  H   0.96741555717641      1.69722253988783      1.95893179725513
  H   0.28650208557455      3.16924207471608      1.22224894994011
  C   -0.31905996671124      2.09105581764879     -1.22620424541509
  H   -0.11810567928505      1.63269788866945     -2.19969880027183
  H   -1.37006880018046      1.92826272721565     -0.99586038789423
  H   -0.11906466844512      3.16692267890518     -1.31421261029873
