17
Coordinates from ORCA-job run
  C   0.65729725914974      0.02488906289483     -0.08856243486011
  H   1.60834319104514      1.90854945644494     -0.35975947873403
  F   -1.42572340825841     -0.03863096221557     -0.05730039640801
  Br  2.93503800712355     -0.26003141003241      0.62810779148430
  C   0.60590403109561      1.54550115843460     -0.12026296319080
  H   0.37981743398449     -0.48988290999024      0.80941893102287
  C   0.74365849402170     -0.73177903687846     -1.37919651408250
  H   -0.23604649555637     -0.67038547740078     -1.84787853870453
  H   1.49551183847176     -0.29141799622417     -2.03469650748816
  H   1.00077791793381     -1.77472909499936     -1.19170876627166
  C   0.18726276817330      2.06601949539842      1.25205092153373
  H   -0.80491998639594      1.66473060241246      1.46131700645088
  H   0.89198954365995      1.74084369184338      2.02296749469661
  H   0.15298691685978      3.16203608284438      1.25513184153943
  N   -0.28246041114865      1.95785955709401     -1.21501235951331
  H   -0.43143833137129      2.95843492019196     -1.13448851444474
  H   -1.15214876878817      1.46387286018199     -1.00079751302996
