15
Coordinates from ORCA-job run
  C   0.72582868431219     -0.00271029087328     -0.05717352235685
  H   1.70812321025461      1.87177237890659     -0.07734307639172
  Cl  -1.63317860310863     -0.23403745296699      0.55352148669164
  Cl  3.12473816875088     -0.29414970646012      0.07267743085890
  C   0.68084961752323      1.50626312135604     -0.09704165025919
  H   0.80500441940144     -0.49041959041849      0.89334940804802
  H   0.19022012375748      1.84702632888449      0.81564591800142
  C   0.61242458276609     -0.81030533087745     -1.31779789005606
  H   -0.35613582992249     -0.63867382976879     -1.78543714632828
  H   1.40243617788261     -0.53218068934592     -2.01535386269167
  H   0.71123306985105     -1.87034507310272     -1.09009508336150
  C   -0.04055342665952      2.08463935676089     -1.31015703737117
  H   0.44759741992095      1.79427274049010     -2.24380528037370
  H   -1.07778607370607      1.75015707065266     -1.33277983113931
  H   -0.03004154102383      3.17771096676297     -1.25902986327051
