14
Coordinates from ORCA-job run
  C   0.52964074911799     -0.02428644674316     -0.03152431286718
  H   1.20640826308167      1.84660859977475     -0.69563159726430
  Br  -1.98834082534292     -0.61480233787838     -0.03760456527461
  Cl  2.84638608725779      0.03614071365437      0.67274620712436
  C   0.40550021070430      1.47173499774619     -0.04091175575239
  H   0.42737829717509     -0.55409455730645      0.89575981998391
  H   -0.55126590471631      1.72841283487353     -0.49905545311097
  C   0.79024166931395     -0.72302584682357     -1.33479271993065
  H   0.02516557932056     -0.44604470098109     -2.06039361868350
  H   1.77063157737960     -0.43593442538055     -1.71556112119900
  H   0.76058076283633     -1.80300081954259     -1.20070683643359
  N   0.44779501026044      2.02081947044892      1.30770588117867
  H   0.30892731368823      3.02293895430197      1.25921556234226
  H   1.38185120992326      1.84868356385605      1.66320450988702
