14
Coordinates from ORCA-job run
  C   0.75066990658751     -0.05963042809856     -0.04501435110302
  H   1.57558773896461      1.95587531938606     -0.15287405707789
  F   -1.31544142157075      0.07089367470444      0.04894846311118
  Br  3.00430382294994     -0.32402513706331      0.34708831565985
  C   0.62156834753144      1.43568139187771     -0.03998906564847
  H   0.49511225814190     -0.58587326066371      0.85307532745630
  H   -0.08397108177192      1.74123199513270     -0.80453764058833
  C   0.65998118058951     -0.74527471953034     -1.38226991467120
  H   -0.37185229777718     -0.63605367781238     -1.70878189235616
  H   1.35278029479366     -0.30116331158935     -2.10053476088309
  H   0.91088418278766     -1.80164760596125     -1.28320943014844
  N   0.04873552500166      1.95098259766346      1.23580377475202
  O   -0.54845993274485      3.02434124329649      1.16466458347093
  O   0.27531147651681      1.34713191865804      2.27628064802633
