17
Coordinates from ORCA-job run
  C   0.58357303750527     -0.02614084050238     -0.08818998070529
  H   1.55346394280707      1.81132825002554     -0.51120982885745
  Cl  -1.84954539115444     -0.21930817699584      0.03456571064844
  Br  2.93572144618439     -0.19246564537058      0.63584517501280
  C   0.58046742302603      1.49284533215414     -0.13110156445934
  H   0.40456535658187     -0.48729369888086      0.86264353461518
  C   0.74277474116187     -0.86053042757203     -1.32812514671918
  H   -0.15970223183266     -0.82207754827322     -1.93283526148749
  H   1.57914362316168     -0.49683640341208     -1.92379782813254
  H   0.94107495756016     -1.89198607958891     -1.03646380213592
  C   0.29739106313900      2.11454032312658      1.21674127287198
  H   -0.70057570657652      1.83173528851274      1.54794652363710
  H   1.04588912854336      1.74293291885641      1.91783619438805
  H   0.36375718648777      3.20197573394759      1.16666984886589
  N   -0.35475554342906      2.04225758914089     -1.19177703137857
  O   -1.17058904328301      2.89923630934808     -0.87084936590444
  O   -0.15691398988275      1.66106707548397     -2.34339845025921
