16
Coordinates from ORCA-job run
  C   0.51362955102749     -0.09982784375362     -0.03115181401485
  H   1.64846203634229      1.66893704636060      0.18304444424599
  Br  -1.57323346871292     -0.56014318906349      0.53978085669224
  H   2.64115704711007     -0.05487781955916     -0.07804796594247
  C   0.60327259267068      1.41299699428711      0.03009215662966
  H   1.00964253403475     -0.54486614237643      0.81533617482164
  C   0.61624236313737     -0.77175530547366     -1.39362846168207
  H   -0.35199118935603     -0.76381474586872     -1.89584912365475
  H   1.36096203182956     -0.29419138578559     -2.02439609795822
  H   0.93608551767882     -1.80190304631409     -1.23425218903552
  N   -0.15033697136197      2.03456862707592      1.17129029006263
  O   -0.93271437372425      2.95331471450981      0.94407408068148
  O   0.17999768523711      1.62096694834548      2.27695392751513
  N   0.17899739974655      2.11670827556249     -1.21617870533484
  O   0.89013914042063      3.06218640189444     -1.56283876392976
  O   -0.83279189608012      1.73741047015892     -1.79646880909635
