14
Coordinates from ORCA-job run
  C   0.36164574714083     -0.06601151181776     -0.07295690670023
  H   1.79687520028387      1.48951567825169      0.06501613839037
  Br  -1.84840604872293      0.05363808662169     -0.18489654930716
  H   2.40549107497924     -0.52096108160158      0.57351310282638
  C   0.71309267669755      1.39845248905508      0.00368199017327
  H   0.45039842844398     -0.62545558949645      0.84006702894240
  H   0.30778075875892      1.95756522070446     -0.83863628101473
  C   0.67697399147381     -0.72538485010470     -1.40385735764922
  H   0.38615855159754     -1.77679895283113     -1.36533905221691
  H   0.10184027886565     -0.24313942192291     -2.20001156458641
  H   1.73906368299501     -0.66843353825319     -1.61955006073199
  N   0.19777235307961      2.07910366788997      1.22280433134394
  O   -0.02710244520347      3.28870981108563      1.12737098181671
  O   0.11362574961039      1.43166999241919      2.26144419871356
