17
Coordinates from ORCA-job run
  C   0.47475855908711     -0.03604145366719     -0.07626164481070
  H   1.51817612861887      1.70121663034717     -0.57737511630099
  Cl  -1.71594041004987     -0.31954356085225     -0.07844713437439
  F   2.38249155896554      0.09554470332922      0.46551089168087
  C   0.53610053126957      1.47744258786687     -0.16313975939101
  H   0.47500356416361     -0.45431104632770      0.90955600237507
  C   0.80433186500715     -0.89989125741999     -1.25992118334359
  H   0.13570399902320     -0.70677480961476     -2.09570942907628
  H   1.83538098665193     -0.69265201018505     -1.53942062190277
  H   0.71497020417734     -1.94811008610894     -0.97127332166947
  C   0.36764909656049      2.12149014566292      1.19125032937760
  H   -0.60554999197243      1.87005053536928      1.61346999949277
  H   1.17147592377819      1.71595074608442      1.80456055665125
  H   0.45722335755701      3.20772191249412      1.13378018517819
  N   -0.41789082611833      2.06131779347286     -1.17559314600966
  O   -1.25569795063224      2.88183868656057     -0.80962892647550
  O   -0.24244659608712      1.72603048298841     -2.34685768140139
