14
Coordinates from ORCA-job run
  C   0.65165889873219     -0.06105273205218     -0.06827262263701
  H   1.58365721209992      1.83276003759224     -0.33471385904100
  Br  -1.85783448404781     -0.32758534958733      0.19941428330424
  Br  3.04483540169695     -0.15330159281372      0.50513683516039
  C   0.57588058781803      1.46719401528632     -0.10240620085842
  H   0.55524942081420     -0.56390445904871      0.87181502371056
  C   0.75755085848057     -0.77556374703789     -1.38875677953411
  H   -0.14029712263036     -0.61294870730142     -1.98428218225032
  H   1.62710175504245     -0.41810176785833     -1.94277050866110
  H   0.87592061344395     -1.84435892347327     -1.21328962636820
  C   0.21580642566930      2.04151199849590      1.19575764393475
  N   -0.00624893056127      2.55269020250614      2.22899015968039
  C   -0.29300562639429      1.98869796347844     -1.16734806455817
  N   -0.85267501016385      2.48698306181379     -2.07200410188196
