17
Coordinates from ORCA-job run
  C   0.38761624739061     -0.02832003452092     -0.10724723756155
  H   1.52013590329467      1.59841496723428     -0.75901426623731
  Br  -1.82665094204985     -0.52656512587235     -0.39219062682691
  H   2.31254628260441      0.03324765934194      0.94352338588024
  C   0.55428962696746      1.48418934492901     -0.24663455214761
  H   0.36666228482932     -0.42468774222185      0.88847602444523
  C   0.95713751851515     -0.87568396009335     -1.22579423163197
  H   0.48039990267413     -0.60997531357397     -2.17398879633602
  H   2.03150061520674     -0.72267308887899     -1.29823857799464
  H   0.75835648693356     -1.93221184620924     -1.03873803812218
  N   0.57646290135740      2.07235487351036      1.09166044942922
  H   0.83965490734214      3.05048734151639      1.00098884973566
  H   1.35498129550796      1.58018780070179      1.54256947886243
  C   -0.48490033250679      2.20824342815270     -1.09730488211560
  H   -0.61942550520321      1.72546842703866     -2.06795908019074
  H   -1.44463501491103      2.23301669536175     -0.58526762319411
  H   -0.14343217795268      3.23770657358377     -1.26948027599409
