17
Coordinates from ORCA-job run
  C   0.59548635389365      0.00071118410399     -0.09640918259598
  H   1.55281951715115      1.83029378735225     -0.37592641432031
  Cl  -1.82979044606786     -0.37477483741094      0.09347872492061
  Br  3.04602371278357     -0.19871547224493      0.66017150345119
  C   0.53868816531146      1.51410523132350     -0.11897114101293
  H   0.50617614191646     -0.52579934713241      0.83259538350356
  C   0.77149045977301     -0.72975434700786     -1.39076994221138
  H   -0.11185850298062     -0.58801231159805     -2.01052623218923
  H   1.63135746132023     -0.32117659515837     -1.92273809704903
  H   0.93289941332412     -1.79172831270661     -1.21065835866775
  C   0.19610485531503      2.08374752557453      1.25389035484661
  H   -0.80970655627400      1.77560126987337      1.54341563684612
  H   0.91514093854845      1.73074742928582      1.99748305789327
  H   0.24014884796507      3.17827813288534      1.22486028657217
  N   -0.31069527355095      1.97527049850055     -1.22267681487023
  H   -0.27570285413626      2.98847617196827     -1.23994434703002
  H   -1.26273223429253      1.68860999239157     -1.01794441808664
