17
Coordinates from ORCA-job run
  C   0.48375480791062     -0.03055025135001     -0.10094075898340
  H   1.49958027202330      1.75932873208345     -0.43084789109040
  Br  -1.72920473662075     -0.54007309381229      0.10484840984601
  H   2.61853165642173      0.01931553114605      0.59827585554703
  C   0.48428149270804      1.49330116979786     -0.13938459159939
  H   0.75294907489087     -0.49098967005394      0.82979813144145
  C   0.81393398130734     -0.75118191439723     -1.38598082323850
  H   0.14821794626515     -0.40669281263674     -2.17785499263081
  H   1.84599870571966     -0.53923774798782     -1.65730773329792
  H   0.69629614432232     -1.82906106506579     -1.25730677121565
  C   0.23034026622487      2.07709417107389      1.24593660301484
  H   -0.75494998413334      1.78015052979869      1.61371476870598
  H   1.00246202284691      1.71317022179170      1.92940356977922
  H   0.27725717404303      3.17232484755322      1.21145457768715
  N   -0.39449571385649      2.00275413550691     -1.20314895466484
  H   -0.29373298286171      3.01205985520707     -1.22789534134523
  H   -1.35537012721157      1.79416736134497     -0.95343405795553
