15
Coordinates from ORCA-job run
  C   0.62321823620308     -0.03093095745139     -0.08179774972552
  H   1.62550820715433      1.79812070198917     -0.33133401645858
  Br  -1.86256486867900     -0.33649401174470      0.19264921010145
  Cl  2.96341408064271     -0.18526880262242      0.48202666380263
  C   0.60053665888522      1.48875762989216     -0.11566660964740
  H   0.58122819889353     -0.54267679097281      0.85738772235277
  C   0.76110695645424     -0.75024150906669     -1.39155626859950
  H   -0.10337672158031     -0.56164476824582     -2.02394431697113
  H   1.65357990181940     -0.39359291192867     -1.90614185434301
  H   0.86320342164372     -1.82010379992032     -1.21361760149524
  C   0.27210140115616      2.04787014065443      1.21158062937762
  N   0.01751272151615      2.59616732044628      2.21912866805356
  N   -0.23020597264373      2.00833285763044     -1.19750538414841
  H   -0.14262767854563      3.01765654435864     -1.21620045472776
  H   -1.19528454291986      1.76313835698172     -0.99986863757146
