15
Coordinates from ORCA-job run
  C   0.46670193211113     -0.08642183549233     -0.06746191298502
  H   1.75519836037407      1.52435721689978      0.07081835655395
  Cl  -1.74275837377832      0.00945607190593     -0.09687508474674
  F   2.37889853528866     -0.24906084407856      0.33161216023186
  C   0.66895420248830      1.40885055637904     -0.01859015268063
  H   0.42300244202641     -0.59613379357034      0.87317052586125
  C   0.63734570295168     -0.79962799073008     -1.38125393209171
  H   0.33600602904016     -1.84030449221900     -1.25938174524435
  H   0.01209082068060     -0.35774306427408     -2.15667429021333
  H   1.68813234032457     -0.75797349450092     -1.65724530745418
  N   0.11758110149024      2.02942958643153      1.23984254383854
  O   -0.30237854370246      3.18095301319554      1.16469253353802
  O   0.21650082058920      1.37281514885682      2.26642333594917
  C   0.18044730959036      2.13004715966080     -1.18687839613430
  N   -0.09784267947462      2.69559676153590     -2.17747863442254
