13
Coordinates from ORCA-job run
  C   0.71034803237027     -0.05398696799619     -0.03796479937723
  H   1.40997721467178      1.96218121279693     -0.41724530037699
  F   -1.31415752696371     -0.12656395959729      0.02150110284242
  Cl  2.83871133186919     -0.11040721988388      0.38261399468358
  C   0.51626959349149      1.44660157969572     -0.05812762392197
  H   0.49737694819872     -0.59856426480997      0.85947307181379
  H   -0.32921851130256      1.64417755782232     -0.71615183490344
  C   0.73317110073780     -0.75883495651093     -1.36603786362335
  H   -0.28244599207210     -0.73819321180707     -1.75353894669923
  H   1.43020590615546     -0.27000385155398     -2.05052131869017
  H   1.05990593649849     -1.79123351973723     -1.23818300852950
  C   0.17575606015379      1.97290826044992      1.25964046477686
  N   -0.07097009380861      2.44316934113165      2.30574206200522
