16
Coordinates from ORCA-job run
  C   0.80875854440357      0.09292971338550     -0.06738206747032
  H   1.65118559407798      2.01796683702957     -0.58048608542680
  F   -1.18495917062534      0.19576054058767      0.26541996812515
  Cl  2.95762318980705     -0.02747239990664      0.22236295774744
  C   0.72408747144142      1.61339318920113     -0.17343727058397
  H   0.65927265953394     -0.29532117010017      0.91980185505568
  C   0.66549676535213     -0.83984267320374     -1.23449922413840
  H   -0.36917404282121     -0.80394240419963     -1.56404475525987
  H   1.32924732617703     -0.56063035539344     -2.05045942216927
  H   0.91419860182109     -1.85172695822267     -0.90987090157781
  N   0.40384675791908      2.25274894914616      1.06965536718920
  H   1.17403918540987      2.05618630798051      1.70004811084474
  H   -0.42045330905768      1.74342335391814      1.38460544928308
  N   -0.30029310789369      2.02554710500807     -1.21478842508509
  O   -1.23370788575489      2.74595534775622     -0.90154414613325
  O   -0.05595857979034      1.65241461701329     -2.36382141040049
