14
Coordinates from ORCA-job run
  C   0.73662611740835     -0.05691115598347     -0.05193199356724
  H   1.58583426557992      1.92649924149309     -0.24567186497393
  F   -1.25205144976699      0.03712781969398      0.02172525745401
  Cl  2.83853652611362     -0.17361564778193      0.37496363943517
  C   0.60591888988824      1.46588132733894     -0.07635569315860
  H   0.49555266075378     -0.56242980950731      0.86159073971169
  C   0.72821817858511     -0.79264909210919     -1.36372917102830
  H   -0.28469426193689     -0.76083277765827     -1.75671140471500
  H   1.43102942989919     -0.34206708694083     -2.06742268175789
  H   1.03524133780483     -1.82640207536843     -1.20265524809347
  C   0.11222180926564      1.95567163078772      1.21286697665396
  N   -0.19588785447362      2.39739773101846      2.25526508539175
  C   -0.27338384055568      1.92780871780575     -1.16078031394310
  N   -0.82556180856549      2.41754117721150     -2.07388332740905
