14
Coordinates from ORCA-job run
  C   0.69658075474944      0.00042999771198     -0.09147115715243
  H   1.69783500945106      1.85249496596807     -0.26333567715139
  Cl  -1.71317434347835     -0.15025137991266      0.38673945572965
  Br  3.20737524125108     -0.32979783279244      0.36770817214794
  C   0.67480595949167      1.50977603123129     -0.10875012403343
  H   0.68857430700835     -0.51657513395118      0.84611940268087
  H   0.34047955442803      1.84662739944711      0.87961213593341
  C   0.69054333220090     -0.74710952191581     -1.38826692275582
  H   -0.25714612664796     -0.58847232447175     -1.89950679126302
  H   1.48825402862621     -0.36964329620903     -2.02768278738251
  H   0.84422676329088     -1.81070717897485     -1.21215667361156
  N   -0.13494173466196      2.01532089837888     -1.21953965189019
  H   -0.06161398649943      3.02550187982996     -1.23186633630093
  H   -1.09841875920992      1.77021549566044     -1.01739304495059
