16
Coordinates from ORCA-job run
  C   0.60243771477478      0.03673861743616     -0.08354093354808
  H   1.58405268300033      1.85119424370046     -0.55386147216193
  F   -1.49072068482914     -0.14367902735536     -0.27307623907820
  Br  2.77165863114861     -0.25384403069790      0.83792438733988
  C   0.60360354717275      1.55779091978360     -0.15371378790665
  H   0.18587403300201     -0.42911570897565      0.78675926463387
  C   0.78330564737217     -0.72705697252537     -1.35896625789684
  H   -0.12494437874309     -0.57675557638139     -1.93759931007036
  H   1.65176086637721     -0.36256914938933     -1.91038693237903
  H   0.91413714116615     -1.78923949844767     -1.15096834284165
  N   0.40380028324927      2.09604823818534      1.20214291383140
  H   0.62582725686691      3.08738398528871      1.16934094617782
  H   1.11155500277064      1.67006014063018      1.79516046048466
  N   -0.40410560401725      2.00052932291609     -1.10165892847638
  H   -0.57363605796984      2.98827812260197     -0.94492585992320
  H   -1.23128608134153      1.44622637323014     -0.84623990818531
