15
Coordinates from ORCA-job run
  C   0.69131241675271     -0.02380837933479     -0.04209285512916
  H   1.78248789515931      1.77905581786956     -0.20209966064300
  F   -1.13732456001778     -0.04411016375183      0.18903048988397
  F   2.53718999327217     -0.21389242475753      0.04132680628681
  C   0.73670688632918      1.48919592728789     -0.10337478940697
  H   0.71262411118908     -0.51123099256738      0.91235693411071
  H   0.35951395114734      1.86715332073314      0.85111353537512
  C   0.65356364342354     -0.83688879628453     -1.30992007605155
  H   -0.32908082347972     -0.77401808814843     -1.77509792597906
  H   1.43070651362816     -0.48752702475005     -1.99068384154684
  H   0.87562571594898     -1.87888107688995     -1.07394691124597
  C   -0.10411767918547      2.08805900052023     -1.22725233141642
  H   0.24165065965286      1.74669236230402     -2.20748996914986
  H   -1.13743888952402      1.77617646690542     -1.09388096870299
  H   -0.04265983429636      3.18304405086421     -1.21880843638480
