15
Coordinates from ORCA-job run
  C   0.59847989755253     -0.02325944946211     -0.04001604396461
  H   1.72010467828211      1.74800536509763     -0.14755995763123
  Br  -1.57007946260023     -0.35137663572322      0.57049086176749
  H   2.81566766589364     -0.27372759510566      0.09732264172500
  C   0.66245050181991      1.49413040179147     -0.09875889492613
  H   1.01095983954043     -0.48323001477593      0.83784938326615
  H   0.26523857345840      1.89444127249689      0.83925674736631
  C   0.64491965724504     -0.80586528534283     -1.33613694070106
  H   -0.25873202726799     -0.62445968465438     -1.92410977024342
  H   1.52136267230436     -0.53118204041379     -1.91721864770356
  H   0.70740332572408     -1.87272941697169     -1.11510506274298
  C   -0.07475465323977      2.12095048360253     -1.27887495040195
  H   0.36008472452044      1.80356889197664     -2.23040621887165
  H   -1.13245286738557      1.85115489330324     -1.27573992897931
  H   0.00010747415266      3.21259881418122     -1.23181321795904
