17
Coordinates from ORCA-job run
  C   0.67254445320354     -0.03650746816174     -0.04265617499479
  H   1.71916763688276      1.79707254782604      0.05254891937516
  F   -1.12707662430114     -0.02621804329642      0.23004797265299
  F   2.49524883120449     -0.12307371496120     -0.11397325569179
  C   0.68213774752266      1.47843593702675     -0.05234342586546
  H   0.75507813162429     -0.52214467957046      0.90935697243057
  C   0.55739907246272     -0.82387607335719     -1.32408010225125
  H   -0.41435675565403     -0.66639524018568     -1.78764967550674
  H   1.36657737444234     -0.55831965755080     -2.00262241861112
  H   0.66135687820168     -1.88408607782286     -1.08589139849581
  N   0.02365517921838      1.97916288706889      1.20816204328739
  O   -0.81883375256629      2.87192318753501      1.12974485549881
  O   0.43210325588217      1.51502822980706      2.26842828381268
  C   0.02428618673888      2.09373058140432     -1.26579095950946
  H   0.54800895815986      1.74848258003451     -2.15986727327176
  H   -1.01475076354430      1.77539414828587     -1.30102690830032
  H   0.07246419052198      3.18291085591789     -1.23082745455909
