16
Coordinates from ORCA-job run
  C   0.63541104092371     -0.04743724417006     -0.07129492473858
  H   1.66461722693020      1.76594243466328     -0.34278299324326
  Cl  -1.77865831065158     -0.31593169940671      0.12979950211418
  Br  3.03557392652570     -0.31540666023381      0.54567514707484
  C   0.63217724565248      1.47479861023249     -0.12949075875921
  H   0.51014258186526     -0.54615555914847      0.86745474684489
  C   0.74905957809890     -0.80554439038832     -1.36531006910540
  H   -0.15953752430376     -0.69112230319291     -1.95499453583859
  H   1.60504129508955     -0.44575388603749     -1.93861504122861
  H   0.89972642570472     -1.86350276647839     -1.15586337075503
  C   0.31074370393809      2.06035330318602      1.17281677486753
  N   0.07200606775360      2.60120161516867      2.18736387547774
  C   -0.23722333961177      2.10174957372039     -1.22906772007619
  H   0.03788962895521      1.68706151040440     -2.20098358469443
  H   -1.29112259238917      1.91091391409251     -1.04699636651395
  H   -0.05111695448112      3.17913354758842     -1.25360068142593
