17
Coordinates from ORCA-job run
  C   0.38057139609074     -0.04079484633725     -0.07396936866127
  H   1.56211790888239      1.69584040887066     -0.55522676170392
  F   -1.28578909083542     -0.00704031488961     -0.28749526928807
  H   2.19164092722112     -0.07343252512315      0.52174752156276
  C   0.58548202701653      1.46542350734480     -0.13985893399227
  H   0.28609688330119     -0.47468183744788      0.90375070721079
  C   0.77365393064716     -0.91287908331020     -1.24664979308962
  H   -0.09252201942529     -1.04014045053230     -1.90067653203269
  H   1.59029290270838     -0.47495813215285     -1.81680270272472
  H   1.10686404418754     -1.88603779078391     -0.88408302692838
  C   0.36493992528378      2.11090657543179      1.20746101091348
  H   -0.63874436467009      1.87053088973315      1.55774778861388
  H   1.11345890583394      1.69231679596150      1.88123350145296
  H   0.47054891551558      3.19701820456567      1.16416776983486
  N   -0.36952166314579      2.06555558980371     -1.16370082303498
  O   -1.25773350196013      2.83460955883459     -0.80367357871636
  O   -0.14561712665165      1.77904345003126     -2.33947150941642
