18
Coordinates from ORCA-job run
  C   0.59794384627523     -0.01201859777132     -0.08888387293255
  H   1.60017431012692      1.78172883820288     -0.39166920072837
  Cl  -1.84966607727467     -0.42384465199122      0.04882986925328
  Br  3.00983252690051     -0.27441637258075      0.70050149332798
  C   0.57388028964882      1.49861296608129     -0.13810648775506
  H   0.45281736654493     -0.51946334961509      0.84375757426063
  C   0.79338404232270     -0.79042332383499     -1.35659757580748
  H   -0.09575789787830     -0.70971511634288     -1.98158613751072
  H   1.65501467030697     -0.39939856871475     -1.90089425342135
  H   0.97201424073490     -1.84058530216904     -1.13190607405823
  C   0.24240630793368      2.08770697310198      1.22626450106931
  H   -0.76733063789957      1.79225537016107      1.51854375508457
  H   0.95449513078917      1.72578584759901      1.97134788525399
  H   0.29856656790024      3.18104972228310      1.19702839096656
  C   -0.31621191627373      2.08091832084864     -1.24060716673998
  H   -0.08235143426759      1.65104247174627     -2.21783531548145
  H   -1.36787326535782      1.89755449253881     -1.02912047219170
  H   -0.13810807053240      3.16030028045698     -1.30076691258944
