15
Coordinates from ORCA-job run
  C   0.68506599676159     -0.01384044466882     -0.08349475311544
  H   1.65481513523885      1.89057869723137     -0.29416636527012
  F   -1.35374382467892      0.03649791491707     -0.03235182872668
  Br  2.95107950786711     -0.29593903121012      0.53284163170240
  C   0.64758893657828      1.51253635969470     -0.10972209754403
  H   0.41423750975936     -0.52568559213419      0.81741972077971
  C   0.72393938201787     -0.74450078052229     -1.39471176968008
  H   -0.26718330034441     -0.67598552804716     -1.83597155030268
  H   1.46224018572007     -0.30305998027721     -2.06432735702935
  H   0.98486544492315     -1.78963277173665     -1.22589932357832
  C   0.23867507247402      2.01065242723021      1.22138793742650
  N   -0.07560201049669      2.50328209092359      2.24060767263636
  N   -0.21866382272297      1.98109643097760     -1.18842009455715
  H   -0.31034520366157      2.98807815463940     -1.11894445043465
  H   -1.10961900943574      1.52501205298253     -0.97910737230645
