16
Coordinates from ORCA-job run
  C   0.50342212350475     -0.07140085836056     -0.03462037361605
  H   1.66558300114321      1.65941029565404     -0.19189059891458
  Cl  -1.55907504416228     -0.32151917119449      0.24450411490116
  H   2.59900121272800     -0.20955119148082      0.23341442970331
  C   0.59902774160129      1.45735866110618     -0.08711113027454
  H   0.78486832301909     -0.53237191659160      0.89092543709615
  C   0.72374796193215     -0.81914515344859     -1.33644387168824
  H   -0.17929488262836     -0.78406473250216     -1.95337245037194
  H   1.56330381070711     -0.41126808959336     -1.89290875262718
  H   0.95715797059040     -1.85982461463054     -1.11016599033147
  C   0.19117324293294      2.07275499666226      1.17758890657067
  N   -0.09022839144620      2.63973798889824      2.16741654740932
  C   -0.15029002573685      2.10871057207591     -1.25411295472016
  H   0.20231629567906      1.69113646153414     -2.19961898022213
  H   -1.22444966057154      1.94633416455612     -1.17705055609582
  H   0.04846632070719      3.18400258731524     -1.26244377681848
