14
Coordinates from ORCA-job run
  C   0.30284540852948      0.01499657454086     -0.07677192020507
  H   1.35505101549012      1.73554551320558     -0.63056873732590
  Cl  -1.88510738483451     -0.17942135202018     -0.61424072211176
  F   2.13160928042595     -0.07063706077947      0.82182995681609
  C   0.44842068297580      1.51513900483244     -0.04788460669152
  H   0.07617566666860     -0.49388357803948      0.83932948362992
  H   -0.40332963076510      1.99333734837045     -0.53366575976427
  C   0.81640827361400     -0.73703198924394     -1.26953955679676
  H   0.46815382318200     -1.76938329089833     -1.25501473196089
  H   0.46229734744247     -0.27563590344451     -2.19347211939045
  H   1.90286961705525     -0.70922002398783     -1.21380396073888
  N   0.54842435570620      1.96205029033310      1.34074203470135
  H   0.77745420914986      2.95025077330275      1.34867276032133
  H   1.35962733535986      1.43804369382856      1.66683787951683
