16
Coordinates from ORCA-job run
  C   0.59406320589720     -0.03593939682944     -0.04604919715618
  H   1.54235535821920      1.82043981628894     -0.37366575641287
  F   -1.23126657232550     -0.14496012673418     -0.08237750003334
  F   2.36561878311365      0.00347704586039      0.35144729428793
  C   0.53741985753821      1.47907201876717     -0.11496909833996
  H   0.48947903912027     -0.52125248423614      0.90495525445404
  C   0.80180763798052     -0.81934125408427     -1.31193316979044
  H   -0.10157557409041     -0.79498339302334     -1.91862137740660
  H   1.64877707603105     -0.40487268898225     -1.86062945138010
  H   1.04539854771805     -1.85366077728621     -1.06256234570046
  C   0.14198003983134      2.05555121201481      1.24218978938058
  H   -0.83525058511965      1.65440300846856      1.50771356563147
  H   0.89024196661110      1.73284768841335      1.96909057390262
  H   0.10488236588660      3.14893382605397      1.22640896700133
  C   -0.36686655901457      1.96149002653598     -1.16660330782315
  N   -0.99096458739705      2.46860547877268     -2.02293424061487
