17
Coordinates from ORCA-job run
  C   0.56608917981525     -0.05422688799284     -0.04140445080919
  H   1.69186844226795      1.65531080488251     -0.04669262834482
  Cl  -1.60784706429835     -0.28518138468855      0.29980109606801
  F   2.57680137608459     -0.06477500136213      0.00678813342271
  C   0.61785099482265      1.45556981441146     -0.07970117083777
  H   0.75766603230282     -0.51933796661087      0.90374397471659
  C   0.63726435930096     -0.82551352511008     -1.33311606497288
  H   -0.21998251686132     -0.62283687227150     -1.97479243867741
  H   1.57038295644532     -0.56964659739909     -1.82907323568573
  H   0.64679012893812     -1.89156703656345     -1.10460048389113
  N   0.10436886753674      2.03488669854740      1.21069027459886
  O   -0.57119416246097      3.06340418732051      1.16287697786656
  O   0.45822291576865      1.48872792803504      2.25019566381404
  C   -0.03534566998950      2.11343350862015     -1.27301979988804
  H   0.44001043280380      1.73679525797610     -2.18115331903587
  H   -1.10156365631133      1.89295240004310     -1.30531308383134
  H   0.10362738383462      3.19352467216224     -1.23366944451262
