16
Coordinates from ORCA-job run
  C   0.60860110606954     -0.02618550830587     -0.07966018982882
  H   1.65746633860149      1.82338761580578     -0.13279585103477
  Cl  -1.75169537351846     -0.13866131610052      0.14340882313566
  Cl  2.94379584426123     -0.27188110597305      0.36717297735025
  C   0.62089999636619      1.48519475853448     -0.11492106389457
  H   0.56388789905673     -0.51530665534414      0.87144920033626
  C   0.68802450734213     -0.76122628958203     -1.38733677892048
  H   -0.20156795708955     -0.57531010539283     -1.98480049911365
  H   1.56046031062944     -0.42886650104136     -1.94698960758769
  H   0.78071980435234     -1.82937200853767     -1.19453080842600
  N   0.13265837462820      2.03208718823251      1.24397564297013
  O   -0.44881361320214      3.11628109366788      1.21655108110803
  O   0.43578845210632      1.42101032197957      2.25907751265850
  N   -0.07667617923642      2.03687315510218     -1.22193975035247
  H   -0.04168321481158      3.04559530445574     -1.17032624823362
  H   -1.04423629555546      1.73669005249934     -1.16574444016679
