16
Coordinates from ORCA-job run
  C   0.80997664106166     -0.05199565653415     -0.08136672030545
  H   1.63479045377745      1.94247919385962      0.15814510880354
  F   -1.17826609415021      0.00598640930650      0.30083657395986
  Cl  2.93161234115435     -0.16314624040043     -0.11875944141073
  C   0.67976069204741      1.45158575106684     -0.01346649762981
  H   0.73915144703498     -0.52360233883154      0.88015818040488
  C   0.54434093006154     -0.86147367253997     -1.32724423955675
  H   -0.52620827475331     -0.88610917616702     -1.49048087971003
  H   1.05967809207015     -0.44154630653613     -2.19112929985586
  H   0.93510207308580     -1.86720796059019     -1.16702637800555
  N   -0.16190479488292      1.89083482586971      1.15967328264649
  O   -1.04764228387140      2.71029160872484      0.97638062047271
  O   0.23110785769948      1.47514108164878      2.24022085254859
  N   0.14937711371212      2.14660121786983     -1.23535070551004
  O   0.58080258040872      3.29382116749356     -1.37896397695799
  O   -0.64415877445578      1.59405009575973     -1.98386647989388
