17
Coordinates from ORCA-job run
  C   0.50232456168427     -0.00439575398649     -0.06284211408457
  H   1.55044150974387      1.66773190964554     -0.72450051432976
  F   -1.30546098102244     -0.27394969674067     -0.62332123941184
  F   2.10198714055924     -0.03947274529155      0.79230908816742
  C   0.57949841469281      1.50475094460994     -0.22784610993318
  H   0.07731352193621     -0.40179397565538      0.83715915192574
  C   0.95854569378843     -0.88134976470505     -1.19509353444725
  H   0.42474077755338     -0.61000715753802     -2.10530696666645
  H   2.03622527688531     -0.78212523905521     -1.33102399838483
  H   0.71860319868156     -1.92179670241195     -0.97333924593150
  N   0.58268573656032      2.10358378625556      1.11663412218977
  H   0.87914737870191      3.07137408724561      1.02696051960867
  H   1.32949127793956      1.59880979165329      1.58722717398552
  C   -0.50606019794283      2.14984027129665     -1.07163113606157
  H   -0.52496474084190      1.72860292965205     -2.07794258536718
  H   -1.47317529728829      1.96361519728595     -0.61614111026294
  H   -0.31064327163142      3.22978211773972     -1.14594150099606
