16
Coordinates from ORCA-job run
  C   0.57863763292280     -0.01881426832206     -0.06110751465916
  H   1.57005964314301      1.74596123817922     -0.67368105622782
  Cl  -1.86444747177180     -0.20699701728833     -0.06874726969367
  Cl  2.73836391376387     -0.15456313032475      0.68097490278836
  C   0.63864806933925      1.49342125628638     -0.15019326538949
  H   0.31162737878098     -0.42851002904583      0.89246840010098
  C   0.76692954531545     -0.87213839003902     -1.28134945176216
  H   -0.07809756515279     -0.76846639154911     -1.95562844523335
  H   1.67681931737319     -0.57834435307584     -1.80583044282248
  H   0.86218004626750     -1.91376448995605     -0.97525765814578
  N   0.49408522595984      2.07911915854894      1.15016867760113
  H   0.56526821837638      3.08599832900784      1.08444911131582
  H   1.26494982650133      1.72748384470099      1.70611410923827
  N   -0.38560467887096      2.09881885271597     -1.09563977887806
  O   -1.07596301023327      3.02510217591600     -0.68971483638892
  O   -0.34024609171479      1.70308321424567     -2.25546548184367
