15
Coordinates from ORCA-job run
  C   0.58879977319532     -0.06622588701681     -0.05410693466720
  H   1.65762123120673      1.68763049037652     -0.08824146916455
  Br  -1.74138524395077     -0.34592001039821      0.22153213735146
  F   2.56869670627321      0.06965838580400      0.11181075751412
  C   0.58702847557414      1.44437433472168     -0.06159919672035
  H   0.74616464830104     -0.53917356414684      0.89423289609659
  C   0.72141939825862     -0.79793518006243     -1.36290080110512
  H   -0.03698455412891     -0.47969587541444     -2.07788884395630
  H   1.72168131527395     -0.61176987493445     -1.74752827579689
  H   0.59426935908227     -1.86626782897966     -1.18672166565172
  N   0.09184576105299      2.03905857918853      1.23072006692997
  O   -0.51025160745546      3.10748179963565      1.16984126691413
  O   0.40896662528260      1.45596603725038      2.25794457518773
  C   -0.10312234856266      2.04823720246967     -1.19338068315389
  N   -0.55686953940308      2.51882139150642     -2.16899382977795
