15
Coordinates from ORCA-job run
  C   0.72688760787655     -0.00768844995836     -0.06991183022760
  H   1.71731999841378      1.86431595042272     -0.12116486284497
  Cl  -1.67673029062894     -0.22860220194236      0.51092607563754
  Br  3.23676896660229     -0.36860821659437      0.17039162181037
  C   0.68838141954486      1.50298446967118     -0.09993276948465
  H   0.75416313970008     -0.50901367655574      0.87660200530181
  H   0.23581797406321      1.84296015272753      0.83272967692905
  C   0.62530632428805     -0.79849529398462     -1.34294181326128
  H   -0.34523423825101     -0.62752090528024     -1.80783282808947
  H   1.41139929942617     -0.49857327434979     -2.03655497991389
  H   0.73510549740326     -1.86101098801611     -1.13285316039255
  C   -0.06957950988598      2.09266813559028     -1.28667467191886
  H   0.39404801031839      1.81357565936239     -2.23630592006023
  H   -1.10602735827862      1.75686691394010     -1.28428150458558
  H   -0.05686684059211      3.18516172496740     -1.22301503889968
