17
Coordinates from ORCA-job run
  C   0.60935459915121     -0.07123589070653     -0.00911308889112
  H   1.69126191747234      1.73101516456881      0.37865158918938
  F   -0.92421338734524     -0.20944451257496      0.64737777284766
  H   2.37930231957929      0.03679754467537     -0.65264320697017
  C   0.69983438265158      1.45348239145919      0.03745488764960
  H   1.11796131123021     -0.56724677168528      0.80123908217325
  C   0.31741829132342     -0.85581847486276     -1.28010091943596
  H   -0.74266586748109     -1.12532200937915     -1.31766484960999
  H   0.58838382392146     -0.30706500221316     -2.17891913299994
  H   0.92501385709145     -1.76057951859144     -1.27736896288064
  N   -0.20036261159661      1.99334583084046      1.14437364700207
  O   -1.22106738551471      2.61706354473242      0.86165750008065
  O   0.20173220543105      1.81390089685877      2.29239162622546
  C   0.35590859557032      2.13957091717808     -1.26417931259609
  H   1.10838464908944      1.84877028319256     -1.99722865350531
  H   -0.63522218534262      1.83870341195500     -1.60475075506360
  H   0.36398548476849      3.22558219455262     -1.14961722321528
