14
Coordinates from ORCA-job run
  C   0.78416513091805     -0.04474367147682     -0.09418384612607
  H   1.76539378415830      1.81086681495757     -0.61559319248106
  F   -1.23999676150397      0.21433578309281      0.04185132670930
  Cl  2.84967327045665     -0.32757299753621      0.36838433376387
  C   0.82301541854965      1.46280404744552     -0.18825097552115
  H   0.47108138328553     -0.45412739635109      0.84382768221062
  H   0.66320009320731      1.89920335718925      0.79227503525427
  C   0.67511994085119     -0.90066358221756     -1.32378063685252
  H   -0.34727095261885     -0.82192600531001     -1.68058331346647
  H   1.37286857639092     -0.57568005801136     -2.09556028186989
  H   0.90445833721822     -1.93503377842175     -1.06214238073427
  N   -0.22019941596491      2.06189295771773     -1.07419202863204
  O   -0.88595594615773      2.98685979833230     -0.62033857238760
  O   -0.24228285879038      1.69699473058960     -2.24633314986697
