14
Coordinates from ORCA-job run
  C   0.73336012879614     -0.06208520934948     -0.04061727825317
  H   1.60658105659042      1.92948962657252     -0.11372398543892
  F   -1.28169263067513      0.07255768867082      0.05006869670766
  Cl  2.86894830213758     -0.30024508531173      0.29363016584974
  C   0.63637636460911      1.43471916059225     -0.03444154334822
  H   0.50899632573387     -0.58654917970673      0.86587775947379
  H   -0.04078609210719      1.76392197678893     -0.81459897014568
  C   0.66256703031915     -0.75195317912829     -1.37592017098179
  H   -0.36766425820021     -0.67851489243650     -1.71488072603345
  H   1.34643605518037     -0.28685747993537     -2.08930813689165
  H   0.95235247468489     -1.79784564343898     -1.27423069016668
  N   0.04455743037614      1.95442200159592      1.23094865514029
  O   -0.55798022421698      3.02419405540635      1.14890232750728
  O   0.26315803677186      1.35721615968030      2.27694389658081
