15
Coordinates from ORCA-job run
  C   0.59604060561025     -0.05096068864676     -0.08254023779100
  H   1.63460615803815      1.75591708496082     -0.52656414387675
  Cl  -1.77428141449401     -0.08070609005717      0.04632236062077
  Cl  2.81463041419060     -0.18898341826618      0.50932073427671
  C   0.64924938870221      1.46674641174543     -0.15322717893299
  H   0.43284759797820     -0.49187414006241      0.87935695475404
  C   0.73006491727398     -0.88543443261788     -1.32654752261516
  H   -0.17056034479770     -0.84509610139457     -1.93270181473284
  H   1.57445727415688     -0.54095072902131     -1.92214737484393
  H   0.92217993186968     -1.91555219970650     -1.02603844242563
  C   0.43973441971475      2.07833295249672      1.15255752955132
  N   0.33085386317807      2.56716665770451      2.21413487846740
  N   -0.28650392157085      2.09426714066136     -1.17616226030510
  O   -1.00024723193064      3.02235901198409     -0.82398025290057
  O   -0.15583165791956      1.67925854021986     -2.32147322924628
