14
Coordinates from ORCA-job run
  C   0.36702176135456     -0.08815748200358     -0.07318580447385
  H   1.74083186185148      1.51299194818743     -0.09914780463372
  Cl  -1.70808343531892     -0.03282291089137     -0.14361059052803
  H   2.32814200638830     -0.30961368070762      0.54873939688977
  C   0.65226176459909      1.42017574678768     -0.04726555628345
  H   0.43575766945291     -0.59059039853290      0.86978199486681
  C   0.68732135353395     -0.80377528262963     -1.36864300411935
  H   0.52211245068881     -1.87374250718217     -1.23062696905579
  H   0.01589172549151     -0.45428617028177     -2.15737015063441
  H   1.72050744743618     -0.64996533349648     -1.66481193980344
  C   0.22730690227691      2.04342525579263      1.20734825582441
  N   -0.05626138154783      2.56701520250588      2.21920374542424
  C   0.07441496209014      2.13341089386675     -1.19344325291829
  N   -0.26962508829714      2.73895471858514     -2.13969832055486
