14
Coordinates from ORCA-job run
  C   0.49223970651870     -0.07465806741442     -0.04658723153220
  H   1.61707196510598      1.74592398652829     -0.29996041675382
  F   -1.17968607811902     -0.06844800753942     -0.06330602287058
  H   2.35835123415164     -0.08541981330940      0.30328483840502
  C   0.58782506150975      1.45745493291166     -0.09052287933907
  H   0.54290037818142     -0.55955773098089      0.90775143170641
  C   0.76712481267686     -0.82670291279783     -1.32922550843117
  H   -0.17455932351506     -0.95104055779857     -1.87227731264337
  H   1.48523695442581     -0.30422367791180     -1.96002090052319
  H   1.19471705063820     -1.80136564641378     -1.09716772238902
  C   0.21476752717552      2.02792707911905      1.20648850534080
  N   -0.04907045337880      2.49942047750638      2.24842745447249
  C   -0.27419008763871      2.02606838682927     -1.14217917647436
  N   -0.84512874773230      2.52764155127146     -2.03743505896794
