17
Coordinates from ORCA-job run
  C   0.64505761435227      0.02195150712029     -0.08265858025679
  H   1.60966803498443      1.89520424580616     -0.35322437383936
  F   -1.39374671093405     -0.04963917417842     -0.06870538068235
  Cl  2.80487172831583     -0.21462094647441      0.56735318842270
  C   0.60327552706141      1.54136663242642     -0.11854548710166
  H   0.39256176953075     -0.48982925615478      0.82362253033587
  C   0.75428237662163     -0.73907796606340     -1.36888054215611
  H   -0.21093494464516     -0.68214687768659     -1.86591419433666
  H   1.52496355931910     -0.30200363019713     -2.00426773278657
  H   1.01072753127892     -1.78010234350779     -1.17015236393629
  C   0.18806534772368      2.06474977195380      1.25347477920128
  H   -0.80542778301659      1.66911370133438      1.46738595221031
  H   0.89314283316143      1.73613792899822      2.02246368933512
  H   0.15883541688475      3.16096808200310      1.25698966951453
  N   -0.27755725883846      1.96359278653207     -1.21484558740349
  H   -0.42058913959449      2.96480118802229     -1.13359954410897
  H   -1.15134590220545      1.47541435006577     -1.01116602241156
