14
Coordinates from ORCA-job run
  C   0.76202397729421     -0.18185091413616      0.05626101680645
  H   1.74811703605071      1.39611986545471      1.16462289564862
  F   -0.69938244512824     -0.36518646667777      0.83492706938410
  H   2.52931843347830     -0.03168432135602     -0.54229460135663
  C   1.03138621021703      1.27773251676359      0.35768631940283
  H   1.24322602183972     -0.91002896550921      0.68220533739365
  H   1.33827957506712      1.82999744282416     -0.52418985469664
  C   0.33249195608608     -0.56426041615090     -1.34699917362122
  H   -0.75820524994696     -0.61814122163396     -1.38515418132610
  H   0.68564078775024      0.15851078924832     -2.08175998880930
  H   0.75359564291977     -1.53392753215145     -1.61642759669789
  N   -0.22320118648369      2.00526184690007      0.82658113176191
  O   -1.03261124665438      2.33577687205345     -0.03855896990984
  O   -0.33546951248989      2.27415050437118      2.02175059602009
