13
Coordinates from ORCA-job run
  C   0.36870242322235     -0.04593315884634     -0.09490756807168
  H   1.64874807354844      1.59240746115032     -0.35539094961317
  Br  -1.92408896971447     -0.06916512379419     -0.34750794229309
  F   2.31222667340197     -0.16491526682291      0.61915401598451
  C   0.61001255410408      1.44807513468926     -0.05865219410949
  H   0.30654720606833     -0.58288576475315      0.83046804205833
  H   -0.06315109035586      1.97998819823075     -0.73562957541481
  C   0.76452337658534     -0.76656907344157     -1.35418588562728
  H   0.38605859015223     -1.78908638801929     -1.34208507267461
  H   0.35725020347159     -0.26538248464303     -2.23547991530411
  H   1.85239686335514     -0.77531050851605     -1.36918235902595
  C   0.45421736365893      2.00031849921815      1.28290834497706
  N   0.30148673250193      2.45970847554805      2.35169105911429
