14
Coordinates from ORCA-job run
  C   0.60836558341169     -0.06861668751575     -0.04578504781803
  H   1.60452949493031      1.73024688320570     -0.27206892958496
  Cl  -1.56620156550187     -0.36482920084916      0.17419447784052
  F   2.53836454391830      0.11393952052523      0.18551484304151
  C   0.55872009333920      1.45482038646059     -0.09086327560907
  H   0.74219586484745     -0.53617814040349      0.90848416484500
  C   0.77763606280511     -0.81525486849573     -1.34008056570207
  H   0.01043342771903     -0.53468752742222     -2.06222879486617
  H   1.77311154033317     -0.60467414099805     -1.72452005782594
  H   0.68342276747550     -1.88461334002255     -1.14946478962414
  C   0.17005789410845      2.04961120053785      1.18814330693506
  N   -0.07483254336989      2.57421419921556      2.20924856262080
  C   -0.26180165026130      1.99790276878075     -1.17765325499960
  N   -0.82640151375516      2.50113894698128     -2.07565063925290
