16
Coordinates from ORCA-job run
  C   0.57195570668250     -0.01797840004928     -0.06584650865011
  H   1.58146308090289      1.73522011292053     -0.67411918619732
  Br  -2.00392093673541     -0.25889300877317     -0.01754585262867
  Cl  2.75533064638914     -0.15421883544600      0.69198659049478
  C   0.64561949375527      1.49380029244923     -0.15299429267469
  H   0.31976361951707     -0.42752432159022      0.89196052583128
  C   0.76974145277645     -0.87207521213889     -1.28452009320699
  H   -0.06839411603147     -0.77070356017763     -1.96817539130508
  H   1.68393788451442     -0.57559848076809     -1.80049301912411
  H   0.86348806205356     -1.91372390599320     -0.97792913192268
  N   0.50477231384409      2.08140485157550      1.14732746656963
  H   0.56026373296806      3.08901510144261      1.07759323141935
  H   1.28581111405238      1.74076289997623      1.69614877641265
  N   -0.36844689338642      2.11123403433920     -1.10219661711901
  O   -1.04712270652740      3.04815209302209     -0.69948830510105
  O   -0.33105245477517      1.70851633921109     -2.26014819279794
