14
Coordinates from ORCA-job run
  C   0.55379371208188     -0.07006914324264     -0.05711798667662
  H   1.26422385686887      1.89533498554630     -0.55013135142903
  Cl  -1.77404986043468     -0.48505550756643     -0.01410163681317
  Cl  2.85142363874483      0.04617567875527      0.52250988190816
  C   0.40722670848932      1.41880584890329     -0.07985115465294
  H   0.50639843986499     -0.59740068408231      0.87328825982086
  H   -0.50925102132388      1.71712950924501     -0.58701096446913
  C   0.77156517251060     -0.74358326499165     -1.38566410284592
  H   -0.04612686361213     -0.50582160376212     -2.06562903676085
  H   1.71690649167999     -0.42426297921013     -1.82230231801908
  H   0.79632632134306     -1.82375460022339     -1.24874931992413
  N   0.31203675393589      2.04096374802007      1.27543510700151
  O   0.35519278152553      3.27162334285854      1.28588159922612
  O   0.16954386832573      1.33238466975020      2.26209302363422
