16
Coordinates from ORCA-job run
  C   0.63363054290941     -0.04442032154532     -0.07000559984119
  H   1.67558129636374      1.76136025662105     -0.32177177949560
  Br  -1.90566293595202     -0.36732905803553      0.20553706904933
  Br  3.06360751748247     -0.32028191250304      0.53859375448200
  C   0.63668253721355      1.47747403460781     -0.12836715465657
  H   0.53259936760695     -0.54199570195578      0.87254565456266
  C   0.74283155541874     -0.80382080334394     -1.36435092815528
  H   -0.15841566430812     -0.67371904550155     -1.96242178998725
  H   1.60834919186665     -0.45519968162875     -1.93070544080366
  H   0.87481141215481     -1.86445275239309     -1.15557686895166
  C   0.29649705851254      2.06814707989677      1.16712505376709
  N   0.04606578326995      2.62035901452796      2.17289366404940
  C   -0.20844462166793      2.10523178940911     -1.24587783903383
  H   0.10218539870080      1.70697875154830     -2.21408769268409
  H   -1.26497038004559      1.89623448000831     -1.09643905152253
  H   -0.04061805952595      3.18573387028769     -1.25298105077882
