17
Coordinates from ORCA-job run
  C   0.54564326166982      0.00399586860585     -0.09424161523805
  H   1.59922959579495      1.69021723564798     -0.66095197995704
  Br  -2.03449252110103     -0.56885079370929     -0.29155535236067
  Br  2.84982584141265     -0.25622397661464      0.99990339235477
  C   0.61695094787295      1.50788411761670     -0.19597425877255
  H   0.24932414686250     -0.44578609528081      0.83340750931040
  C   0.88280450434043     -0.81550962317926     -1.30645956954812
  H   0.15744354756027     -0.62615241044110     -2.09791259302085
  H   1.88160680967165     -0.55908303090449     -1.66295218736197
  H   0.85275070262866     -1.87637536308635     -1.06488166975525
  N   0.51869536339872      2.10222622975429      1.13356528009530
  H   0.64992681692480      3.10454088090747      1.04488656678669
  H   1.29714683823393      1.74053204445577      1.67714085297725
  C   -0.42401404440321      2.15103033630732     -1.11023617048833
  H   -0.46638515463351      1.66046703586787     -2.08363582869378
  H   -1.40643799549388      2.08807339207367     -0.64973423574538
  H   -0.14931866073970      3.20221415197904     -1.26500814058240
