16
Coordinates from ORCA-job run
  C   0.39399230551612      0.01649495115683     -0.09219006389805
  H   1.52108128371227      1.74151979549407     -0.63152009147968
  F   -1.30568395165311     -0.14429073199632     -0.39605260953397
  H   2.14944000568547     -0.00523790272844      0.66377171683049
  C   0.54141440225254      1.53654030301132     -0.18911748862837
  H   0.22822458378988     -0.41708087739267      0.87305050565603
  C   0.86034928294974     -0.81043625301824     -1.26708516474628
  H   0.10377213087939     -0.74675943448379     -2.05259529151354
  H   1.81715439881938     -0.46147664164826     -1.65037094637947
  H   0.97747859493761     -1.85405496406418     -0.96746936514736
  N   0.45530392060690      2.07782238396334      1.17889546702094
  H   0.78190200023929      3.04114293314370      1.14485143955845
  H   1.17708980160937      1.55437685121546      1.67699211731015
  N   -0.45598143045119      2.11535888179228     -1.08701020531061
  H   -0.49429542443209      3.11435584026509     -0.91144441106726
  H   -1.33792190446156      1.69371486528984     -0.81631560867149
