17
Coordinates from ORCA-job run
  C   0.59818700148140      0.00078307813044     -0.09124158728096
  H   1.55082413091434      1.82737322135334     -0.38079704089718
  Cl  -1.79542409344974     -0.39580576942853      0.08212216681340
  Cl  2.92910656528324     -0.13359263729518      0.59753723861797
  C   0.53718457622820      1.51311746184260     -0.12105898962410
  H   0.52781210873707     -0.51767471641846      0.84332630156967
  C   0.78372611465090     -0.73681045269491     -1.37965912624273
  H   -0.06077053974284     -0.54399032642396     -2.03781155334992
  H   1.68988700731180     -0.37965687729940     -1.86981085415344
  H   0.87541081193266     -1.80629295101348     -1.19532230287357
  C   0.20116551420404      2.08331181487311      1.25290293055280
  H   -0.80164691811772      1.77259109023956      1.55058645738018
  H   0.92678755543623      1.73399852424743      1.99158861574957
  H   0.24072623044914      3.17802467291393      1.22286526826706
  N   -0.31760474694605      1.97445975023637     -1.22033372906316
  H   -0.29282938260464      2.98806680721028     -1.22947817836467
  H   -1.26669193576804      1.67797730952685     -1.01608561710091
