17
Coordinates from ORCA-job run
  C   0.63297059595378     -0.03985715445562     -0.06133593047475
  H   1.67876584713289      1.78750683606834     -0.09808951861915
  Br  -1.87581360051181     -0.29538642920386      0.28212235919159
  Cl  2.97594789549880     -0.29909934551391      0.28399346675281
  C   0.63228201186613      1.47236223870105     -0.09836711859709
  H   0.60930879651768     -0.52552335433802      0.89290152750838
  C   0.65842344965810     -0.79667853576564     -1.36301633026995
  H   -0.24628145419107     -0.60870320068116     -1.93855179010724
  H   1.52912595160051     -0.50639106655862     -1.95139298389902
  H   0.72809942003161     -1.86323581093099     -1.15468789075827
  N   0.12926118609072      2.02997681011274      1.21250999814703
  O   -0.46383181140623      3.10714445950722      1.18084189232822
  O   0.42309406634449      1.42287139225195      2.23446930596657
  C   -0.07330331419674      2.11206855578144     -1.27768776218961
  H   0.38539225355145      1.74960138468345     -2.20021691515291
  H   -1.13219153188586      1.86068449744484     -1.27542851572780
  H   0.04376023794557      3.19417872289682     -1.23650379409882
