13
Coordinates from ORCA-job run
  C   0.63926870822528     -0.03906462804675     -0.05505183384939
  H   1.70054092303051      1.73057316179407     -0.21118169883237
  Br  -1.63678884970305     -0.35586037953416      0.43915034749211
  F   2.68202103466425      0.03421402122767      0.04647756389409
  C   0.64466097791690      1.47460260897835     -0.09953887448594
  H   0.89408651925521     -0.49837756634214      0.87743096280090
  H   0.27075035054756      1.88185554733708      0.84113804469389
  C   0.72095602360209     -0.81050674716968     -1.34108199624211
  H   -0.09772580130357     -0.55211048677264     -2.01381355184457
  H   1.68503542978449     -0.57603567088896     -1.78849195879787
  H   0.67575558946726     -1.87999766649911     -1.13355404946730
  C   -0.12450847128729      2.05126599681249     -1.19970292333533
  N   -0.68042243419965      2.56118180910379     -2.09944003202610
