13
Coordinates from ORCA-job run
  C   0.48225652072831     -0.08641727628129     -0.03333357103718
  H   1.38964984021425      1.79807737235712     -0.48763575155122
  Br  -1.64927823955938     -0.56756756639894      0.26316858502868
  H   2.65781850783385      0.11859162729532      0.36526527286703
  C   0.44472258889101      1.43679636249024     -0.08777625084294
  H   0.86940601042076     -0.53186453744537      0.86354726518203
  H   -0.37659937219538      1.74819377742575     -0.74350564137318
  C   0.76457974811231     -0.76174739789376     -1.36039222560858
  H   0.03096157915678     -0.43320819000458     -2.10313254020773
  H   1.77115037495943     -0.52356349018834     -1.69171774205609
  H   0.67284537496987     -1.84448175577249     -1.25372567075110
  C   0.24081551214117      2.06003078870202      1.21783551228797
  N   0.07660155432701      2.60841028571434      2.24260275806231
