14
Coordinates from ORCA-job run
  C   0.64558178327193     -0.06271549980538     -0.06210509921185
  H   1.59244425639923      1.81961574956090     -0.32366326458394
  Br  -1.83625380822361     -0.33185473838334      0.18760635407611
  Cl  2.91670919462702     -0.11250109072495      0.45768003308583
  C   0.57921805522156      1.46440790128080     -0.10157656805241
  H   0.56958093591972     -0.55893040605204      0.88302875306618
  C   0.76914862349383     -0.78299128433989     -1.37667138767292
  H   -0.11345452986954     -0.61613991790084     -1.99274224984843
  H   1.65460779300197     -0.43549044984779     -1.91098240171656
  H   0.87548437447657     -1.85160572718954     -1.19344621288125
  C   0.21242073375610      2.04288097884641      1.19261504544505
  N   -0.01938324010148      2.55777306018590      2.22168028489296
  C   -0.27772051005100      1.99095970573924     -1.17291755150297
  N   -0.83078366192230      2.48961171863051     -2.08123573509578
