14
Coordinates from ORCA-job run
  C   0.73398223226218      0.01370357085545     -0.10362716567192
  H   1.74534429698868      1.86363758992292     -0.46024628605180
  F   -1.34629345337887      0.04362577334276      0.06400841908750
  Br  3.01906869963290     -0.36657957048269      0.50079792998853
  C   0.75264089923495      1.52980376783831     -0.15447530918091
  H   0.46815696552631     -0.48050506746984      0.80677706182835
  H   0.57387055336684      1.88671612986682      0.86980865771270
  C   0.70355081948469     -0.74839133252670     -1.39380115164303
  H   -0.29075514669639     -0.61232341066943     -1.81336586843958
  H   1.45442550535017     -0.36792009053237     -2.08723158164347
  H   0.88848977194349     -1.80786096735890     -1.21459148995648
  N   -0.22719066268366      2.00699820215402     -1.13644159294968
  H   -0.32646077056747      3.00939690435726     -1.02091904927100
  H   -1.08544971046383      1.53750850070242     -0.83648257380921
