13
Coordinates from ORCA-job run
  C   0.79936422782757     -0.05298001575609     -0.06880900722117
  H   1.64580577228265      1.94813858637319     -0.18383870632714
  F   -1.22654810820325      0.01532075617662      0.14072449748965
  Cl  2.92158306965533     -0.24456819611997      0.26163287205729
  C   0.67485614273685      1.46251611956366     -0.05931514180860
  H   0.58136428343431     -0.57168736571274      0.84166798030508
  H   0.24399262220395      1.75981529615323      0.89541432397044
  C   0.70209702199804     -0.78995264784192     -1.37528495305523
  H   -0.33477087778323     -0.73071399605714     -1.69711244755388
  H   1.36624454040336     -0.34931849341889     -2.12158556858529
  H   0.99219266577543     -1.83203737581824     -1.23769943938807
  C   -0.20482578452455      1.95592386745121     -1.12157828519574
  N   -0.78772557580645      2.45128346500709     -2.01187612468735
