18
Coordinates from ORCA-job run
  C   0.58119006024206     -0.01294462014566     -0.08417333816820
  H   1.60291671817320      1.75638289984094     -0.39822458863414
  Br  -1.95346146931578     -0.49581615850742      0.06787631421361
  Cl  2.90101508367609     -0.22288636295039      0.66647087850548
  C   0.57049900944602      1.49574322229502     -0.14437915410460
  H   0.46868933198196     -0.50963581325251      0.85849166086088
  C   0.81152204942853     -0.80228968452086     -1.33942354461199
  H   -0.03385021839102     -0.69913740947016     -2.01887452079215
  H   1.71631629316692     -0.43993495369567     -1.83102744986395
  H   0.94638816671120     -1.85598448222151     -1.10105310432734
  C   0.25556896165703      2.09977189310391      1.21730799879048
  H   -0.76118096838948      1.83408496210948      1.51518251673539
  H   0.96039748728256      1.72309145533627      1.96153974122772
  H   0.34066356019839      3.19108826484669      1.18215590599453
  C   -0.30933541556350      2.08782684756086     -1.24864806903426
  H   -0.09233556467618      1.64196684899275     -2.22259523870631
  H   -1.36495220854795      1.93363598363395     -1.03039162528826
  H   -0.10682087708004      3.16212710704430     -1.32193438279691
