15
Coordinates from ORCA-job run
  C   0.50101570019966     -0.06007551785671     -0.07732235779034
  H   1.61467791857985      1.69691357278665     -0.30474453729639
  Br  -1.67815133049118     -0.41569582051677      0.22882269225940
  H   2.67068523039163     -0.07871404115456      0.38230096072654
  C   0.56902353918579      1.46676382627689     -0.10732350517970
  H   0.83062196397003     -0.52331108500414      0.83275428643752
  C   0.75848066150080     -0.75834916364534     -1.39537926669084
  H   -0.03291365854280     -0.51862121380497     -2.10616888307751
  H   1.71762539827745     -0.44947195048746     -1.80169992281854
  H   0.78152878709773     -1.83767149949995     -1.23289042727124
  C   0.25634803217983      2.04394765843419      1.21746827529840
  N   0.00059121021617      2.60501250324250      2.21833326052233
  N   -0.24016585968770      2.03675597743479     -1.18439628266556
  H   -0.10399533072733      3.04081493957509     -1.19384120114832
  H   -1.21802226214991      1.85079181421981     -0.99077309130576
