15
Coordinates from ORCA-job run
  C   0.62603250194341     -0.02827522957196     -0.08700774998642
  H   1.62101371738670      1.80979923277769     -0.33433272528461
  Br  -1.89016934067115     -0.32310822548552      0.19912968659728
  Br  3.08298028713506     -0.22824488917782      0.54321561610413
  C   0.59814758361194      1.49285399719145     -0.11796269678792
  H   0.56310564535475     -0.54422479246871      0.84909705495071
  C   0.75089376275868     -0.74536263412872     -1.39994729456452
  H   -0.12433158791488     -0.55953247211466     -2.01894318431207
  H   1.63232012601146     -0.38428814672538     -1.93063386938654
  H   0.85854260560868     -1.81553086748307     -1.22613349310244
  C   0.26816037015021      2.04886031639246      1.21039148112132
  N   0.02672879270634      2.59634233527289      2.22175096720888
  N   -0.23399551823099      2.00772763126675     -1.20127399834220
  H   -0.15464063308677      3.01787555738189     -1.21733992883600
  H   -1.19743831276345      1.75419818687272     -1.00486986537961
