15
Coordinates from ORCA-job run
  C   0.55756423474003     -0.02616466041978     -0.07111935624476
  H   1.27999108581366      1.88423736968228     -0.57990801616733
  Br  -1.91730464603829     -0.60465760070234      0.12529836232540
  Cl  2.92531886790258      0.03540179074218      0.54517394837234
  C   0.38908363473118      1.46651575023800     -0.10306756447012
  H   0.55340708605209     -0.55520801909095      0.86153376291554
  H   -0.46530869623158      1.69361576449923     -0.74666591524023
  C   0.78273128498538     -0.74705445390746     -1.36887031562475
  H   -0.05957088964681     -0.57600433006878     -2.03985510458031
  H   1.69622594632177     -0.37507153008309     -1.83402406098312
  H   0.88656813456601     -1.81817613926309     -1.20077671066048
  C   0.19611474270621      2.08053210112620      1.27378326904330
  H   -0.70637523804970      1.67882157109163      1.73809056972991
  H   1.05941668403929      1.85295320010073      1.90127965736235
  H   0.09556776810818      3.16829918605524      1.20451747422227
