14
Coordinates from ORCA-job run
  C   0.64952557306870     -0.03325150325651     -0.10197208877664
  H   0.62713739698006      1.93333718272885      0.76523379582840
  F   -1.21396771106862     -0.25040240240288      0.69319284178367
  Br  2.97009934169629      0.12349759193978     -0.34030123395747
  C   0.29750916889184      1.43324673876943     -0.14058201410052
  H   0.80587703443724     -0.44070636789590      0.87511378052860
  H   -0.78418771593698      1.49067956098273     -0.24445546417382
  C   0.32850392961159     -0.95161295416102     -1.24651631152727
  H   0.65505997173781     -1.96205571257983     -0.99705477041164
  H   -0.75389065382837     -0.94296860641755     -1.36145046612392
  H   0.81438492313726     -0.63754960247364     -2.16734360188287
  N   0.87229891707000      2.22020574912614     -1.27173020087445
  O   1.45306158597011      3.27097825225975     -1.00318841239619
  O   0.65185823823304      1.81981207338068     -2.41356585391587
