17
Coordinates from ORCA-job run
  C   0.59061314890023     -0.00031127851639     -0.09330683027577
  H   1.55018947620016      1.81387769361236     -0.39234545928910
  Br  -1.92636840293511     -0.46725072778232      0.12506717274435
  Cl  2.94681041287974     -0.12617280690294      0.61962543713139
  C   0.53412357063423      1.51126044623974     -0.12592861206139
  H   0.53750730871630     -0.51735351046688      0.84364070409196
  C   0.79044030036946     -0.73809379222603     -1.38018782438765
  H   -0.04102705218211     -0.53828530453878     -2.05272091030285
  H   1.70888953655618     -0.38320247075114     -1.84961558560525
  H   0.87440051779934     -1.80853136474326     -1.19718147714094
  C   0.21267140477583      2.09369955401268      1.24637834888460
  H   -0.79562033257820      1.80519028826850      1.54889744121900
  H   0.93374786071797      1.73323665016929      1.98398165927391
  H   0.27420539982619      3.18719690610185      1.21070546297209
  N   -0.31945538665080      1.97582522858625     -1.22504928435908
  H   -0.27034893233109      2.98841264572042     -1.25109076651766
  H   -1.27492883069834      1.70638184321664     -1.01153947637760
