14
Coordinates from ORCA-job run
  C   0.55049424591791     -0.01436500094621     -0.06594269378423
  H   1.78581779183059      1.68655538085442     -0.11044477659157
  Cl  -1.62297813828781     -0.01474661331233     -0.16506871131181
  F   2.49690457349016     -0.22606069387256      0.38132740542859
  C   0.72587667062415      1.47576024492007     -0.00525385389839
  H   0.37105647893233      1.84202212829832      0.95524647517863
  H   0.14335428304556      1.94530129920035     -0.79879014804022
  C   0.78821689903090     -0.77618094533896     -1.33765558432069
  H   0.48400185174651     -1.81131760834892     -1.20137685041121
  H   0.19654384584968     -0.33752325973731     -2.14208315119423
  H   1.85131928266900     -0.72897505643320     -1.55383783031769
  N   0.53726523522718     -0.77861103318022      1.22570458263319
  O   0.48001993903843     -0.13268198003281      2.26382617025334
  O   0.52695704088538     -2.00078686207061      1.15928896637631
