20
Coordinates from ORCA-job run
  C   0.65847464460755     -0.04472914320279     -0.02551091605757
  H   1.55072182180500      1.79033473711895     -0.34972342380203
  Cl  -1.76839157285175     -0.42025375229168     -0.10860288476867
  Br  3.09005800181030     -0.02117291657195      0.59395971187456
  C   0.54145966562199      1.48024189378400     -0.07106454301933
  C   0.92941870125232     -0.77800163286734     -1.31367402377335
  H   0.00912226766204     -0.87661205678017     -1.88552841519509
  H   1.67088559451140     -0.21771946111400     -1.88397547469560
  H   1.32544687185982     -1.76624881778311     -1.09876973098060
  N   0.49099526799761     -0.90258751539631      1.21104431710314
  O   0.27627251257507     -0.34567248773574      2.27810993547270
  O   0.60201268508779     -2.11160156012296      1.05909775542560
  C   0.20293265873267      2.19815295654752      1.22935207863771
  H   -0.77667948753783      1.89142384926707      1.59579702521827
  H   0.94479768337194      2.00012494549995      2.00052871313476
  H   0.18443642516551      3.27445320453359      1.02311594846468
  C   -0.36244783747574      1.99883443085724     -1.20008862528147
  H   -0.28000808357666      1.40603840266534     -2.11172882670870
  H   -1.40765019195733      2.00840247697466     -0.90169739973975
  H   -0.04473762866171      3.02210244661774     -1.43367122130927
