17
Coordinates from ORCA-job run
  C   0.37963675473717     -0.08900225613533     -0.04262864359982
  H   1.31269673235026      1.74093033950786     -0.53831596967538
  F   -1.19143962813887     -0.33310313648454     -0.34851378221315
  H   2.07542383316510      0.06444111724836      0.71212132957870
  C   0.39258987890172      1.43424013092247     -0.03830735508968
  H   -0.45180068364555      1.73187906089514     -0.67396013524013
  C   0.91797552765636     -0.75088025039570     -1.29132060028898
  H   0.64130055589027     -1.80307242231352     -1.27232420507705
  H   0.42399662336583     -0.27523059132867     -2.14381663267127
  H   1.99663157727577     -0.65651432644508     -1.37670521472689
  N   0.38221809691902     -0.90790011187976      1.17984094067823
  O   -0.08838865902636     -0.41447076970536      2.21464570176125
  O   0.64479419932429     -2.11462083246188      1.06843352181287
  C   0.29773100238932      2.16837850926628      1.29075516413057
  H   -0.64159976831847      1.95405033170850      1.79677787278852
  H   1.11666047323171      1.85962151381756      1.94093041837607
  H   0.36889348392245      3.24771369378362      1.10644758945613
