16
Coordinates from ORCA-job run
  C   0.57728534812040     -0.09998223299498      0.03078086011884
  H   1.31243536207069      1.69325045659464      0.85312105454324
  Cl  -1.36238075615889     -0.72977133325651      0.85996542565066
  F   2.36538211856505      0.30027709891949     -0.42501894946913
  C   0.47230825459882      1.42387138969983      0.21068949255340
  C   0.34941153555335     -0.78689426464093     -1.28845356567002
  H   -0.60333955151060     -0.46814621902942     -1.71002788790248
  H   1.16964679750230     -0.55145779667628     -1.96009364910611
  H   0.30414612360236     -1.85909729194909     -1.11197551902697
  N   1.27548032343279     -0.81977029278909      1.14539311827838
  O   1.48374060565039     -0.18552875524838      2.17180453895008
  O   1.57391936204689     -1.98828711920765      0.95505589933007
  C   -0.74196354007156      2.00526770117741      0.80516946969475
  N   -1.60399387623183      2.65712377290665      1.26654929694853
  C   0.68813540980187      2.07207688069131     -1.08920704189829
  N   0.78127648302795      2.64850800580296     -2.10781254299494
