18
Coordinates from ORCA-job run
  C   0.55516424048681      0.05113430135312      0.01576873226097
  H   1.69221162099326      1.88489722774064     -0.00134808668949
  F   -1.04209063793694     -0.03998862852707      0.26295817592520
  H   2.36820521808288     -0.10742919201460      0.06956472639718
  C   0.64294200557264      1.59725454573282     -0.02696185205181
  C   0.66607411185632     -0.75636496964945     -1.26082756095970
  H   -0.33041510139318     -0.87421858771968     -1.69598059794706
  H   1.31556064850049     -0.26137662536764     -1.97679647619001
  H   1.06071316843518     -1.73792960073510     -1.00942293799190
  N   1.02358794473390     -0.61020404094574      1.23018229450001
  O   1.17982914727805      0.07990139900134      2.26734590293220
  O   0.94102070583913     -1.85376751540975      1.27720754438444
  N   -0.03210567286934      2.29422792524178      1.06638136994695
  H   0.44406211886867      1.99734989649670      1.91310747089262
  H   -0.94935627360952      1.86210380581212      1.12794718046476
  N   0.07938458948123      2.00624521094504     -1.31473465299091
  H   -0.04313871171640      3.01166156177292     -1.24183261758424
  H   -0.85443912260315      1.60691328627254     -1.34749861529922
