14
Coordinates from ORCA-job run
  C   0.66662333001352     -0.01783825241390     -0.05269267134632
  H   1.48032236714256      1.94770567219037     -0.29897602685017
  Cl  -1.69829052084512     -0.26562043560711      0.12643854845042
  Cl  3.04165284158601     -0.00956001194969      0.18917752457067
  C   0.53375255597815      1.47877597817340     -0.03939705895041
  H   0.22653032471994      1.80463773454956      0.95109470861338
  H   -0.23521922210899      1.76876968208111     -0.75384436966689
  C   0.77569636589482     -0.79466638804373     -1.33441638930001
  H   -0.18175455615735     -0.80699913539181     -1.85068169180005
  H   1.53320803637420     -0.32936422639367     -1.96310681253102
  H   1.08344876271128     -1.81370718938901     -1.11438782278653
  N   0.69057152737940     -0.76062480692943      1.25735739453990
  O   0.64510573821315     -0.09182129875466      2.28064227087703
  O   0.75320244909845     -1.98129732212150      1.20773239617999
