17
Coordinates from ORCA-job run
  C   0.73564087668315     -0.04216127151998      0.01358054827121
  H   1.29537528543050      1.93658250372072     -0.48727761033510
  F   -1.24264136464882     -0.31549334935917      0.06312709520441
  Cl  2.87453185648166      0.09971923719912      0.40564678728120
  C   0.43097787161579      1.44197414381446     -0.03662122434438
  H   -0.40926719246046      1.51245100894622     -0.72720778753141
  C   0.84536296061068     -0.75903608212476     -1.30329732341643
  H   -0.16470283292667     -0.92232414703228     -1.66985812607013
  H   1.41955193498100     -0.13705296648823     -1.99247676635610
  H   1.35939481802905     -1.70803323225882     -1.17832413605293
  N   0.54013622607444     -0.91430961349434      1.21960168913385
  O   0.40205393327707     -0.37958088797783      2.31118408564660
  O   0.58953414832619     -2.12463420838270      1.03902621918896
  C   0.05067147712896      2.15442366645126      1.25101864603597
  H   -0.84252414387438      1.69667482496963      1.66856184151167
  H   0.85070155262483      2.11183698887341      1.98911203217880
  H   -0.15747740735299      3.20542338466330      1.01826402965378
