16
Coordinates from ORCA-job run
  C   0.78376618902412      0.01411124109374     -0.07256938554350
  H   1.64273368219779      1.97191970733352     -0.20629742485431
  F   -1.18163779979861     -0.05276710951623      0.05725490907528
  Cl  2.99281412241890     -0.11691076517503      0.23080680140762
  C   0.65897583345367      1.52637476033235     -0.06870554205294
  H   0.28299062744475      1.80221455764693      0.91947493366227
  C   0.78312353229377     -0.77311821644378     -1.34804610477747
  H   -0.23212189581704     -0.80550499756900     -1.73114560083088
  H   1.44242685108376     -0.28475853136098     -2.06369336603261
  H   1.14365756025315     -1.77976522442352     -1.15167221449759
  N   0.58166651569109     -0.72547853358657      1.21854018963303
  O   0.52845080456394     -0.06830898547116      2.24974236455297
  O   0.51232924343833     -1.94573554969317      1.15999752324017
  N   -0.19552679487386      1.95266135944259     -1.18133307672256
  H   -0.28156117440201      2.96178321087101     -1.13840821363544
  H   -1.09481729697172      1.52951307651929     -0.97506579262404
