16
Coordinates from ORCA-job run
  C   0.50368952959489     -0.03592478277432     -0.06909915605855
  H   1.70660897526029      1.65147492679388      0.08346937456117
  Cl  -1.66408865888535     -0.10446384104412     -0.06204674152021
  F   2.49751062830853     -0.21053862070287      0.30160714302207
  C   0.63934293186577      1.46851664310344     -0.00515908660202
  H   0.13547104900588      1.81032328700430      0.90232611666813
  C   0.73684679478441     -0.78830111949476     -1.34391807792800
  H   0.61961304995256     -1.85253023282317     -1.15026191142355
  H   0.02703293999707     -0.46686670976147     -2.10260593320844
  H   1.75598840517610     -0.58317535276126     -1.65596681668359
  N   0.58068658236147     -0.77236615621394      1.23279056867540
  O   0.56427561124952     -0.09990676643056      2.25723838565936
  O   0.58957780582780     -1.99518787490589      1.19835221713064
  N   0.14169610730574      2.08630746347531     -1.23821629748033
  H   0.40311449507948      3.06465559875309     -1.22141964723272
  H   -0.87009624688416      2.03421353778235     -1.22821013757933
