16
Coordinates from ORCA-job run
  C   0.47261968418122     -0.01299052058107     -0.00425832773304
  H   0.77615627753558      1.80706663472846     -0.96831476775473
  Cl  -1.59497980167693     -0.76389945262387     -0.14324013674385
  F   2.34078467554136      0.49301500269129      0.43917615956063
  C   0.19232414659921      1.50058970248961     -0.09632192538807
  H   -0.86165472184390      1.66210722414365     -0.31717370907175
  C   0.95341729554565     -0.73883857043326     -1.22982854566196
  H   0.33765890301166     -0.44083435458250     -2.07988246783206
  H   1.99465414207432     -0.47167802997688     -1.38760251969252
  H   0.85737014880084     -1.81280998681576     -1.09399048474528
  N   0.64420832647281     -0.70791027590115      1.30952411853798
  O   0.24999601779474     -0.12981835565756      2.31722887440033
  O   1.13813071355422     -1.82711628730127      1.29837599328127
  N   0.58396925239852      2.35870085478191      1.00552730901234
  H   1.53903676904910      2.07053633556703      1.19750170127553
  H   0.04109817096162      2.08645007947135      1.81439872855519
