15
Coordinates from ORCA-job run
  C   0.59469469417386     -0.07431028248245     -0.00757715422214
  H   1.55257666409215      1.79758436054661     -0.00665755526291
  Cl  -1.56707525385379     -0.38241962156283      0.14622289700011
  F   2.52862794260689      0.03632568105358      0.12470842758432
  C   0.52484260167549      1.44082707196454      0.03859035159050
  H   -0.01322763181021      1.75384305958131     -0.86069065904287
  C   0.75709006871477     -0.76504305605996     -1.33488495342677
  H   -0.06601817410682     -0.51043072189122     -2.00151727169505
  H   1.71513201839821     -0.47258538300836     -1.75474928643587
  H   0.75033171350417     -1.83975487124160     -1.16521432209462
  N   0.84186988625751     -0.83640088478932      1.25533414982746
  O   0.87053662401137     -0.19081047746676      2.29353286779512
  O   0.97469364730266     -2.04883203259087      1.16640066769264
  C   -0.14533357704305      2.07634722333905      1.17014946188865
  N   -0.63992122392320      2.73532993460825      2.00622237880143
