16
Coordinates from ORCA-job run
  C   0.85782780775118      0.05724011769665     -0.00440282060266
  H   1.49184988117324      2.10303235160233     -0.31663286042287
  F   -1.13706444362341     -0.10456409100271      0.36751740005986
  Br  3.19780139940130      0.08451548513387     -0.01478518906760
  C   0.57169016827646      1.57308752563422     -0.07226173755838
  H   -0.11037947371527      1.65297825780015     -0.92181563964174
  C   0.69483932367894     -0.74975788268051     -1.26258802233818
  H   -0.37322623406684     -0.87224881427180     -1.42563908021948
  H   1.15865657531869     -0.20742340075582     -2.08873058732274
  H   1.17651875808085     -1.71903783812860     -1.16591984065061
  N   0.83674260893489     -0.70833659710661      1.28208921096593
  O   0.95277993790539     -0.07894017317785      2.32864089744174
  O   0.74745086111883     -1.92692880863355      1.20962901372642
  N   -0.07197887327283      2.21861996643877      1.05323010961192
  H   0.54041715779365      2.13412025688811      1.85385547608360
  H   -0.86913545475505      1.61621364456334      1.23893366993481
