17
Coordinates from ORCA-job run
  C   0.65352731879719     -0.03411091769055     -0.02782107162705
  H   1.64688898501382      1.84293568740110      0.01753154293683
  F   -1.09742752947654     -0.08941705121275      0.09300373834481
  F   2.45903309554217     -0.05617175080631      0.12731723926776
  C   0.61626089277484      1.49356545079785      0.01731475697907
  C   0.75562801965757     -0.76161583442037     -1.33934347821313
  H   -0.22704778569682     -0.88926393709894     -1.78734711324222
  H   1.40341819778368     -0.18924186636922     -1.99819545666368
  H   1.21088651106990     -1.73038693267434     -1.15103064816037
  N   0.69419122637402     -0.82502448546221      1.24119373152515
  O   0.80329690346683     -0.20766967320465      2.29270615437552
  O   0.61071249217874     -2.04337296256278      1.14802463035478
  C   -0.05524032115864      2.05113368589699      1.20937733496848
  N   -0.59511050207914      2.69345601217387      2.03247933108394
  N   -0.04912364327258      1.96850339431125     -1.20233304817011
  H   -0.10773000997824      2.97991832502630     -1.15855885085508
  H   -0.99092385099677      1.59427285589476     -1.15050879290469
