19
Coordinates from ORCA-job run
  C   0.59999488605930     -0.02801187054442     -0.02117615337026
  H   1.55582141375533      1.80074978514407     -0.31183780107691
  F   -1.14515693542725     -0.23088717974245     -0.05557184730092
  F   2.38284816900609      0.01829612077656      0.43408378742816
  C   0.53852766463419      1.50162989871072     -0.06249387441768
  C   0.90302230544471     -0.72831685843413     -1.31541272675355
  H   0.00326747431406     -0.79595201410463     -1.92230529878873
  H   1.66601201986740     -0.15557605800512     -1.83871073607420
  H   1.29065937087307     -1.72010195290248     -1.09861436082567
  N   0.53178673940608     -0.87995965661698      1.22111191891806
  O   0.35460161554609     -0.33848297744242      2.30447261160016
  O   0.62899884126701     -2.09222829604944      1.07305774884531
  C   0.14114015786869      2.19404040480513      1.23613988187643
  H   -0.84325418922888      1.85484682172232      1.55965918462352
  H   0.86020314537944      1.99557096276097      2.02860518985674
  H   0.10585574288340      3.27531947123492      1.04944872918343
  N   -0.31679611236919      1.88610344993904     -1.19936744969034
  H   -0.40168649503778      2.89707105378183     -1.19196838359851
  H   -1.22610581424176      1.48018889496653     -1.01112042043506
