17
Coordinates from ORCA-job run
  C   0.29161830196020     -0.11095257282388      0.15641597518294
  H   -0.88193682013467      1.60438241839278     -0.25368051399441
  F   -0.79253609012532     -0.26963614062774     -1.27204370407862
  F   1.20683658891171     -0.26255702916873      1.69222758056963
  C   -0.14459225064758      1.29973838671236      0.48708373329681
  H   -0.62707732848235      1.26267359916077      1.46232714738597
  C   1.49350115545402     -0.42206273749870     -0.69100486841717
  H   1.51212157424997     -1.49571260437751     -0.86731196278170
  H   1.39628583996352      0.08531369204335     -1.64923712784861
  H   2.40467184713070     -0.12604490434002     -0.17602104819107
  N   -0.53263767369672     -1.23984806157063      0.70411802588665
  O   -1.52983417494925     -0.94911949436629      1.35513232447955
  O   -0.17133052042359     -2.38699934931225      0.47245568649750
  C   1.02215940443760      2.28007197418784      0.53120526847171
  H   1.74007065683321      1.95555395514735      1.28182597791587
  H   1.52725308347827      2.34861304273117     -0.43649308942294
  H   0.66274640604028      3.28304582571008      0.78706059504789
