17
Coordinates from ORCA-job run
  C   0.41487930863441     -0.10259273313294     -0.05280305789456
  H   1.61748708278014      1.67632365228036     -0.17720301418998
  F   -1.13401906104383     -0.17904392970151     -0.21130897091681
  H   2.21057412277430     -0.14040492804092      0.48632785899591
  C   0.56973078272017      1.42807915313323     -0.04223581771175
  C   0.88767906021645     -0.74753208474791     -1.33468867702949
  H   0.06853051197361     -0.71813593239239     -2.05962568353359
  H   1.76698779988081     -0.24752762940780     -1.73486933018752
  H   1.14354444908926     -1.78135885564796     -1.11546421956219
  N   0.48152259857863     -0.87759731569934      1.19839374923689
  O   0.25025042641190     -0.27516937964073      2.25277031815346
  O   0.54803795563284     -2.10775915801389      1.09956362201848
  N   0.16551364580757      2.10946268891908      1.24544969850686
  O   -1.03029670661031      2.22220641304398      1.47800012896253
  O   1.08459859293424      2.54100991361403      1.93303488123041
  C   -0.23160112763110      2.02345642707849     -1.11762562613933
  N   -0.77164944214907      2.53924369835619     -2.02432585993935
