18
Coordinates from ORCA-job run
  C   0.67272023354491      0.06896970319628     -0.01417025937492
  H   1.67457204626802      1.92750342035082     -0.22395347809590
  F   -1.05225707412476     -0.03080250056059      0.23539122331608
  F   2.52972842804559      0.03803906263968      0.07598618885418
  C   0.64436684573524      1.60905413124724     -0.09015191197036
  C   0.73287134500606     -0.74398247882008     -1.27674963096838
  H   -0.25944046481338     -0.83878639973763     -1.71425947209419
  H   1.40319096096323     -0.24267537919079     -1.96913683538319
  H   1.13179737821630     -1.72743072203191     -1.04300944711133
  N   0.82851870485608     -0.66902885199085      1.28666258843503
  O   0.99852631807626     -0.02873995389446      2.31955183540662
  O   0.74674007698818     -1.89058238474396      1.25158588899646
  N   0.09950858816033      2.30483353884129      1.07245760148566
  H   0.71544669503583      2.11285774290861      1.85374084240926
  H   -0.76329476867685      1.81375953038422      1.28824872967030
  N   -0.11536275855685      1.95438667777687     -1.29135773211896
  H   -0.24129463516383      2.96049118967357     -1.24678920068160
  H   -1.02912791956031      1.53254367395167     -1.15898693077477
