15
Coordinates from ORCA-job run
  C   0.65492398680154     -0.06925281773138     -0.00065116475175
  H   1.44087855954583      1.90175579813207     -0.27785356904142
  Cl  -1.69888377279881     -0.29272311370145      0.11746790850234
  Cl  2.97531699547303      0.02514821581634      0.25740317585152
  C   0.49103237232954      1.44192096017505     -0.00251123317051
  H   -0.24289448816224      1.67070472795784     -0.77802066842513
  C   0.79797869790169     -0.76941125817384     -1.32597736338458
  H   -0.16650561358086     -0.88580454986600     -1.81451976737783
  H   1.47009791483587     -0.18705712685133     -1.95620924603035
  H   1.24649899442089     -1.74629458569346     -1.16598536613363
  N   0.66420694538080     -0.88305272383488      1.25897197353882
  O   0.62962957512809     -0.27572539283569      2.31822932192836
  O   0.71395593286440     -2.09765724204407      1.12481565614432
  C   0.02420601999257      2.10012443945706      1.21400018862068
  N   -0.32162212013233      2.78699466919376      2.10071015372911
