17
Coordinates from ORCA-job run
  C   0.49720721453601     -0.05998658307018     -0.01678285731845
  H   1.61390501988025      1.76609363122616      0.21230920029334
  F   -1.08963312019021     -0.15033447145293      0.14568903674486
  H   2.35776815397900     -0.15519118213094      0.05683583278006
  C   0.57726860454177      1.46831546180270      0.07387964398756
  C   0.67541705023390     -0.76742619017451     -1.34071501432924
  H   -0.30548620663526     -0.91560794442621     -1.80286683197935
  H   1.31330248349007     -0.19166846326930     -2.00379898450074
  H   1.12893050541788     -1.73542327567215     -1.14303785850328
  N   0.89544234995575     -0.77149042581636      1.19323466318680
  O   0.97924717934970     -0.10136059540431      2.23971680041182
  O   0.85593496860466     -2.01291238192459      1.17417267661016
  C   -0.20786109521663      2.01727136180016      1.20375964553354
  N   -0.82915390446933      2.65778052712602      1.96914852835509
  N   0.08411413736764      2.01721884391117     -1.19609118090223
  H   0.06236866027783      3.02821002924352     -1.11749707254560
  H   -0.87753200112303      1.70402165823174     -1.28414622782433
