15
Coordinates from ORCA-job run
  C   0.47118680584172     -0.10101173320761      0.00736980190884
  H   1.54883853632051      1.74345818242167      0.08477735652037
  Cl  -1.48995041906998     -0.44110460517959      0.22179407743841
  H   2.39569998764106     -0.10127680368219      0.22442286931735
  C   0.50678731416460      1.42282074554365      0.05509106615779
  H   0.06081817312422      1.77539233556257     -0.88055402467406
  C   0.71853684229701     -0.75222128390389     -1.33749340708115
  H   -0.08179584097569     -0.46274016723598     -2.02247515407674
  H   1.68388451422841     -0.46931073764008     -1.75106879497929
  H   0.68799165035666     -1.83053565954249     -1.18972597250431
  N   1.03366119946766     -0.77224537734496      1.18339869815914
  O   0.98582529394672     -0.12120359476737      2.24791057861418
  O   1.11304209785060     -2.01543555403964      1.14033938368997
  C   -0.20872103218712      2.07970964277199      1.14971085468482
  N   -0.74698512300638      2.76537461024393      1.93637266682465
