13
Coordinates from ORCA-job run
  C   0.76050071972287     -0.03988209237974     -0.02030575238986
  H   1.31941774350843      1.91328393788251     -0.71414868703329
  F   -1.30488049670230     -0.16990567638057      0.03623754364816
  Br  3.10388685069822     -0.09812575265840      0.24590556066288
  C   0.62152138221618      1.46678499460981     -0.00456340832395
  H   0.84238506159921      1.85744575942037      0.98911412181550
  H   -0.41020855820547      1.68538199857946     -0.26787595547800
  C   0.71887362224057     -0.75900096258847     -1.35119682357816
  H   -0.30283417284042     -0.68161863277063     -1.71395076786890
  H   1.42660262267578     -0.30351000583056     -2.04501064391678
  H   0.98645027460501     -1.80802360843553     -1.22250937838441
  C   0.49745335244219     -0.78315450231373      1.19060022437059
  N   0.39980159803972     -1.39246545713453      2.19362396647620
