19
Coordinates from ORCA-job run
  C   0.62990800475705     -0.04487074145712     -0.04979207390375
  H   1.59635774318850      1.77909079548247     -0.35249767427247
  Cl  -1.84685105476074     -0.34220405970874     -0.09426751201942
  Br  3.13451025966819     -0.13964278256093      0.42620143438211
  C   0.57517046360510      1.48539413210166     -0.10338790027279
  C   0.81446511134415     -0.83072847435895     -1.33242168746890
  H   -0.11595269543682     -0.85252659410810     -1.89550630177647
  H   1.59749914728022     -0.36189314428740     -1.92848097335712
  H   1.12155713257299     -1.85063955427729     -1.10544459605477
  C   0.47063104806991     -0.73584909566230      1.20371744679157
  N   0.37243611091926     -1.28424621401566      2.24370964751565
  C   0.23553931852954      2.08792059026380      1.25233284633146
  H   -0.75959647750992      1.76605841054347      1.56650002108189
  H   0.96357555190395      1.77913963817945      2.00563689683954
  H   0.24981154078531      3.18051516566095      1.18511577237348
  C   -0.30739349930427      2.05984990313880     -1.21515838298577
  H   -0.18964826291978      1.51562049213764     -2.15446610628546
  H   -1.35985620542629      2.03550067373930     -0.94400671981434
  H   -0.00092323726637      3.09784085918897     -1.38983413710443
