18
Coordinates from ORCA-job run
  C   0.69804613893798     -0.00103793196344     -0.05139895300562
  H   1.59879075230560      1.91078244295172     -0.31968880458571
  F   -1.34579582638341     -0.06166899704305     -0.02666820497328
  Br  3.08132477053160     -0.13200392824134      0.36001181122877
  C   0.60306231714423      1.53437967970227     -0.08279647899867
  C   0.74663470224921     -0.75934528377242     -1.35650264649259
  H   -0.26856928511346     -0.80584098905142     -1.74177622625934
  H   1.39195985986506     -0.23493591533850     -2.05941475365542
  H   1.13655960509448     -1.76377084127871     -1.19198089621244
  C   0.43639345858777     -0.73076322856086      1.16801349844274
  N   0.27923971641175     -1.33657594726140      2.16574405867860
  C   0.17865152934675      2.07785817791514      1.27778257127522
  H   -0.80930479740011      1.68298844041107      1.51569902507649
  H   0.88553681176677      1.78778032790601      2.06000977757124
  H   0.13903606720812      3.17224387667853      1.23873871645272
  N   -0.26388589002261      1.92477074914315     -1.19694735700925
  H   -0.35271424051125      2.93506497055054     -1.18296763999014
  H   -1.16110569001852      1.49319439725269     -0.98687749754332
