16
Coordinates from ORCA-job run
  C   0.62124413262514     -0.03966091713908     -0.03614601032611
  H   1.68809860963225      1.78391576398839     -0.16745551284757
  F   -1.16576141671093     -0.02014179767709      0.04495149995961
  F   2.46252507689982     -0.09589338689400      0.12372185319328
  C   0.64595051350986      1.49146764531374     -0.05234183371348
  C   0.71282691098945     -0.78786076916896     -1.34632595211321
  H   -0.26431296248989     -0.83876245610359     -1.82062184934060
  H   1.42408678559309     -0.27510132204705     -1.98975681263264
  H   1.09205283402443     -1.79068502427946     -1.15122895246021
  C   0.62688775183760     -0.76477987153921      1.22084435185873
  N   0.60297346843315     -1.38429494636077      2.21885775410651
  C   0.16266643461197      2.04190119194149      1.23125472193405
  N   -0.21143885421620      2.59941885855737      2.19576987758455
  N   -0.12298838295530      1.99121432000090     -1.19064506345782
  H   -0.13491149156619      3.00412040261349     -1.15785771668776
  H   -1.06453941021823      1.64147230879383     -1.04823035505733
