15
Coordinates from ORCA-job run
  C   0.65392217682884     -0.14102714901139      0.13773342400511
  H   1.57289802487171      1.45311859237512      1.28938416519809
  F   -0.86613470011971     -0.28218487662954      0.69003124549579
  H   2.49977535541495      0.02652296897002     -0.19970319107870
  C   0.92497295706050      1.32964603855614      0.42738919026781
  H   1.31522066873438      1.84502651850130     -0.44325586968871
  C   0.33772693597922     -0.54743917839897     -1.29352597759304
  H   -0.38746868482642      0.17101457057728     -1.68100488333814
  H   1.22224530314325     -0.57420138060126     -1.92188876509957
  H   -0.14332296979527     -1.52707306444993     -1.27236399784262
  C   1.29286152222352     -1.10683291023033      0.99830346281869
  N   1.61842590950096     -1.95759203921493      1.75070346937475
  N   -0.35958290720046      2.07816470358832      0.76176846240578
  O   -1.05559274931741      2.44148683341905     -0.18667140897078
  O   -0.60272684249802      2.32108037254913      1.94140067404550
