17
Coordinates from ORCA-job run
  C   0.58623067330625     -0.03215049999902     -0.02399530693180
  H   1.73751750425082      1.77589789910285      0.07849569586312
  F   -1.17954910348079      0.11675289655428      0.05285713352841
  F   2.43630009077759     -0.15373125124914      0.06866336283039
  C   0.69355371581506      1.49416235107533     -0.02935813929358
  C   0.62974018084599     -0.79254660580221     -1.33461581865772
  H   -0.38218521798960     -0.99606032424622     -1.68111413395702
  H   1.16877185211048     -0.19591974226680     -2.06640310852813
  H   1.17618499551087     -1.72002727395391     -1.17654440618854
  C   0.57786723846082     -0.81302481331910      1.19841598052615
  N   0.52978931545473     -1.53601807071424      2.12349747780817
  N   0.04008688159841      2.06397608781223      1.24377194934734
  O   -0.84147170713973      2.91174178923724      1.11715949996329
  O   0.50868500365570      1.69596330935786      2.31568321495374
  N   0.11258861052746      2.02889581522848     -1.20942109462562
  H   0.13459619148513      3.03895277769966     -1.17458012241856
  H   -0.85306622518924      1.72068565548271     -1.21027218421962
