16
Coordinates from ORCA-job run
  C   0.65623093335660     -0.07224330548857      0.00045447799023
  H   1.82156316510152      1.69531909089692     -0.13114351103392
  Cl  -1.71593177437924      0.09403547283235      0.19471861397464
  Cl  3.03855156128878     -0.37043171533872      0.11759480997614
  C   0.76879635309324      1.45769243651904      0.02589011685628
  C   0.63288194666847     -0.79542586115392     -1.33094620912149
  H   -0.35573104624895     -0.74197946294109     -1.78117848321704
  H   1.36321791624028     -0.34122742020868     -1.99948834686460
  H   0.91893736623743     -1.83512931453737     -1.18120415518392
  C   0.61626366837592     -0.79194527743534      1.24404793768469
  N   0.56460125757492     -1.42606508675705      2.23574241865169
  N   0.39505779734359      2.00405829575612      1.31255908526490
  H   -0.60195562468665      1.87185460366784      1.44216249313777
  H   0.60991227781712      2.99312965128582      1.33339265810427
  C   0.05559417095981      2.04649546290256     -1.13131816204747
  N   -0.39640996874284      2.63502243000008     -2.04311374417216
