17
Coordinates from ORCA-job run
  C   0.60134083151372     -0.06959326351075     -0.01380750077195
  H   1.65446311713623      1.72044229463855      0.04179969872242
  Cl  -1.59812265961458     -0.31525487493657      0.31972276734960
  F   2.56304002907291      0.01918241499193     -0.14780638227504
  C   0.59381718470536      1.46664739367052     -0.00504229328934
  C   0.58203198577258     -0.85582556084249     -1.31194164432599
  H   -0.22731433883925     -0.51824937334606     -1.95670225046151
  H   1.54819781001748     -0.74399504056315     -1.79545903820281
  H   0.40252196995617     -1.90616078306304     -1.08229806169800
  C   0.92418640069356     -0.74084303767235      1.22291001675950
  N   1.14552808189002     -1.30040227844014      2.23397880883832
  C   -0.02749081945718      2.04175809123479      1.18888668748126
  N   -0.45083285344220      2.62581033161337      2.11623151879947
  C   -0.00413441701156      2.07858861457552     -1.27018066227510
  H   0.57515458413098      1.76072094392797     -2.13904070660360
  H   -1.04428643112306      1.77626984476532     -1.39105530956105
  H   0.04463952459881      3.16844428295660     -1.20643564848614
