16
Coordinates from ORCA-job run
  C   0.70054656402894     -0.03472860059832     -0.04144477573157
  H   1.32284437147110      1.93276546651077      0.52609750123040
  F   -1.22354826198839     -0.28963472222821      0.57048212383621
  Cl  2.86073772862815      0.04988062081904     -0.52509133747758
  C   0.47554212558904      1.47101358235807      0.01594168153247
  H   -0.42049942586738      1.60413259221724      0.61737618011639
  C   0.34392660597249     -0.87261289435694     -1.25476301251612
  H   -0.73866917463985     -0.92201186434018     -1.31798568931324
  H   0.77886611094801     -0.44376415323400     -2.15648651755476
  H   0.75390148676508     -1.87541694490283     -1.13143870298176
  C   0.90589252790940     -0.69779828122862      1.22661411824983
  N   1.15769117640397     -1.22054385922208      2.25043639616043
  C   0.28913705010688      2.10274110428840     -1.35426074535159
  H   1.16990991823521      1.95145192814421     -1.98157296425453
  H   -0.58425863135911      1.68073918687908     -1.85634214563548
  H   0.12674982779644      3.18004683889439     -1.24873211030911
