16
Coordinates from ORCA-job run
  C   0.57943628246364     -0.04209838947364     -0.03128308920264
  H   1.19782941704676      1.89262377471117     -0.60300570506926
  F   -1.21480206886871     -0.40949183164267     -0.08827893935005
  F   2.35940779838815      0.19459086534017      0.30098285444544
  C   0.34053404783037      1.45355004644894     -0.08935301448211
  H   -0.56282659216830      1.61303408483038     -0.67945136063221
  C   0.82878988076266     -0.79213561437171     -1.31885555913108
  H   0.00003990310732     -0.60446376146474     -2.00025551347829
  H   1.77694446452231     -0.46772977440233     -1.74396798050535
  H   0.87385532108474     -1.86418368583391     -1.12202614980817
  C   0.55730373678808     -0.76067913093733      1.23229921324514
  N   0.54336683812163     -1.34521635580451      2.25173824500490
  C   0.18810729488767      2.07454331728040      1.28989174748118
  H   -0.66727670957390      1.63073608857029      1.80310135805514
  H   1.09013860718840      1.88582693653782      1.87350274622379
  H   0.03059177841921      3.15637343021166      1.22000114720357
