15
Coordinates from ORCA-job run
  C   0.49535482297203     -0.08632876625427     -0.01365800527856
  H   1.62909815557114      1.74839399234470     -0.10917773310965
  F   -1.13640627616303     -0.09546362479596      0.05631306597241
  H   2.36484323016082     -0.12115871190841      0.15974608706668
  C   0.58098395723116      1.45843066062367     -0.02403420201904
  C   0.70194365560425     -0.80492981726514     -1.33974980736853
  H   -0.26742650657397     -0.87286205650665     -1.83974300905498
  H   1.41233010374673     -0.28334526435519     -1.97742387952237
  H   1.09500121738597     -1.80328400203655     -1.15103145928044
  C   0.80659579586143     -0.75873187622236      1.21605145165515
  N   0.81021908198647     -1.35389226857211      2.23875340924254
  C   0.03823322777043      2.03468974254337      1.20979669399904
  N   -0.33531991981559      2.54890462951161      2.19684194994729
  C   -0.15150426370769      1.99785991879081     -1.17683476527111
  N   -0.65833628203014      2.46197744410247     -2.12892979697846
