17
Coordinates from ORCA-job run
  C   0.62828014079242     -0.05913930103873     -0.00329099699313
  H   1.82590298258677      1.68142037323447     -0.17458611117874
  F   -1.14776265494707      0.10850850761812      0.33305346978946
  F   2.40901521355714     -0.29157661646703     -0.16194829686510
  C   0.75904599876217      1.46853777362034     -0.09236460678707
  C   0.39180507331315     -0.89913259775042     -1.24314216047617
  H   -0.61251290473232     -0.73537698025736     -1.62558356721393
  H   1.14914874541005     -0.66332412683654     -1.98889700001559
  H   0.50725077218822     -1.95007152090916     -0.97598293303029
  C   0.73227164057891     -0.70522962044955      1.29362743787390
  N   0.82124300976080     -1.25647009675500      2.32737583403987
  C   0.28056623754359      2.12741946827260      1.12595117085123
  N   -0.02878693671518      2.75690856054223      2.06794861774440
  C   0.02231225466234      2.05018219010118     -1.30108424300662
  H   0.15425457082120      3.13522907192893     -1.33244486473206
  H   0.42573059255556      1.63034786774449     -2.22475041111108
  H   -1.03502473613775      1.80930704740141     -1.22012133888913
