16
Coordinates from ORCA-job run
  C   0.57309100676259     -0.04647566007746     -0.01641547494150
  H   1.40755113964728      1.85431412353065      0.47810587738536
  Cl  -1.74088764925147     -0.31776012601501      0.59748577532218
  Cl  2.95163928190451      0.03294920207883     -0.47675922568952
  C   0.48636067786788      1.47799336703938      0.03465106141442
  H   -0.33515658687898      1.75136693730002      0.69383714687472
  C   0.40502660486940     -0.87019849772426     -1.28649553428349
  H   -0.64519513491960     -1.02013823740241     -1.52041213884335
  H   0.90407134203945     -0.37394175224043     -2.11459970957342
  H   0.88679275794564     -1.83702607008583     -1.14749033826090
  C   0.90320870713345     -0.71505591284942      1.21569794158150
  N   1.17661260579508     -1.24372815017198      2.23266930704027
  C   0.27736105291834      2.10438252114999     -1.33403742217565
  H   1.13128990789126      1.91122135179067     -1.98518311123019
  H   -0.63151919308989      1.72044070922581     -1.80275271035402
  H   0.16852347936506      3.18791619445144     -1.22947144426636
