16
Coordinates from ORCA-job run
  C   0.55035750134935      0.01641834022612     -0.01427058673798
  H   1.64810308654260      1.84433051116984     -0.35452694379298
  F   -1.09685664850072     -0.00909765121061      0.14641104573519
  H   2.42902039684430     -0.03126707363678      0.15125651881946
  C   0.62629562516809      1.55618821692816     -0.11492609274050
  C   0.70531914508363     -0.80701140656224     -1.28148606422270
  H   -0.28626324831319     -0.93167901397047     -1.72281951455936
  H   1.36398525296914     -0.31642081838846     -1.99676194079675
  H   1.13366447408059     -1.78081422576583     -1.04646284119016
  C   0.91947928078299     -0.54925471395252      1.25343052946537
  N   0.93437531334034     -1.01538735678444      2.34317972889970
  N   0.22406101939123      2.23574350835849      1.10977217312585
  H   0.92087205250172      2.00383454469032      1.81176151776368
  H   -0.63869175032519      1.78441771446920      1.39896198036973
  C   -0.22711021856752      2.01070550180317     -1.22733946748258
  N   -0.83503128234735      2.41245392262605     -2.14801004265597
