16
Coordinates from ORCA-job run
  C   0.54426215756433     -0.08522126203170     -0.00493169848439
  H   1.76951131690031      1.60645200420237      0.22887935832254
  Cl  -1.68560969482856      0.03818998892669      0.00427983382675
  F   2.46779836324620     -0.16462643278637      0.15600560866803
  C   0.70539071118855      1.43721427023713      0.04703353210940
  C   0.59646358271685     -0.80417571947269     -1.34132666421068
  H   0.14793989710820     -1.79012097774906     -1.22231143526232
  H   0.01852766145637     -0.26636875162349     -2.09077499820522
  H   1.63709291917323     -0.89656317010643     -1.63884790010867
  C   0.57935222029533     -0.87873985495576      1.19888322780217
  N   0.57842101956255     -1.61492940798336      2.11668774680251
  N   0.01015387213631      2.10610525559081      1.20891654595298
  O   -0.61934822711212      3.13504403969054      0.99132899397796
  O   0.21978937104450      1.60612247781182      2.30552454713278
  C   0.31303130174713      2.08122116176847     -1.19927745055029
  N   0.10311352780083      2.61187637848103     -2.22569924777354
