16
Coordinates from ORCA-job run
  C   0.69210388520549     -0.03445963304373     -0.02357040617765
  H   1.29571402266973      1.94788216998823     -0.55201446052450
  F   -1.36997985920815     -0.22588592913226     -0.02862615673362
  Br  3.01772965724258      0.03974884691313      0.37379651128467
  C   0.44347126579087      1.46371415553291     -0.06921491625799
  H   -0.44136969687966      1.57904093557096     -0.69452896533583
  C   0.76134706379567     -0.78119096837992     -1.33636845979405
  H   -0.26025742206856     -0.84939355401257     -1.70334926203116
  H   1.40050708457410     -0.23921496731982     -2.03538942027946
  H   1.17690584486227     -1.77827039896280     -1.18954770540708
  C   0.41775769731907     -0.78603359387248      1.18034207709066
  N   0.30121172045411     -1.42096595056351      2.16552235300477
  C   0.17634758343665      2.06451085809406      1.29975203267064
  H   -0.71516270638715      1.59430770518939      1.71578865696857
  H   1.02121173036903      1.89871131394287      1.97238983534837
  H   0.00390212882395      3.14277901005554      1.22005828617364
