16
Coordinates from ORCA-job run
  C   0.48466425977159     -0.05822695564915     -0.03181494041816
  H   1.66268280419399      1.73291484116485     -0.18032001805051
  F   -1.16433434069321     -0.05060387290253      0.00568939787333
  H   2.36736903090951     -0.18568319721876      0.24606326770029
  C   0.61457046010568      1.47569904467797     -0.05393337944833
  C   0.72001654884951     -0.78243676635488     -1.34968856193021
  H   -0.23131886221152     -0.82957295772016     -1.88393402091518
  H   1.45133374708786     -0.26355924404129     -1.96370876345513
  H   1.08672089525844     -1.78914754286121     -1.15107714156363
  C   0.76767034081475     -0.74827316915221      1.19550605888859
  N   0.69347712427179     -1.35643614506366      2.21029439914370
  C   0.16492756149572      2.04798849531989      1.23474195946921
  N   -0.19346475831324      2.62043822410743      2.19658936722085
  N   -0.14344360032271      2.00723356897949     -1.18727151781488
  H   -0.10102313158357      3.01958207704546     -1.16324533033509
  H   -1.10448807963462      1.71641359966878     -1.04910077636485
