15
Coordinates from ORCA-job run
  C   0.49556395559546     -0.10464727153027     -0.01643114255591
  H   1.57242716051243      1.73204545772921     -0.14305222830937
  Cl  -1.54856176496699     -0.34602943375398      0.13998625817655
  H   2.39640152848368     -0.00181153419428      0.27265661101511
  C   0.52114610727800      1.44423802546994     -0.03969569847825
  C   0.72835813032515     -0.79998314421606     -1.35275193561344
  H   -0.00415117371523     -0.43901305238075     -2.07616037234219
  H   1.73535799793344     -0.63446518873088     -1.72684271763410
  H   0.56338283762376     -1.86947462210818     -1.20786395628508
  C   1.02489789850383     -0.71015892644293      1.17750319142476
  N   1.05838829763856     -1.31420324322204      2.19881890154065
  C   0.03075398948866      2.03596200159327      1.20763522145087
  N   -0.29080237048516      2.57928166089433      2.19788291509334
  C   -0.20414392174271      1.99819535327247     -1.18599372741239
  N   -0.69340867247292      2.50032391762015     -2.12877132007053
