15
Coordinates from ORCA-job run
  C   0.65186803974270     -0.03567387172490     -0.03933745874641
  H   1.65083734060462      1.84449571644089      0.01335677895365
  Cl  -1.74400808325272     -0.07741809383347      0.24455018836537
  Cl  3.10369747952526     -0.19762449360701     -0.00363640687517
  C   0.62307511723090      1.48886577599107     -0.01096630100594
  H   0.12733897308419      1.78773971919010      0.91903580005372
  C   0.65662683661102     -0.79058054574206     -1.34929580247963
  H   -0.33980789431782     -0.83313401606674     -1.78130874293915
  H   1.31888435256296     -0.27516989994668     -2.03989961397707
  H   1.03462122587702     -1.79858216919276     -1.18671027430910
  C   0.71580469957021     -0.73384055433568      1.21692168464273
  N   0.75078827185772     -1.29310372264044      2.25364602251963
  N   -0.00789624821709      2.00945249431121     -1.21733000817992
  H   0.17677869346124      3.00264335817903     -1.27647065706644
  H   -1.00721880434022      1.86698030297743     -1.13269520895626
