16
Coordinates from ORCA-job run
  C   0.33891499575125     -0.03152644820121     -0.08977280967874
  H   1.79905107686882      1.56622569865637     -0.19603789296578
  Br  -1.92686033802008      0.15640105944940     -0.53413131824367
  H   1.77526751003227     -0.50787744257141      0.84135392542924
  C   0.72795745820713      1.44553003088481      0.00075197163453
  H   0.19805517092113      1.95159994040068     -0.81122435179002
  C   0.76485863215767     -0.72939953519102     -1.37619458767385
  H   0.28425173055259     -1.70758004826385     -1.44050301719736
  H   0.43548710359759     -0.12912690868502     -2.22605492206872
  H   1.84964962745848     -0.85170398171656     -1.42965970798825
  C   0.46974802646576     -0.81736009052849      1.13551528078157
  N   0.05407375417674     -1.46558696543525      2.05653544462842
  C   0.35980774434573      2.07044506111170      1.33886913255112
  H   0.90518605108147      1.58713179531134      2.15260793206000
  H   0.59278185651523      3.14071657551940      1.34737453517524
  H   -0.70679040011178      1.93739125925911      1.52561038534627
