13
Coordinates from ORCA-job run
  C   0.67489764507939     -0.04124846031237     -0.01978193909765
  H   1.56010170896887      1.88379941687230     -0.38497057109991
  Cl  -1.76139059887099     -0.14410701862510      0.19162589115749
  Br  3.23164493454720     -0.14536405529233      0.14575441729450
  C   0.61701842925433      1.47366543462064     -0.02972594410468
  H   0.41140618250211      1.84978243311861      0.97160573731317
  H   -0.19216539596080      1.79051117764054     -0.68604956900640
  C   0.68732654549666     -0.78009796830468     -1.34301027104654
  H   -0.27918691005049     -0.67045130103845     -1.83114224107392
  H   1.46901294347725     -0.36532426331613     -1.97767611485799
  H   0.89594414199304     -1.83756744567131     -1.18575809141197
  C   0.67143963574596     -0.76622552454813      1.22326115108914
  N   0.67292073781747     -1.36016242514359      2.24178754484477
