16
Coordinates from ORCA-job run
  C   0.64083202677370     -0.05418138249252     -0.02988059626483
  H   1.64047207080161      1.81640317861782     -0.10973040359047
  Cl  -1.75596287316532     -0.12325685732221      0.14890478870443
  Cl  3.03001721374509     -0.14721328550178      0.11933168934197
  C   0.60563834786784      1.48291415202696     -0.03055923082998
  C   0.69995354118630     -0.78592467344867     -1.35494015654936
  H   -0.28203378901212     -0.83455763526157     -1.81727441403477
  H   1.37991744066054     -0.25679960206537     -2.01827928068171
  H   1.08621397474246     -1.79070225335429     -1.18994652518349
  C   0.64026576294043     -0.76985334658659      1.21624101552594
  N   0.63802697839830     -1.37530089949050      2.22740583450983
  C   0.10586997419365      2.02480553179171      1.24889855691378
  N   -0.23669865767354      2.59475738670781      2.21804722689620
  N   -0.08758213932546      1.99098883824509     -1.20382506107694
  H   0.04658156525158      2.99391306654024     -1.24983997056363
  H   -1.07615143738507      1.79033778159388     -1.09976347311695
