15
Coordinates from ORCA-job run
  C   0.69714145604115     -0.06621403245581     -0.08165163726691
  H   1.74147767229617      1.81062072391939     -0.33245221593874
  Cl  -1.68386201420025      0.06108402553359      0.19920700901785
  Cl  3.05140634205065     -0.23897161844448      0.00689222439212
  C   0.73851459642594      1.45616887583179     -0.10045854380982
  H   0.39669262284211      1.85414328563545      0.84982165418715
  C   0.65205215704460     -0.93381137277447     -1.32491318858078
  H   -0.34972231107385     -0.96525498775497     -1.74254590789552
  H   1.33962007952885     -0.54136878411314     -2.06884101373353
  H   0.97473915009687     -1.93822267171756     -1.05225889759063
  C   0.67134197470940     -0.68188517316008      1.22014647893903
  N   0.68918660285671     -1.19554035092775      2.28009085149607
  N   -0.11680515298502      2.11063437834384     -1.13859819926394
  O   -0.68172791799018      3.14768550705888     -0.80384806863185
  O   -0.09877525764315      1.65138219502534     -2.27556054532050
