15
Coordinates from ORCA-job run
  C   0.50701478842731     -0.08513106632074      0.03608164173354
  H   1.62333191752048      1.78727528581001     -0.05736597762925
  Br  -1.78339405123292     -0.29139513033544      0.14115293363776
  H   2.20023635646047     -0.23615410567556      0.51123340730706
  C   0.59191455190940      1.43109153254328     -0.01400543553048
  H   0.03508243449955      1.79328335259444     -0.87449171312390
  C   0.71977340224493     -0.73743734840384     -1.33129145484500
  H   0.06816189683211     -0.25832769477879     -2.06345043433967
  H   1.75494873330392     -0.66531351135747     -1.67163882329727
  H   0.43501647825241     -1.78896942623730     -1.26047633734798
  C   1.11950388740276     -0.81529105897221      1.14723950685402
  N   1.12387373154645     -1.59469420029030      2.05499398108913
  N   0.00070202359925      2.13310742378729      1.16572166021419
  O   -0.68577357592522      3.12869945802704      0.93422153436831
  O   0.31282742515907      1.72896648960957      2.28037551090957
