15
Coordinates from ORCA-job run
  C   0.65711725987045     -0.01707476541955     -0.06221561243375
  H   1.74765743866669      1.77651074741063     -0.30711756181654
  F   -1.14269592189825     -0.01914842938809      0.06045263247567
  F   2.51384068297858     -0.15752737846573      0.10543170736526
  C   0.71626964940313      1.50272919196646     -0.09951978908297
  H   0.44954165293602      1.85715488092123      0.90635153535534
  C   0.69988202861152     -0.80225773112316     -1.35109752331736
  H   -0.23341068073784     -0.67350043031809     -1.89373489843608
  H   1.54078852959969     -0.44674642946028     -1.94216753082055
  H   0.85692833579034     -1.85836289270401     -1.12837439152038
  C   0.66788734754224     -0.69499081001413      1.22248105884076
  N   0.64017586771016     -1.23953869141000      2.26339373799829
  N   -0.15536379635212      2.02879553064725     -1.15491214653992
  H   -0.17122684012374      3.03961814388712     -1.08005928457057
  H   -1.07600155399689      1.66938906347035     -0.92905193349717
