15
Coordinates from ORCA-job run
  C   0.61317175730549     -0.08290848097106      0.02556710455554
  H   1.58235322937697      1.82615215844732     -0.19450265556046
  Br  -1.92191646724902     -0.10367408047495      0.10288496010246
  Cl  3.01023359815473     -0.14230087445029      0.24260906735482
  C   0.58198157447542      1.43283032217824     -0.01582599048759
  H   -0.09676870906624      1.76238010128221     -0.79725570265099
  C   0.72304818963049     -0.76536507881991     -1.33026297129468
  H   -0.24290529874098     -0.79633336876787     -1.82890366324844
  H   1.44120881562841     -0.22326140384096     -1.94531147377151
  H   1.10295506098354     -1.77649910417480     -1.19470719334233
  C   0.58348432334393     -0.88387253312686      1.21700116610568
  N   0.56587297453650     -1.63789895053521      2.12337312084276
  N   0.12041953076816      2.11382613261969      1.22494791330252
  O   -0.42868544583317      3.20220811063805      1.06300533729121
  O   0.38876686668577      1.60442704999643      2.30568098080106
