14
Coordinates from ORCA-job run
  C   0.58955452344169     -0.07398104382178     -0.01055790531899
  H   1.42363903796827      1.85318868495709     -0.45203391449105
  Cl  -1.78626493572195     -0.21926735599552      0.03720876193186
  Cl  2.95727285098796      0.01131572472981      0.27293798022386
  C   0.49600536670963      1.44999605109591     -0.04531909021419
  H   -0.33027797890019      1.73565012482171     -0.69683794106508
  C   0.75393184014322     -0.79148381060958     -1.33643815856788
  H   -0.20219412397779     -0.88606927004926     -1.84606039994695
  H   1.45286147286077     -0.23175111921333     -1.95764732540198
  H   1.18130057126534     -1.77855874014183     -1.16727348435311
  C   0.56206013255463     -0.81078587099671      1.22310283442587
  N   0.54376180452569     -1.44631185727199      2.21507161681956
  C   0.27366282422170      2.05830650687303      1.26068862812285
  N   0.10762661392101      2.60824197562245      2.28400839783522
