15
Coordinates from ORCA-job run
  C   0.75754906823872     -0.06777800076239      0.02287030805415
  H   1.62820847471463      1.92689657086508     -0.09017167914358
  F   -1.22360948927554      0.08101291364842      0.11856829574993
  Cl  2.94052780175473     -0.21232434544374      0.18465153238905
  C   0.65410345061319      1.44476901304573     -0.00218353481117
  H   -0.00326387645380      1.72420976372292     -0.81765381339786
  C   0.67283487132449     -0.75489371898500     -1.32612263298775
  H   -0.37403101845742     -0.77074791141677     -1.61706269449328
  H   1.27670864526801     -0.21113447766298     -2.05464076123847
  H   1.06948217378800     -1.76659663120928     -1.25255047411179
  C   0.51677567621177     -0.87497611210158      1.19546390630173
  N   0.40184988219121     -1.63338407453037      2.08765516295298
  N   0.03461314721865      2.03806534822565      1.21142371720674
  O   -0.71246019773448      2.99784634550672      1.03337520558049
  O   0.38393139059785      1.60874531709758      2.30467746194879
