14
Coordinates from ORCA-job run
  C   0.66348615272681     -0.05972005285302     -0.03521750729813
  H   1.61462420074576      1.87243848013795      0.13120221207113
  Br  -1.85527449983221     -0.16163045060294      0.29530849126565
  Cl  3.06841746606462     -0.11514860157339     -0.08238860592607
  C   0.60832239417930      1.47187423726817      0.00621920889955
  H   -0.00742185750005      1.79628989733617      0.84476327524212
  C   0.64067658868666     -0.82015473202665     -1.35097706553482
  H   -0.36229872947609     -0.85213077282654     -1.76798246107467
  H   1.31255586918770     -0.33385321344175     -2.05596824555804
  H   1.00541288337629     -1.83263183682609     -1.18359174065706
  C   0.76215704546151     -0.74050223468848      1.22654507408700
  N   0.85941186205740     -1.29189061272832      2.26410671985476
  C   0.04946608873775      2.02804498925169     -1.22306799655567
  N   -0.33789546441546      2.51799490357320     -2.21696135881578
