19
Coordinates from ORCA-job run
  C   0.71994155086947     -0.02567547640993     -0.03932407442067
  H   1.63740037308285      1.85972677459620     -0.34658350493269
  F   -1.31094605756853     -0.12878474212727     -0.04908206445942
  Cl  2.90069163027289     -0.15994452812731      0.36340227703701
  C   0.63192184485903      1.50715755258442     -0.10585080214990
  C   0.77282448786034     -0.82309928810309     -1.32284492095153
  H   -0.22797868532229     -0.83118019976850     -1.74643150659910
  H   1.49086315539509     -0.37257935843480     -2.00973908897529
  H   1.09812384748625     -1.84197085424043     -1.11381944787374
  C   0.40688121753039     -0.72648105006706      1.18808708518219
  N   0.25395648540089     -1.31445444103425      2.19644630530735
  C   0.23235509983364      2.07966790077815      1.24699541299090
  H   -0.75701067084145      1.70111862318060      1.50688066587697
  H   0.94357602356338      1.78548742247385      2.02254621506723
  H   0.20448229484316      3.17362755858336      1.20153705920817
  C   -0.29140502041446      2.01677706780013     -1.21308009459001
  H   -0.01551438220890      1.60329447423526     -2.18704544228059
  H   -1.31738953543580      1.73448651963690     -0.99751829081566
  H   -0.19153365920594      3.10715604444378     -1.27662578262121
