15
Coordinates from ORCA-job run
  C   0.52079592625581     -0.04858636055534     -0.04781395873173
  H   1.78570418572921      1.60257282010349     -0.01164866821214
  Cl  -1.70063752735521      0.01011190945769      0.00858543497436
  F   2.53633108551510     -0.25990347360064      0.21848121243872
  C   0.70844279418588      1.46109625816461     -0.03158758101194
  H   0.27261894060055      1.83470882045636      0.90413832922451
  C   0.63121347046026     -0.81795124945148     -1.34143206322511
  H   0.27121386372638     -1.83679118216673     -1.19575853680201
  H   0.03620266798452     -0.33141283538152     -2.11069844219650
  H   1.68301508398012     -0.82852895062358     -1.61245021312795
  C   0.61616478847024     -0.74327181213761      1.21521526255449
  N   0.58018832786020     -1.29867964126186      2.25237197035776
  N   0.16260763525347      2.09280672406258     -1.23150140344464
  H   0.45568688342342      3.06209681228277     -1.23796762724021
  H   -0.84815812608994      2.06678216065123     -1.16807371555759
