17
Coordinates from ORCA-job run
  C   0.50914880156308     -0.00586642463722     -0.06124724162739
  H   1.65632049858931      1.66914730772114     -0.54749530209958
  F   -1.28447206625126     -0.09263580163523     -0.49553257840834
  F   2.18673671688178     -0.08091750691124      0.67225497395555
  C   0.64933945182159      1.52105672146645     -0.14122201021677
  C   0.86156382128762     -0.80769414150472     -1.28906801921845
  H   0.46481780396228     -1.81837354421201     -1.19809300728703
  H   0.39514383734529     -0.32807402044743     -2.14827089487187
  H   1.94413950978428     -0.84056876539487     -1.39848143684904
  C   0.06895128305821     -0.66434381795812      1.15712943376820
  N   -0.25179845966414     -1.22307835619285      2.13972603698561
  N   0.54851493745841      2.05829756883215      1.22306727443710
  H   0.87253286571948      3.02125456185796      1.19523017083284
  H   1.23913816489742      1.53783247915338      1.75852429345577
  N   -0.28975062313508      2.12824736220786     -1.06744573819750
  H   -0.31894337809450      3.12445599486719     -0.87822957638341
  H   -1.19005316522377      1.71049038278756     -0.85480637827565
