15
Coordinates from ORCA-job run
  C   0.58862572499063     -0.04902031611224      0.01681001399630
  H   1.13345808996267      1.84678957490370     -0.71923658372165
  Cl  -1.85352908083715     -0.51914317566126     -0.15683616597774
  Br  3.07585845062623      0.19938270407116      0.47936070131967
  C   0.40279797891598      1.45780344110056      0.00353064342319
  H   -0.59561080662679      1.66074249850663     -0.38116071090374
  C   0.76870901420846     -0.76186652001746     -1.30916604258976
  H   0.03948820816089     -0.37206486429569     -2.01799286123850
  H   1.77457516070267     -0.60629011675255     -1.69399546259299
  H   0.58063016080655     -1.82713085296751     -1.18798060238289
  C   0.48213192893509     -0.78814064109394      1.24576514146752
  N   0.43124189986505     -1.43466805830356      2.23044259455897
  N   0.51176041647050      2.02662815923281      1.33370638208649
  H   0.18216522078455      2.98281558147381      1.31913813165181
  H   1.48660763303466      2.01555258591550      1.60971482090330
