17
Coordinates from ORCA-job run
  C   0.45424549639459     -0.04177338212967     -0.01498519818765
  H   1.71568666088403      1.72253770453636      0.07473568898776
  F   -1.17106048570381      0.06159177846643      0.05594894992595
  H   2.35881690915594     -0.28039815821259      0.17633342218369
  C   0.66345102048137      1.47892203589858     -0.03039893635454
  C   0.62083309061164     -0.77014375363270     -1.34600841316159
  H   -0.35824548846055     -0.81486025759163     -1.83089694681431
  H   1.32444906559455     -0.26118556989309     -1.99727068896527
  H   0.98691063745872     -1.77869768574257     -1.15926266483042
  C   0.76848479022543     -0.79370441423919      1.17059773514542
  N   0.68149558565119     -1.48220349055738      2.13263279979750
  N   0.02351148183540      2.07510483445411      1.24265191419324
  O   -0.92867531462118      2.84423862945098      1.11491666595489
  O   0.55663820191097      1.78723071619524      2.30934569336764
  N   0.09804814291247      2.03615761310579     -1.21044727847572
  H   0.16300398033691      3.04478703168920     -1.17734407767041
  H   -0.88195377466774      1.77994636820211     -1.21830866509615
