17
Coordinates from ORCA-job run
  C   0.67649534298291      0.04636642108989     -0.04446976891898
  H   1.63145793323001      1.90513302858065     -0.34197347715475
  Cl  -1.71124360713648     -0.15599343042763      0.25028154093242
  Cl  3.12273518828491      0.01132834512896      0.12036692925023
  C   0.61548632864790      1.58890042904905     -0.11674112488213
  C   0.74474529047077     -0.76786217962399     -1.31404178591635
  H   -0.23895139732276     -0.82692207445656     -1.77325855020100
  H   1.42716256382765     -0.27558014569665     -2.00339157094682
  H   1.11987588640272     -1.76730833910307     -1.09821318923521
  C   0.74956447797197     -0.58308202237885      1.24834573216217
  N   0.79387799139530     -1.08591559406395      2.31344621686283
  N   0.25022519622930      2.23364085113061      1.13461579039482
  H   0.97842489063951      2.05332015856204      1.81863955914474
  H   -0.60408586982831      1.80265911637315      1.47544647981447
  N   -0.19521590355547      1.99236108712497     -1.25058647636356
  H   -0.14213829163544      3.00367748562961     -1.29138880156584
  H   -1.15708602060454      1.73450686308182     -1.06103750337702
