15
Coordinates from ORCA-job run
  C   0.51847765315704     -0.07931223553404      0.01061947611651
  H   1.82403568198790      1.56377434653489      0.11522792783810
  Br  -1.83865067426599      0.07486690032298     -0.14440185570936
  F   2.50186863893271     -0.27423438027384      0.34415364908010
  C   0.74728172019489      1.41556782559237      0.04867273801163
  H   0.31927203452155      1.88270007939992     -0.83453837200663
  C   0.70225258568843     -0.74983227221325     -1.33968472866453
  H   0.28275467875929     -1.75508584767575     -1.30765575657979
  H   0.17740944717334     -0.18761152441012     -2.11271923645992
  H   1.76982695006989     -0.79641417287739     -1.53630801721603
  C   0.49621867976714     -0.91024174909481      1.18846140800499
  N   0.42143689846450     -1.68415167104958      2.07250948828722
  N   0.15821884441718      2.14138978629617      1.20521620453003
  O   -0.25643337027837      3.27879812344349      0.98052929247281
  O   0.19925023141050      1.60949679153895      2.30821778229489
