13
Coordinates from ORCA-job run
  C   0.55097165900035     -0.04919998626921     -0.00650815780281
  H   1.59658325124605      1.86027164705053     -0.18127783302285
  F   -1.12582128982177     -0.12656335550552      0.12787386675942
  H   2.42413466384001     -0.17680943356002      0.11060289445252
  C   0.59640778777602      1.47099254399705     -0.01897087811609
  H   0.19959840353876      1.84178062213709      0.92862006900161
  H   -0.07697470131135      1.80862824945223     -0.81147162347141
  C   0.67018824332163     -0.78268752763454     -1.33446777225870
  H   -0.28710313452927     -0.68199218367064     -1.85420379042528
  H   1.47429522831445     -0.38448094765546     -1.94806195162233
  H   0.87063150048559     -1.84080127256644     -1.15784020376357
  C   0.87357160732125     -0.74124349436854      1.21194320479296
  N   0.89248678081827     -1.31068486140655      2.24968217547653
