18
Coordinates from ORCA-job run
  C   0.54565186188000     -0.04344962665828     -0.05077667468589
  H   1.52218024900649      1.73892961110573     -0.36777088233896
  Cl  -1.66260110473074     -0.42667686249003     -0.02807659795532
  F   2.53294642521407      0.14134964185714      0.31126252811060
  C   0.49456597868764      1.48597109997052     -0.10993666950274
  C   0.81325435694918     -0.80941339421762     -1.32215367332480
  H   0.21813586181815     -0.37868539123153     -2.12517647186795
  H   1.87691912687631     -0.71413143705779     -1.52717496971559
  H   0.54582735752072     -1.85826861147864     -1.19512906619266
  C   0.70762936853942     -0.70895862587258      1.22208568507103
  N   0.74335257027058     -1.27525606951648      2.25348375043819
  C   0.18037818960899      2.09050186151436      1.25331338502088
  H   -0.79967574098342      1.76083170760935      1.60655150067696
  H   0.94232387334701      1.79258591747759      1.97627944777144
  H   0.17929020043278      3.18350046265736      1.17756548562052
  N   -0.34885241862309      1.95717267240284     -1.21076822607426
  H   -0.19633495088821      2.95518201590473     -1.30401132100539
  H   -1.32113120492591      1.80193502802328     -0.97058723004609
