19
Coordinates from ORCA-job run
  C   0.61657913913009     -0.04735077577695     -0.05039777323928
  H   1.59734535049781      1.76351550793389     -0.35800004741718
  Cl  -1.82145755555793     -0.34422308544563     -0.10289826413780
  Cl  2.97517271521296     -0.12379228220138      0.40465868686012
  C   0.57358663496011      1.48186171550987     -0.10634557212011
  C   0.82613001065573     -0.83443542981783     -1.32670747772706
  H   -0.08820172963524     -0.86890866232049     -1.91433543274398
  H   1.61958253844425     -0.36028745174596     -1.90441063978226
  H   1.14303945559305     -1.84884637496919     -1.08948200311377
  C   0.47513162868034     -0.73472871681668      1.20809550740385
  N   0.38692552615412     -1.28054291144670      2.24926142839017
  C   0.24602091414326      2.08756837083944      1.25056571663796
  H   -0.75052939903243      1.77513437878544      1.57012418899585
  H   0.97476462131427      1.77214042620410      1.99998083928959
  H   0.26952815373648      3.17998513963200      1.18318414584711
  C   -0.30842902326150      2.06327067054090     -1.21388227961099
  H   -0.19965970024755      1.51707914037377     -2.15318081492284
  H   -1.36002068072940      2.04820506439378     -0.93839355090905
  H   0.00573139994156      3.09868527632762     -1.38988665770030
