17
Coordinates from ORCA-job run
  C   0.61487039434861     -0.04337768395293     -0.00876097885371
  H   1.66912321448744      1.82216801131283      0.04784090212651
  Cl  -1.76341501283818     -0.02109684186771      0.15401726032113
  Cl  3.00873152482162     -0.18576859649067      0.11897745102144
  C   0.63539559896539      1.49047242188059     -0.03053445483333
  C   0.65631294066661     -0.77346106358009     -1.34205880270999
  H   -0.32748857673450     -0.78361836456072     -1.80371396043130
  H   1.36001391979609     -0.27501962539572     -2.00279569950550
  H   0.99651546372665     -1.79381625674455     -1.17175937935394
  C   0.60541438888542     -0.82354136138508      1.19844575509340
  N   0.58764858738632     -1.56385513213085      2.11545435414253
  N   0.02593417108259      2.08384431897903      1.25431881501642
  O   -0.70471758422626      3.06216596280049      1.12476104902529
  O   0.41084016783096      1.61655876580439      2.31838985881049
  N   0.05743839121734      2.00414012734421     -1.21631878243552
  H   0.17528291089295      3.00715294062721     -1.24482292636190
  H   -0.93226050030905      1.78460237735956     -1.21920046107202
