17
Coordinates from ORCA-job run
  C   0.47852975090027     -0.05510267154134     -0.04845667206151
  H   1.63699242957448      1.57117758849901     -0.67324308635564
  Cl  -1.77639576559650     -0.12110752359685     -0.48545529068604
  F   2.26892054923183     -0.04256612893419      0.60690038606869
  C   0.69140965489279      1.45778758818683     -0.13551980816632
  C   0.80872796465558     -0.93322392148053     -1.23145447803540
  H   0.31848174217721     -1.89883179755137     -1.12085438865280
  H   0.44472033265247     -0.46573704662922     -2.14408278366748
  H   1.88941407057896     -1.05955177251437     -1.26548958280439
  C   0.17185212384887     -0.65664221825052      1.22959747199486
  N   -0.02761920872399     -1.19992890548391      2.25369099667220
  N   0.65137865409417      2.03140853661350      1.17613959702020
  H   0.79978654496255      3.03076853905159      1.12556624168553
  H   1.42255939020715      1.59133300735368      1.66646612109160
  N   -0.26580224174214      2.20305168721360     -1.04626276365456
  O   -0.98375433798997      3.07575894325574     -0.57359846889301
  O   -0.15798165372371      1.94603609580833     -2.24273349155593
