15
Coordinates from ORCA-job run
  C   0.70338509973850     -0.05825061993278     -0.08283988478510
  H   1.78362283855296      1.68245512684758     -0.68785874068386
  F   -1.10196446222136      0.10152901026231      0.00016799260269
  F   2.47078216170201     -0.17765169529838      0.11427747716495
  C   0.84003688712660      1.44762699275081     -0.20157105820106
  H   0.78061014471149      1.90862330119706      0.78023626399761
  C   0.69841867038887     -0.94732204917101     -1.30461036756959
  H   -0.27049712425329     -0.90319686579408     -1.79247197608781
  H   1.48593515590324     -0.62186686888863     -1.98218124515434
  H   0.91962669202494     -1.96920433844176     -0.99351221466515
  C   0.58262374186429     -0.64141874910343      1.24417906902260
  N   0.51080172133760     -1.12540868592821      2.31213677285014
  N   -0.21589517360755      2.09247770291340     -1.03315004438996
  O   -0.89679897526217      2.97757649225627     -0.52175303791805
  O   -0.26940737800618      1.76448124633083     -2.21601900618307
