15
Coordinates from ORCA-job run
  C   0.66847654819628     -0.06892603150175     -0.02661785050344
  H   1.64561964588472      1.83353645451037     -0.08487782378552
  F   -1.13106485542799     -0.03388668149393      0.08133737604106
  F   2.44330724406902     -0.03843770151601      0.05823395863988
  C   0.61774974299051      1.46982729989188     -0.01020532550811
  C   0.70465344520123     -0.81180006127252     -1.34456559680970
  H   -0.30469408324563     -0.97442678045464     -1.71258148469281
  H   1.28819804676785     -0.23309307697172     -2.06117107249398
  H   1.22089599993453     -1.75897711195960     -1.19330862180784
  C   0.66004745261944     -0.80152521264982      1.22626818446831
  N   0.66895562878478     -1.42564805328527      2.22144011750525
  C   0.03621335533420      1.99886214340109      1.22628296058597
  N   -0.35408698195181      2.49814549090247      2.21422388688595
  C   -0.13609716967829      1.97860191743620     -1.16177805003521
  N   -0.64256401947878      2.43800740496323     -2.11576065848980
