19
Coordinates from ORCA-job run
  C   0.47255801154544     -0.06163507118433     -0.04726444705643
  H   1.61435909302455      1.71358186901847     -0.34175438742417
  F   -1.19244976448551     -0.15732451207957     -0.13756537813004
  H   2.30354280919644     -0.14119567620480      0.38804960362060
  C   0.57584917564795      1.47614573115603     -0.11197122897994
  C   0.81862515166855     -0.84589608128413     -1.30675464409372
  H   -0.08821234566539     -0.93484581005376     -1.91135943514882
  H   1.60128967768775     -0.34990303729641     -1.87990044702333
  H   1.17650396200177     -1.84132019462072     -1.04385836832933
  C   0.62758692286059     -0.72330308061001      1.22164007694191
  N   0.49207191088370     -1.29231808143191      2.25206833785845
  C   0.22447496365376      2.08692644492833      1.23719060050528
  H   -0.77662833313502      1.76528237326087      1.53252869070648
  H   0.93357934125351      1.75859196272742      2.00088236787959
  H   0.24727065949698      3.18153684419943      1.18529575087843
  C   -0.30252094628861      2.06261592335019     -1.21938442530534
  H   -0.11742182493151      1.57351587639618     -2.18006057885309
  H   -1.35885875562652      1.94562558716255     -0.98297883298653
  H   -0.07037970878847      3.12824893256619     -1.33685325506003
