18
Coordinates from ORCA-job run
  C   0.66930224805232     -0.05469085221530      0.00730715428038
  H   1.63964916263621      1.81275184026847     -0.08087346522906
  Cl  -1.92188106448901      0.03086459452366      0.14371439477704
  Br  3.34736215772305      0.00621080212710      0.00741150926930
  C   0.60274752065546      1.47930379773164     -0.02450257267237
  C   0.70533822447179     -0.78393563863400     -1.30418402286557
  H   -0.31830883728987     -0.96717645350849     -1.63123603460182
  H   1.21340698773844     -0.18809227201646     -2.05710267796564
  H   1.22473174504074     -1.73272125186396     -1.17505014169156
  C   0.61312076499775     -0.85087405447357      1.28490859183675
  H   1.57347785800106     -1.32689546806764      1.46558665001013
  H   0.34989913573597     -0.22249779882141      2.13429507280036
  H   -0.15367037056165     -1.61730744637105      1.18021143400688
  C   0.08235870793312      2.04604106432056      1.23559414177907
  N   -0.23891684387723      2.62130593080905      2.20892319666670
  N   -0.05439945415788      1.97568553159439     -1.22268103829009
  H   0.08184557844816      2.97789536933968     -1.27586337574857
  H   -1.04511352105840      1.76997230525732     -1.13929881636188
