18
Coordinates from ORCA-job run
  C   0.67468151952497     -0.04718928700266     -0.01139377110587
  H   1.37665196815428      1.91872549343575      0.45333026068143
  F   -1.44329585703508     -0.09042457088239      0.17413822991454
  Cl  2.98906219436828      0.06086316098078     -0.35433877856308
  C   0.48858741525650      1.45752321737005      0.01816909382741
  H   -0.35949092412496      1.61629302815669      0.68189090029522
  C   0.48764820364435     -0.90065817475900     -1.24312669682734
  H   -0.56592385028849     -1.16476004496651     -1.28033634664134
  H   0.77817351150424     -0.36177582996874     -2.14361627441784
  H   1.11363856895973     -1.79042558949135     -1.17429831841064
  C   0.79101738763662     -0.73786043072281      1.32081693430254
  H   1.39384429280280     -1.64235340637760      1.24042952405026
  H   1.26158855924745     -0.07694753894828      2.05103907245386
  H   -0.22972949830835     -0.96995873225101      1.61922518026242
  C   0.17849821533758      2.07239218379764     -1.33461341942733
  H   1.00374145299392      1.92979273239033     -2.03665460509942
  H   -0.72948708896971      1.61350418097274     -1.72770017289516
  H   0.00515392929586      3.14902960826640     -1.23176081239965
