17
Coordinates from ORCA-job run
  C   0.53398294912188     -0.05630939488330     -0.01589850095143
  H   1.73140337015911      1.68900772186934      0.10954941631936
  Cl  -1.68539960219800      0.04747006862394      0.04134993763998
  H   2.77891559244359     -0.07570309383931     -0.03647081384815
  C   0.67772660770087      1.46945751867135      0.00144171051939
  H   0.14241362516853      1.82208963643133      0.89726203769075
  C   0.59273006588567     -0.84449165696311     -1.31107847774512
  H   -0.08239712145073     -1.70258702678307     -1.24523126331025
  H   0.27216335938268     -0.20604233866395     -2.13399920837095
  H   1.60896886413555     -1.17702584218028     -1.48215150304168
  C   0.63879441963132     -0.81349735549487      1.29809279040348
  H   1.66065733318546     -1.13412737996905      1.45565519733500
  H   0.32393121698149     -0.16679626817944      2.12230079424581
  H   -0.03484239565425     -1.67480443551371      1.27689489454972
  N   0.19668985233458      2.09422125374000     -1.23194674473217
  H   0.46605788580887      3.07032960169329     -1.21851583858501
  H   -0.81481602263663      2.04336899144086     -1.23502442811873
