19
Coordinates from ORCA-job run
  C   0.74821142254405     -0.05059768551650      0.01869787151021
  H   1.53297172348527      1.92609631271614     -0.28389013282316
  F   -1.33199946905757     -0.01056036279616     -0.05487927801273
  Cl  2.99555269760821      0.05463836395685      0.27975405105880
  C   0.56420447146064      1.47658481604424     -0.05187356339074
  C   0.79816718736831     -0.79530756503584     -1.29120794556889
  H   -0.23300933006654     -0.97615012599588     -1.58833521399711
  H   1.31145001313275     -0.20819215928019     -2.05402648215824
  H   1.33741944024450     -1.73511615325944     -1.16774613165767
  C   0.57450379701468     -0.86162976097023      1.28643525981658
  H   1.26567139265346     -1.70418336449405      1.27627211636170
  H   0.79887441388097     -0.26647855204718      2.17046059811373
  H   -0.45570822822466     -1.20332367462513      1.32144307989712
  C   0.05189550473939      2.08591233684714      1.25035182502210
  H   -0.88715757294501      1.59713673582858      1.49952373068433
  H   0.78864873998219      1.94652689720930      2.04442151062658
  H   -0.11099639671957      3.15969876854258      1.12203864093890
  C   -0.30819737844793      1.86200842820292     -1.16908495884492
  N   -0.86080242865318      2.32949674467288     -2.09487497757658
