19
Coordinates from ORCA-job run
  C   0.64616710978399     -0.07323666367094      0.00437666774890
  H   1.65487948043764      1.78556088087638      0.15100712178822
  Cl  -1.87996019706048     -0.03605425849288      0.29069362970692
  Cl  3.05558851187970     -0.04958396864939     -0.39331220279770
  C   0.61928845812847      1.46686692388951      0.01825419028591
  C   0.51999848239068     -0.87279275610104     -1.27662011882670
  H   -0.52267375712814     -1.10465691220859     -1.47797461056467
  H   0.94817767201468     -0.33928152707702     -2.12074677797444
  H   1.08260269746693     -1.79833968453442     -1.16002184735564
  C   0.71411012820665     -0.82587426520926      1.31204155725761
  H   1.73892754436301     -1.12838541582048      1.52051488724239
  H   0.33779891506046     -0.21580269911066      2.13173508837434
  H   0.08301583618431     -1.71100675215183      1.24436195531099
  C   -0.07170437741684      2.03272777502630      1.18085147381150
  N   -0.47062251579082      2.62320520658700      2.11537274996288
  C   0.11659900778202      2.09731276709861     -1.28029308756221
  H   0.80326242613502      1.85819834554389     -2.09405843397242
  H   -0.88388560241426      1.73407161999017     -1.51018983001502
  H   0.08676017997699      3.18412138401464     -1.16986241242087
