19
Coordinates from ORCA-job run
  C   0.67046021829083     -0.06777797962140      0.00587886950392
  H   1.65354249056092      1.81003585035931      0.06919430480383
  Cl  -1.91706211792019     -0.01700653695703      0.25515059591412
  Br  3.26191137792472     -0.06242644183207     -0.27823867621388
  C   0.61817882108358      1.47158726746098     -0.00592757735647
  C   0.57166928809342     -0.86224971922048     -1.27711038838070
  H   -0.47577020929646     -1.03946114379613     -1.51467871310986
  H   1.06100836710360     -0.35544502932151     -2.10441355670116
  H   1.07302852477002     -1.81901696609130     -1.13274382869903
  C   0.67991393358849     -0.83076276764377      1.31039239430929
  H   1.66441552739494     -1.25706124079957      1.49064252648462
  H   0.40139173692553     -0.18732390877632      2.14361066949180
  H   -0.05400806803301     -1.63286294901728      1.25064408187483
  C   -0.02105372326223      2.03546856356339      1.18630852313752
  N   -0.39633286958929      2.61235542696847      2.13876677888710
  C   0.04362237145966      2.08800277195002     -1.28324308685150
  H   0.67287140354611      1.82499160418478     -2.13561262787266
  H   -0.97430079728838      1.73923427871543     -1.44443399915846
  H   0.04484372464771      3.17676891987444     -1.18805629006330
