16
Coordinates from ORCA-job run
  C   0.61921624189543     -0.07141371971297      0.01974138868697
  H   1.43215141240587      1.84771598905620     -0.49671860511626
  Cl  -1.91613546989063     -0.08261157828383     -0.01273851592390
  Br  3.25752104617050      0.13783901470710      0.15974706244587
  C   0.52467826088649      1.45237474139517     -0.04248401175933
  H   -0.32623588583554      1.72790724228199     -0.66482932976192
  C   0.75871010526663     -0.79394409516391     -1.29610474864781
  H   -0.22445942829534     -1.11497355488878     -1.63795160544824
  H   1.21440130621122     -0.14537773552034     -2.04407593744755
  H   1.40083446709586     -1.66414212279881     -1.16812536957518
  C   0.52070620580149     -0.87687949611550      1.29333357908658
  H   1.50685228693678     -1.21655099347374      1.60082137652103
  H   0.07316183100465     -0.28573735311796      2.09002076024446
  H   -0.12036534193311     -1.73834413442072      1.11293106865073
  C   0.36072020888041      2.08726324557613      1.25952747977106
  N   0.23677275339928      2.63487455047996      2.29012540827350
