18
Coordinates from ORCA-job run
  C   0.58887467716129     -0.05947923929189      0.01178654781353
  H   1.34113974128924      1.81420341633011     -0.53520093557791
  Cl  -2.08989732392877     -0.22967493213556     -0.01559618100798
  Br  3.36635039533539      0.20738084033041      0.23302499840085
  C   0.44481364547531      1.43549305314764     -0.04353391719359
  H   -0.39889450466834      1.63541602637537     -0.70744922427688
  C   0.77933074983507     -0.78255638706154     -1.28255112239865
  H   -0.20896779828527     -1.09577167011635     -1.62510094979914
  H   1.24047887639374     -0.13281047951200     -2.02462833275921
  H   1.41007787445881     -1.65798005937345     -1.13622816298250
  C   0.49597288642507     -0.87878794505418      1.26403139777170
  H   1.50269715674572     -1.13395909850502      1.59124960664989
  H   -0.02683179094293     -0.34430483218564      2.05172393340822
  H   -0.05575507811374     -1.79183437832785      1.04595462079985
  C   0.24353367452604      2.12509089709706      1.29264739688460
  H   -0.69242618151816      1.80358029894378      1.75200964833366
  H   1.08123946187764      1.91298096515683      1.96026278368463
  H   0.19529353793390      3.20780352418227      1.14500789224893
