18
Coordinates from ORCA-job run
  C   0.41232284469989     -0.09498190143985     -0.04258425253186
  H   1.49455272750588      1.58369487069909     -0.70806153499771
  Br  -1.81163818057871     -0.33002552039832     -0.57188095338527
  H   2.42223131854398      0.28346176183633      0.56457679506871
  C   0.57663331006882      1.44374496605693     -0.12690809005320
  C   0.94120467947353     -0.88916147687481     -1.23157999283758
  H   0.47144011157708     -1.87521439434383     -1.24696608382396
  H   0.67192630206186     -0.38850845656856     -2.16587672041073
  H   2.02034437644367     -0.99699694708844     -1.16982994555853
  C   0.26726720839380     -0.80856945057940      1.30240759807505
  H   1.24064750278886     -1.02381325828389      1.73063803216873
  H   -0.29995330122167     -0.17667310227932      1.98643566952259
  H   -0.28588522086479     -1.73937753331325      1.15537186191464
  N   0.67928266246420      2.02369325001116      1.21487247798208
  H   0.83170072602448      3.02350284932957      1.10905338475828
  H   1.55620035221225      1.59972015460563      1.54151920806053
  C   -0.45231838466992      2.21289301563727     -0.86189618588698
  N   -1.06878903492322      2.99528117299370     -1.48875126806476
