19
Coordinates from ORCA-job run
  C   0.75328168061858     -0.03235857170273      0.02278078420267
  H   1.65418029183229      1.93911519701383      0.25845288687496
  F   -1.32029212702812      0.21900345980558     -0.07612088466955
  Br  3.20423791715193     -0.10522366657612      0.03925902452486
  C   0.68203095886475      1.50673242793135      0.02483444771470
  C   0.66321189081494     -0.76973604317271     -1.29739644865369
  H   -0.38090605647026     -1.04306145101155     -1.43761621663474
  H   0.99409469148055     -0.13355863627562     -2.11442524033400
  H   1.28895831074542     -1.66026618086248     -1.26187859686357
  C   0.60374782183785     -0.86299821253653      1.27426428844804
  H   0.95784020857528     -1.87292293457840      1.06106583199005
  H   1.17091941345020     -0.46082938019631      2.10626316420384
  H   -0.45704751750267     -0.87969708011023      1.51625434611852
  N   -0.16855985796805      2.02989697678594      1.21249168380503
  O   -1.01265690785599      2.88695269391924      0.97402876833735
  O   0.14856169520873      1.66976640955962      2.34245522367202
  N   0.19542950665779      1.99365044251145     -1.21429115200469
  H   0.13674628183813      3.00226462761699     -1.18129955999560
  H   -0.74254820225135      1.60032992187868     -1.27451235073616
