19
Coordinates from ORCA-job run
  C   0.49237280840390     -0.08393894725889     -0.01084752795030
  H   1.48947306318962      1.74835117919122     -0.45563267392422
  F   -1.18957098457940     -0.15367587599429     -0.22075904978189
  H   2.35979522257037      0.18219976461360      0.40028045913790
  C   0.49806582438524      1.45829583434432     -0.11052935141888
  C   0.91655042073942     -0.82768821473977     -1.26480690771252
  H   0.02488352591082     -1.25564114303198     -1.73475356015193
  H   1.40201072994472     -0.15319255469499     -1.97297072644360
  H   1.62540621660451     -1.61892092601356     -1.02535873590806
  C   0.44559973793530     -0.89368080628485      1.28000588638664
  H   1.35938925950511     -1.46671960806545      1.40502515197305
  H   0.33781163614181     -0.24637055184680      2.15113240821673
  H   -0.42514605139667     -1.55738552107733      1.24144947603097
  C   0.24286567410523      2.13778267751732      1.22807835951413
  H   -0.71528008504140      1.81015365813121      1.63568434962366
  H   1.05518832989216      1.86067414688591      1.90399107724017
  H   0.22586224346939      3.22570245202131      1.11632098061839
  C   -0.46009845212047      1.96472545912789     -1.11280904782055
  N   -1.10547911965967      2.49588897717511     -1.94002056762965
