17
Coordinates from ORCA-job run
  C   0.67312205116878     -0.08092088669150      0.01057712632311
  H   1.62674960066817      1.84097455283482     -0.09662603257016
  Cl  -1.79066300953150      0.03092162789011      0.13149280903451
  Cl  3.06341910196786      0.02794782087843     -0.01779856771360
  C   0.60101754028269      1.46723172242269     -0.01843152998001
  C   0.69601926803330     -0.81941209278647     -1.30885410429352
  H   -0.31518447347095     -1.06796046292299     -1.62406911135944
  H   1.17843298590101     -0.21962447096280     -2.07946220805736
  H   1.27944234444939     -1.73147163086200     -1.18708138583777
  C   0.62831490676962     -0.86718538499421      1.30524892000156
  H   1.60244136739275     -1.29852552241286      1.52243688913608
  H   0.31595137046525     -0.23577097875623      2.13606425364932
  H   -0.10711012328780     -1.66317539996609      1.20487515634163
  C   0.06196036803690      2.05762101294030      1.20771049759424
  N   -0.23773732009740      2.59780710999758      2.20641050420064
  C   -0.09354527032386      1.98406848419455     -1.20174486729865
  N   -0.50143070842417      2.46724449919668     -2.19145834917063
