20
Coordinates from ORCA-job run
  C   0.71488025200857     -0.00911495206163      0.00442663981857
  H   1.61764072032472      1.90023208142753     -0.18699648026513
  F   -1.41940978777151     -0.00984140576567     -0.08310420001971
  Cl  3.11911041137980     -0.04291681814693      0.25818901398879
  C   0.60698061265560      1.51904481983187     -0.04278418957765
  C   0.78419827703658     -0.75164773773730     -1.29972589735636
  H   -0.24496252574777     -0.94476172700004     -1.59806587236311
  H   1.27931655323433     -0.14758290210943     -2.05604563275861
  H   1.32687046962057     -1.68733591884135     -1.16949930808560
  C   0.58051508606603     -0.80381700924742      1.27866404268247
  H   1.11571409364667     -1.74684342705777      1.17611954975047
  H   1.00589897429438     -0.27572443225440      2.12874179594369
  H   -0.48207146987620     -0.98290135131678      1.42841429408681
  C   0.04990485433754      2.09422125840670      1.25918865964430
  H   -0.93044773804725      1.65250760921838      1.43498019378870
  H   0.70955272081658      1.90702572425678      2.11090391817714
  H   -0.05248921351041      3.18045452544470      1.15502442540344
  N   -0.16587980668769      1.90227278477361     -1.22887995157305
  H   -0.27781070054799      2.91020017825574     -1.21614146926331
  H   -1.06806178323253      1.44915869992340     -1.08205953202185
