21
Coordinates from ORCA-job run
  C   0.48610815442044     -0.08021405889175      0.00482668845825
  H   1.72959059872159      1.48302329362015     -0.00879076937999
  Br  -2.06906617821352     -0.21541754859933      0.02475501802358
  F   2.66443159827306     -0.20790278724943     -0.01377238959537
  C   0.63493907451888      1.42803185104787     -0.00387468821778
  C   0.56857153099322     -0.82392269359364     -1.30650003279703
  H   0.40957220709831     -1.88909851812625     -1.13435653939070
  H   -0.17837483087950     -0.47691132810851     -2.01684144836825
  H   1.57750033549097     -0.66705124602101     -1.68166110990311
  C   0.58239965835983     -0.81397856127506      1.32033758602884
  H   1.60659243382028     -0.68619447597868      1.66417058117457
  H   -0.13316398215959     -0.43603720331773      2.04701818108979
  H   0.38109783380747     -1.87437579809825      1.16398668607988
  C   0.12402780929815      2.12415168450032      1.25381705310389
  H   -0.95487986282049      1.99341771723214      1.35966634204065
  H   0.61596851379541      1.74130794178068      2.15076037206343
  H   0.34644687121950      3.19489030402082      1.18997701928843
  C   0.11432573693550      2.10669249952071     -1.26697555336169
  H   0.60445288672272      1.71510024807189     -2.16117299022828
  H   -0.96430340133914      1.96886986967616     -1.36725127615489
  H   0.33059301193693      3.17945880978893     -1.21779872995418
