20
Coordinates from ORCA-job run
  C   0.71134472793092     -0.03901934091470     -0.01043509401647
  H   1.57590610340994      1.72043013409283     -0.70266543246207
  F   -1.47589426135818     -0.37730831039822     -0.61400764380253
  Br  3.20729053984334      0.05784553632820      0.75002067789930
  C   0.65762594899377      1.47704313939575     -0.15208954999754
  C   1.01715737077833     -0.83835363675785     -1.23768797419958
  H   0.02998729399801     -1.11390735760493     -1.61422605761001
  H   1.57229931086191     -0.24717182488600     -1.96769952670629
  H   1.59932208374714     -1.72320661248252     -0.98434554606218
  C   0.28976708274134     -0.73861885577901      1.24143795886048
  H   0.84648425100877     -1.66775687613397      1.35946114885561
  H   0.42586574116631     -0.10666621701245      2.11415188204656
  H   -0.76948979380520     -0.93932010894149      1.06761526041622
  N   0.63606409232217      2.11519652815322      1.16411838133769
  H   0.57499839252819      3.11750487526896      1.02119136351192
  H   1.53634088864625      1.92259268303330      1.59581323203257
  C   -0.51254837228082      1.99795361106560     -0.98278331361491
  H   -0.50261866458897      1.56575349373239     -1.98274318745848
  H   -1.44990917467861      1.70802991786317     -0.52212550710771
  H   -0.40569356126463      3.08892922197769     -1.06562107192260
