17
Coordinates from ORCA-job run
  C   0.55732295612228     -0.04537360622293      0.05103918826344
  H   1.04161100690869      1.84274350775294     -0.75357541736462
  F   -1.29382149936539     -0.25250765804560     -0.54128623730071
  F   2.33429132292865      0.20906207644737      0.57559772774334
  C   0.38052625550016      1.46637047482629      0.04200701740754
  H   -0.65297291778189      1.67625703359026     -0.21816204411277
  C   0.94573180964748     -0.75087400331637     -1.22592047275745
  H   0.42448222583360     -1.70584185242675     -1.28056668181555
  H   0.62023843755496     -0.15922386882130     -2.08284915083960
  H   2.02497542320471     -0.89538841144345     -1.25323497423314
  C   0.27320452067279     -0.86502224579728      1.28524915251463
  H   1.12562203997403     -1.51414369492836      1.48767135437541
  H   0.13067807479508     -0.19719808374429      2.13478053578474
  H   -0.63118068640533     -1.44284322645545      1.11441741466862
  N   0.69497769375612      2.05689670143834      1.34887255403552
  H   0.67694342656899      3.06658097696619      1.25533866703182
  H   1.65186991008509      1.76140588018040      1.51509136659877
