19
Coordinates from ORCA-job run
  C   0.49961302655716     -0.05271781193765     -0.02711239033067
  H   1.59171685501469      1.60131318575141     -0.60555771710356
  Cl  -1.85786825641849     -0.28863347614820     -0.45769028475279
  F   2.50495220423354      0.14485588148762      0.55515234701055
  C   0.61731319985823      1.47673732490303     -0.12741537607072
  C   0.87048612561336     -0.80872795924362     -1.26806696544680
  H   0.38664912761037     -1.78432664222250     -1.28847962347794
  H   0.55723873944305     -0.24215469487168     -2.14529622562740
  H   1.95466121254788     -0.91616774740878     -1.24537217870813
  C   0.28651141106825     -0.78706518264951      1.27544600931342
  H   1.26730822080271     -1.00089607555277      1.69213262623504
  H   -0.28858541211530     -0.16503094667398      1.95781658605961
  H   -0.26304495447041     -1.70857819771277      1.09455467253142
  N   0.64218272947107      2.02395225712668      1.23544124591517
  H   0.83411607594643      3.01836456030766      1.15423693567667
  H   1.47771253738150      1.59132989426142      1.62822706887147
  N   -0.33868635613877      2.12052339276507     -1.00672981209209
  H   -0.11220019740259      3.10942013315299     -1.03541193116477
  H   -1.27315628900267      1.99654210466560     -0.63746498683848
