17
Coordinates from ORCA-job run
  C   0.81860918349717     -0.07480867818072      0.05898844569059
  H   1.68979896635048      1.89271983002204      0.40684467963006
  F   -1.24471975426561      0.18824286897821     -0.00437750329538
  Cl  3.05317081859593     -0.14199524989292     -0.00374327921869
  C   0.74205175234545      1.44530468469696      0.10681134145655
  H   0.42962104019518      1.82023474152828     -0.86216831231582
  C   0.66289870999590     -0.76305342014029     -1.28135641197368
  H   -0.38960574200810     -1.00261649606971     -1.40118384567703
  H   0.98736157744228     -0.10363126232356     -2.08868860396317
  H   1.28011007030211     -1.66067243632394     -1.31744867324156
  C   0.68710919121819     -0.91713438901901      1.30262112266732
  H   1.13210865431282     -1.89591057196051      1.11457181100790
  H   1.19776276570935     -0.46049324088534      2.14631526921688
  H   -0.37431277341112     -1.00961751242062      1.51620997686461
  N   -0.23809462029310      2.02399625938707      1.07357416390977
  O   -0.92995366497434      2.95493052359933      0.67170408663749
  O   -0.18510617501261      1.65372434900470      2.24199573260417
