16
Coordinates from ORCA-job run
  C   0.73681056327657     -0.06161763906892      0.02744093449770
  H   1.43318008403524      1.96828949759278     -0.34712197710070
  F   -1.33295201013630     -0.02745073838211     -0.08381728897759
  Cl  3.00178964971961      0.07816204479929      0.21435924604964
  C   0.52367290932315      1.44953110891815     -0.04274004699512
  H   -0.26926966450411      1.61811496003016     -0.76844389230568
  C   0.77704209011443     -0.79254435665888     -1.29140433613730
  H   -0.24851652760114     -1.06393035349813     -1.53010813262275
  H   1.18930407394537     -0.14830487896671     -2.07075947355969
  H   1.41202618364354     -1.67532213402233     -1.21884190682877
  C   0.59452271149253     -0.85736822101766      1.30290861588080
  H   1.26162793826290     -1.71893393083870      1.27687514494267
  H   0.86341870219051     -0.24960725336931      2.16685437504636
  H   -0.44453517128406     -1.16603593372308      1.37627473517588
  C   0.07260685598639      2.01865115356905      1.22236984549943
  N   -0.25219838846463      2.52636667463639      2.22937415743510
