17
Coordinates from ORCA-job run
  C   0.38732449484277     -0.04461960775589      0.00501713288442
  H   1.13184762977752      1.79018581354429     -0.74433382351584
  Cl  -1.74499815194070     -0.28241548245454     -0.51684964725367
  H   2.49420945764625      0.33134041068524      0.48067847681960
  C   0.43720554191190      1.48181096859003      0.04589817379431
  H   -0.55016737542603      1.89092806357565     -0.18268414097123
  C   0.87001364588628     -0.76483955582123     -1.24637430207508
  H   0.39235476020874     -1.74502772877991     -1.31081763008318
  H   0.57298828516343     -0.20093010357574     -2.13435879178781
  H   1.94855394472146     -0.87505225269248     -1.22786013114742
  C   0.26502093997293     -0.83742070284606      1.29507543339647
  H   1.24362865398838     -0.96180241473576      1.74775295136331
  H   -0.38588850110495     -0.30330096238084      1.98712246762687
  H   -0.17508634274778     -1.81449413543460      1.08085017633564
  N   0.80823495787877      1.97850984801127      1.37257936966935
  H   0.84694115786812      2.99295779246910      1.32333912694045
  H   1.76231690135287      1.61507004960148      1.47943515800378
