15
Coordinates from ORCA-job run
  C   0.52440770801235     -0.04226193255920      0.01026340103322
  H   1.74278959968441      1.72342613011397     -0.05338207742327
  Cl  -1.64766588025291      0.03794785715309      0.14399196720738
  H   2.73327916236793     -0.19429384878117     -0.19380618075363
  C   0.69026878581854      1.47118713209225     -0.00037673199765
  H   0.24165872596762      1.89865172528655      0.90029967416027
  H   0.16064531731285      1.89041899072245     -0.86040752564371
  C   0.64399989284690     -0.80162101926606     -1.30761116879767
  H   -0.33377346943102     -0.99337641378292     -1.76517296617205
  H   1.26023381252463     -0.23666716408609     -2.00221719688539
  H   1.15828074191002     -1.74655765282213     -1.14602111022250
  C   0.67939742869316     -0.78818523821027      1.32968272968801
  H   1.73004991805246     -0.92955057369973      1.55142498668190
  H   0.19283783858609     -0.22473545405846      2.13047077487157
  H   0.17815041790699     -1.75766253810231      1.26115142425352
