20
Coordinates from ORCA-job run
  C   0.73148992476701     -0.00533221357190      0.00380016745855
  H   1.61115267533279      1.90869306162089     -0.18667171116532
  F   -1.47256211047183      0.00062668291682     -0.07503713000203
  Br  3.31569807537394     -0.03279735937455      0.27189499534940
  C   0.60346947832355      1.51932560342953     -0.04138373744316
  C   0.77779899078903     -0.74792336848211     -1.29723169416970
  H   -0.26509643645018     -0.92639755585127     -1.56093863381828
  H   1.25158282400253     -0.14712917354275     -2.06933699062339
  H   1.31096678276900     -1.69016915024616     -1.17750073089692
  C   0.58312331905797     -0.80360291033453      1.26991704013215
  H   1.11590092185063     -1.74833492455194      1.17475109227481
  H   0.97999085645440     -0.27698904167022      2.13430773280047
  H   -0.48745889806198     -0.97331942156716      1.38281309779298
  C   0.04281297229270      2.08939188128455      1.26151349358729
  H   -0.93490070124468      1.64041945206557      1.43349856095769
  H   0.70438537787180      1.90624155499805      2.11271570388302
  H   -0.06542417069292      3.17482015397197      1.15704480224189
  N   -0.17412290668488      1.88969964937243     -1.22731191891154
  H   -0.28297163856058      2.89793662961109     -1.22648356724204
  H   -1.07638533671831      1.43747044992169     -1.06901057220588
