17
Coordinates from ORCA-job run
  C   0.46500405711304     -0.09413297752141      0.00437843335487
  H   1.67998685675482      1.62353272070056     -0.03632973458334
  Cl  -1.64057148244682     -0.04300788240627      0.07112969827550
  H   2.54390037900169      0.05062736490240     -0.12587432573355
  C   0.59586373499344      1.45680696357200      0.00001519220020
  C   0.67183010942060     -0.85255795659707     -1.30413630656193
  H   -0.26301005563010     -1.32894661857443     -1.62018980463806
  H   1.01103295621236     -0.18431736763730     -2.09504190829072
  H   1.44346699945233     -1.60526029204865     -1.17271778257293
  C   0.64183245349640     -0.84675246220896      1.31734025492525
  H   1.68932718572699     -1.04927488609048      1.50886376110833
  H   0.21276234555899     -0.27832597734602      2.14535513170428
  H   0.08306707991867     -1.78462406096074      1.24760959528910
  C   0.08271124357163      2.09496033834592      1.21189952166139
  N   -0.20884311932298      2.64032921777202      2.21152249036648
  C   0.01139695119397      2.07818739650022     -1.18900387600162
  N   -0.33855769501503      2.61252647959819     -2.17553034050324
