17
Coordinates from ORCA-job run
  C   0.70231101632307     -0.07854290642827     -0.05068010460414
  H   1.71425388973331      1.82067198458009     -0.19631648728933
  Br  -1.98704121604822      0.15154536633568      0.21753646072732
  Br  3.33631965127818     -0.11456379441158     -0.16659709243854
  C   0.69974197016148      1.44399062953209     -0.07439168984044
  H   0.26105780155662      1.83283010691113      0.83856040039220
  C   0.64646481813784     -0.94056852465658     -1.28707273807422
  H   -0.38777581790170     -1.06255956112238     -1.60443595519282
  H   1.21421383525758     -0.50161486157005     -2.09989757759432
  H   1.07099019550608     -1.91509232477019     -1.04279256466402
  C   0.67753415135046     -0.77368978807671      1.29745512778580
  H   1.64022321361821     -1.23928018474281      1.49433569697288
  H   0.44195106127397     -0.07154235450967      2.09681976881120
  H   -0.09611373561238     -1.53932152573526      1.28670946509133
  N   -0.04997208279750      2.11419352810540     -1.18303246639227
  O   -0.55231919749993      3.19901859675082     -0.90267952781284
  O   -0.01496955433707      1.62448561380829     -2.30612071587776
