18
Coordinates from ORCA-job run
  C   0.55403820240627     -0.07716567140509     -0.00474391222818
  H   1.74014984874087      1.61174376127514      0.00585445824541
  Cl  -1.76676336683672      0.00609781056840     -0.02355129520852
  F   2.62807078346562     -0.00969691097405      0.02678969295822
  C   0.65977570796371      1.45301405679278     -0.00592262465299
  C   0.64708142523197     -0.83326810205325     -1.30542063859352
  H   -0.06511072332300     -1.65801165694413     -1.31050981117898
  H   0.42719007657276     -0.16573175262961     -2.13643555991146
  H   1.66780518792780     -1.19823554643816     -1.38224228230568
  C   0.59317829059328     -0.84502846024371      1.29235811121928
  H   1.63712919514765     -1.07028239265700      1.49386867578740
  H   0.16349100215746     -0.26562372213883      2.10935725869053
  H   0.01181246595364     -1.76220527886132      1.19266849327289
  C   0.12082901383983      2.05391914194220      1.22987499305629
  N   -0.23060518867723      2.64806388853655      2.18160644102846
  N   0.11866104256273      2.06680714743973     -1.21213762470464
  H   0.35503713622590      3.05181648098431     -1.20525653593942
  H   -0.89082009995255      1.96962720680605     -1.18899783953511
