20
Coordinates from ORCA-job run
  C   0.52272346510520     -0.06288701660539     -0.01433097083039
  H   1.68979926099808      1.59711201424443     -0.18749595507452
  Cl  -1.85477873092619     -0.14419799969014     -0.13820394075827
  F   2.64858709903867     -0.02336111522641      0.23220808628351
  C   0.61760462635095      1.46028931255043     -0.04578513034304
  C   0.70655182639807     -0.80510876030721     -1.30855177492381
  H   0.21131497897893     -1.77517307595676     -1.26354758471798
  H   0.29702810620792     -0.22547849567822     -2.13250511532626
  H   1.78252791733639     -0.92488930226772     -1.42043531130658
  C   0.49337621537434     -0.83574189730766      1.28307107214418
  H   1.52189161753429     -0.90643568931273      1.62632234062377
  H   -0.13671048959016     -0.35019061873001      2.02553056116887
  H   0.07941942368485     -1.82823976054267      1.10176363514872
  C   0.22499652087160      2.11108411680296      1.27732639153784
  H   -0.81925597741128      1.90002951959258      1.51972217598024
  H   0.86871241760213      1.75945686842583      2.08731464656102
  H   0.35291436916168      3.19628913481814      1.19484270183214
  N   -0.05138497436192      2.03004660326233     -1.21874436062998
  H   0.16687387019852      3.01971754371160     -1.24728559543661
  H   -1.05274154255207      1.92030861821660     -1.09986587193286
