17
Coordinates from ORCA-job run
  C   0.43417082583691     -0.04727688603395      0.01823025569866
  H   0.87070997108360      1.86305332025395     -0.80005604464980
  F   -1.26695044135851     -0.27812313463694     -0.37102929664981
  H   2.27463378834402      0.34074076541838      0.33004596315478
  C   0.31241194562771      1.47397477964085      0.06303434065612
  H   -0.74409231668329      1.72694664317287     -0.05161870120953
  C   0.92935387956784     -0.77283884270186     -1.22365736817566
  H   0.10399966653841     -1.35572024326371     -1.64267956010152
  H   1.27483405363937     -0.05105877813241     -1.96804982832633
  H   1.76856945130491     -1.42586143677548     -0.99102507035853
  C   0.30353058934075     -0.85682893884363      1.29667244131357
  H   1.27287845226820     -1.09754423762706      1.72757474909886
  H   -0.27556057783158     -0.28074968761003      2.01991501305049
  H   -0.24710925848093     -1.77254271177254      1.06538431970875
  N   0.76921166660065      2.03599111521247      1.34139972334742
  H   0.78813197130397      3.04804583617259      1.24898270778569
  H   1.73577633289799      1.70069243752651      1.39134635565682
