17
Coordinates from ORCA-job run
  C   0.68569613240665     -0.07969303696941     -0.05202849969732
  H   1.72023481916685      1.80867207587682     -0.16401865575093
  Br  -1.95954309280504      0.13385735625680      0.22232501670356
  Cl  3.17345947851846     -0.11365490991449     -0.20453164516507
  C   0.69972462259320      1.44074353648983     -0.06817013450148
  H   0.24484672473195      1.82920241562111      0.83690278584065
  C   0.64086154017199     -0.94405744789781     -1.28801690427605
  H   -0.38878879066608     -1.08958147595229     -1.60805983933367
  H   1.20429970876472     -0.49602551575380     -2.09832958420238
  H   1.08844522959674     -1.90731989089263     -1.04122136797190
  C   0.69217195856871     -0.76868260424677      1.29813150339579
  H   1.67854743236992     -1.17911072637255      1.50135498792051
  H   0.41182440218087     -0.07731605760998      2.09220596173887
  H   -0.03807587386871     -1.57595212624031      1.28837208486785
  N   -0.02631291148937      2.12261131136190     -1.18385332963144
  O   -0.51812588341789      3.21361708631186     -0.90692819260460
  O   0.00760450317705      1.63265000993169     -2.30673418733237
