17
Coordinates from ORCA-job run
  C   0.58554909529915     -0.09263125312570      0.00028329259326
  H   1.74103955722160      1.64399368426566      0.01974410092377
  Cl  -1.71309940475455      0.01125532637701     -0.03569180752415
  F   2.56647521279302      0.02384055291478      0.02759541656055
  C   0.66093965083680      1.45034093071276      0.00496489890408
  C   0.65097474086705     -0.85199047707739     -1.30461677033911
  H   -0.01628241077072     -1.71217443285657     -1.26105149969485
  H   0.32763036572715     -0.22858082513316     -2.13863800397038
  H   1.68001294028297     -1.16830094086118     -1.45405955817375
  C   0.61131885399956     -0.85744879983911      1.30313742565251
  H   1.63734398207226     -1.16469699347417      1.48823200345995
  H   0.25125957608056     -0.24195183692429      2.12787649071005
  H   -0.04530351547898     -1.72392525115470      1.23065168937824
  C   0.08721898636780      2.07218565320405      1.19823404148311
  N   -0.26274553659354      2.61803011421658      2.17738531778721
  C   0.12012368880876      2.07849217211012     -1.20043289439879
  N   -0.20125578275888      2.63333237664530     -2.18432414335174
