15
Coordinates from ORCA-job run
  C   0.71627262916557     -0.04384265483529      0.00544848170850
  H   1.09962017550451      1.89459674959880     -0.83238321076425
  F   -1.38182589907593     -0.15021420832538     -0.24857481950362
  Cl  3.04703576379065      0.07540342708015      0.26936098282264
  C   0.56635548754962      1.45731595433395      0.01272466127124
  H   0.98711319933196      1.87773995711039      0.92652466821705
  H   -0.49877798852001      1.66056282606418     -0.05730000267043
  C   0.83556049554150     -0.78530942992141     -1.30329792392503
  H   -0.17821827350655     -0.96928023921828     -1.64809930552983
  H   1.39013134979071     -0.18761480612430     -2.02756646840746
  H   1.37610398497282     -1.72170557108508     -1.16112758534716
  C   0.53319313156813     -0.81396051128227      1.28927477982745
  H   1.07974774066404     -1.75678725519862      1.24803702545319
  H   0.91683700008341     -0.24127076994914      2.13432669594921
  H   -0.53458879686042     -0.98891346824770      1.39094202089849
