20
Coordinates from ORCA-job run
  C   0.48803273719256     -0.07409851812268     -0.01478285672492
  H   1.63312909768776      1.65494751555947     -0.28655406809512
  Cl  -1.72789183124871     -0.17576722246677     -0.16136764048514
  H   2.66727081282265      0.06171328394300      0.33892597892826
  C   0.58770360463922      1.46901017734576     -0.07236261483672
  C   0.74243679311412     -0.81802285098563     -1.31264721233606
  H   0.26379798538378     -1.79987443931758     -1.27341285939151
  H   0.31062686508111     -0.24906512213837     -2.13629817730572
  H   1.81128799614147     -0.93480901673621     -1.45681998069303
  C   0.46769523934618     -0.86905721841784      1.29080132061587
  H   1.47447514844075     -1.03620254535717      1.64729584997090
  H   -0.11643116551097     -0.34825462020740      2.05096662405316
  H   -0.03132885698922     -1.82455505759198      1.10622392268316
  C   0.27174651732842      2.11954056431478      1.27036917362144
  H   -0.75246225773116      1.90082567865238      1.58359056583444
  H   0.97114725255700      1.77063477824234      2.03430778172926
  H   0.38097110867006      3.20620312763937      1.17841139574570
  N   -0.15449502938449      2.03921024195373     -1.20851875100835
  H   0.12988520382236      3.00934234730090     -1.29140385535485
  H   -1.14814722136288      2.01090889638993     -1.01537459695076
