19
Coordinates from ORCA-job run
  C   0.46245046698548      0.00786704769597     -0.01259773359320
  H   1.45837372308581      1.70623670231274     -0.81190153594244
  F   -1.24239066336827     -0.05586316636206     -0.31714436074086
  H   2.34997086234114      0.17167467177646      0.32881916210010
  C   0.60666852895922      1.55707518548847     -0.13887333165004
  C   0.86831277025500     -0.83972003620631     -1.20721819093384
  H   -0.03015760673083     -1.26979062074723     -1.66207123856872
  H   1.39662528957853     -0.23221533217901     -1.94664269875446
  H   1.54374030398184     -1.63901307760189     -0.90650753112179
  C   0.27190288470097     -0.69882571652815      1.32395801574848
  H   1.21175254056122     -1.07407126547820      1.71938647246001
  H   -0.16351018925135      0.00603330438180      2.03398715462235
  H   -0.43453997779326     -1.52096756311472      1.18080199768264
  N   0.83852145370883      2.12395915471460      1.18397117544827
  H   1.00176881202143      3.11578720683982      1.04513288322342
  H   1.70795900020872      1.68739679530647      1.48723188779591
  N   -0.50765504853981      2.32167762151428     -0.70997988093839
  H   -1.32654495177327      2.01057595889246     -0.19889601706206
  H   -0.65632819893144      1.95092312929449     -1.64304622977538
