15
Coordinates from ORCA-job run
  C   0.72661965920713     -0.04393894917842      0.00877285670117
  H   1.11908026380109      1.90290434913959     -0.81102542694310
  F   -1.41912365585370     -0.19071914237332     -0.20911744043629
  Br  3.23167423224295      0.09486994924274      0.27763144035722
  C   0.54823315440938      1.45169209748195      0.00114926710926
  H   0.88982950991783      1.88593011847211      0.94108059595010
  H   -0.51856673857918      1.61423021549786     -0.13847760368577
  C   0.81788513208090     -0.77438658173770     -1.30639169658627
  H   -0.20342419943223     -0.84135796338241     -1.67461227213697
  H   1.45412522070880     -0.23231546691969     -2.00586121452809
  H   1.23909372807244     -1.77019559461826     -1.16262720494102
  C   0.55327311910790     -0.81096471527873      1.29503635519474
  H   1.10135291780419     -1.75276919572444      1.25446573406257
  H   0.92973994178663     -0.23471317166169      2.14043149138061
  H   -0.51523228527415     -0.99154594895956      1.38783511850184
