18
Coordinates from ORCA-job run
  C   0.78650988714811     -0.06687919262511     -0.01438699658375
  H   1.61268288079807      1.91025348134396     -0.38953802940158
  F   -1.28298097346942      0.20949771807924     -0.08318119891184
  Br  3.13303961622976     -0.03636039797067      0.22884259118698
  C   0.65758772584351      1.46671586432805     -0.09368730614032
  C   0.75190435800454     -0.89222563610173     -1.27908105581210
  H   -0.29371568917995     -1.00228979351877     -1.55741613189971
  H   1.30423634545319     -0.42430565499077     -2.08887272294764
  H   1.19858258589989     -1.86543432095250     -1.06776070742284
  C   0.52636264995642     -0.81081407392936      1.28195766109324
  H   1.18241659018110     -1.67958714445589      1.33739665158130
  H   0.72134018648752     -0.18336517149987      2.15098037328107
  H   -0.51911593906442     -1.10729667298541      1.27759644750533
  C   0.26053626451271      2.03519675031105      1.18883464899426
  N   0.04706835897626      2.52248133083139      2.23543401036578
  N   -0.28043551005731      1.99024619884385     -1.16916050994956
  O   -1.06221714414074      2.88021044202581     -0.86783640600866
  O   -0.06296219357919      1.59519627326670     -2.30779131892996
