21
Coordinates from ORCA-job run
  C   0.75623746128818     -0.02185068212247      0.01248095137479
  H   1.64754702788824      1.90422689173065     -0.04517980520358
  F   -1.41400694460929     -0.07527475683510      0.02158218824044
  Cl  3.11268917290597     -0.12023719429596      0.01314004094663
  C   0.63135276915032      1.50721394073518     -0.02451421084847
  C   0.68733535902574     -0.82181765730685     -1.26486577882940
  H   -0.36727711718742     -0.90709674004302     -1.51778797061727
  H   1.24662779977936     -0.34413529805128     -2.06732452983714
  H   1.12001534914065     -1.80876096611038     -1.10203432588314
  C   0.69120129168692     -0.76269078011692      1.32562768569690
  H   1.10916351731344     -1.76164902784367      1.20102835334516
  H   1.26750410931457     -0.25866356935729      2.09923960361958
  H   -0.36114635885374     -0.82397429519435      1.59363773024088
  C   -0.06323884368727      2.06151570806627      1.21981813066868
  H   -1.06400763127324      1.63575186092303      1.26464171040820
  H   0.48222707982130      1.81927926974314      2.13507356070091
  H   -0.11763457241221      3.15382658975260      1.15010613249082
  C   -0.09007254029574      2.00168743664656     -1.27917290509336
  H   0.43867812886894      1.72024062337069     -2.19309773748063
  H   -1.08930258184819      1.57032887263495     -1.28440389916971
  H   -0.14706247601652      3.09591977367425     -1.25767492477027
