16
Coordinates from ORCA-job run
  C   0.46598919364903     -0.07503347130730     -0.01093260135464
  H   1.67516408371744      1.66265911481621      0.34329976952877
  Br  -1.81299472444028     -0.01266385647851      0.10043717741604
  H   2.68643372621937      0.02923005671961     -0.21858175356812
  C   0.65478642601930      1.45436584918533      0.03905426680446
  H   -0.05086996565050      1.88237051657867      0.76082037650117
  C   0.52642399898031     -0.87741606676357     -1.30708456004497
  H   -0.10941423267241     -1.76238572806758     -1.20410481226290
  H   0.13579916082450     -0.28333536519566     -2.13648043759936
  H   1.54635590569478     -1.16897125367765     -1.52191020446388
  C   0.69354448638132     -0.80386874532666      1.30808204955783
  H   1.75343988665802     -0.97355812610806      1.45980073331210
  H   0.28626920720352     -0.21346240106620      2.13458035039055
  H   0.15814623029551     -1.75708496133428      1.28948546630815
  C   0.43127383693438      2.11277978366458     -1.24402973453174
  N   0.27688278018569      2.68486465436107     -2.25807608599344
