17
Coordinates from ORCA-job run
  C   0.65072245300376     -0.03777843379033     -0.00466581638455
  H   1.65376916958675      1.74744190845434      0.07769142818069
  Br  -2.23284476691379      0.08975748147704      0.22232902201044
  Cl  3.43343170449709     -0.04975577296995     -0.11503147269082
  C   0.60247686456263      1.45628114989643     -0.00799545516672
  H   0.07890517923540      1.77442931927947      0.89945854915193
  C   0.68613928026697     -0.78683028940283     -1.28311028279229
  H   -0.35050934680251     -0.96187972855917     -1.58146699672779
  H   1.17427700713678     -0.18793917907943     -2.04645773971009
  H   1.19817438126186     -1.73754076870384     -1.14709213506361
  C   0.68045594629526     -0.78872650000380      1.27870484813087
  H   1.67414373536215     -1.22466909207283      1.38126169109919
  H   0.45942388772903     -0.14359217734294      2.12716766263596
  H   -0.06286206243519     -1.58482999992103      1.23433226565660
  N   0.05564042440832      1.98828881998525     -1.24369636149515
  H   0.25601119434746      2.97841161554839     -1.29502909778928
  H   -0.95037505154200      1.85349164720524     -1.20417010904538
