19
Coordinates from ORCA-job run
  C   0.40103835346626     -0.09040038907117     -0.04124859140873
  H   1.51220709391200      1.56441469032798     -0.80400456659417
  Cl  -1.68930697909598     -0.15914303360624     -0.33401345391727
  H   2.44646057902988      0.19082682592887      0.32487577255912
  C   0.64878342595798      1.42624842862626     -0.15679304216644
  C   0.88548466856721     -0.96155015824827     -1.19473813012799
  H   0.05105641401183     -1.52125819526155     -1.62592411371758
  H   1.32706584606434     -0.34549319893754     -1.97869562636181
  H   1.64448752736227     -1.65809741620821     -0.84589317379970
  C   0.32106734392551     -0.75898625956497      1.33070121552894
  H   1.31821251762306     -0.97695649715015      1.70133267873310
  H   -0.20295533148303     -0.10621203649768      2.02809423213131
  H   -0.25022951254952     -1.68572909382957      1.23626315211178
  N   0.74099391434370      2.04069911872195      1.14271573529131
  H   0.83216251900114      3.04381029369887      1.03118177006700
  H   1.61485775843845      1.66257355947435      1.50332522477679
  N   -0.41702132000869      2.19800833844273     -0.95948297326637
  O   -1.09194598528833      3.07011880751403     -0.41823931568276
  O   -0.42560883327808      1.96126621564030     -2.16587679415649
