16
Coordinates from ORCA-job run
  C   0.46654993817048     -0.07427861647143      0.00415691556648
  H   1.69309163957718      1.65869276417955     -0.31603954593141
  Br  -1.80465136614565     -0.00804651400766     -0.20307846925815
  H   2.67842726951857      0.02123316470705      0.31048604048904
  C   0.66652922675704      1.45381867671016     -0.03085114163594
  H   -0.02324014050462      1.89288265481535     -0.76158629655852
  C   0.74969531188496     -0.79255412631207     -1.30994947439631
  H   0.23795338743649     -1.75875316337546     -1.31056145610211
  H   0.35163279732833     -0.20859699564222     -2.14557159302160
  H   1.81742618870683     -0.93545278249421     -1.43153815401758
  C   0.46622630116402     -0.88155962680202      1.29899250987104
  H   1.47769398300170     -1.14779476109101      1.57692126026110
  H   0.00762268731696     -0.30174221929151      2.10330490154697
  H   -0.13929733468166     -1.78136637431500      1.15213866569352
  C   0.42447644125443      2.10291763181367      1.25341597775406
  N   0.24839366921496      2.65860028757678      2.27297985973940
