17
Coordinates from ORCA-job run
  C   0.43143636342294     -0.04201803739050      0.02423481857451
  H   1.15795090062996      1.76676427934202     -0.74689278965947
  Br  -2.06375693797035     -0.31795798029855     -0.55964815689273
  F   2.55178786989066      0.22971196603955      0.49050692749784
  C   0.44980029260959      1.47551139414094      0.03922462885108
  H   -0.53776715171073      1.85234704779827     -0.22276156470696
  C   0.85566728425580     -0.74563662283690     -1.23103682314126
  H   0.41584451343441     -1.73983187392684     -1.29056692021683
  H   0.55487414974925     -0.17906671209776     -2.11290430140390
  H   1.94294069726222     -0.79661490932675     -1.16620157079233
  C   0.28531510614121     -0.82244810583763      1.29692983433227
  H   1.29494967024584     -0.93549672421559      1.68990160763839
  H   -0.32763430953503     -0.27257311428206      2.00703427915715
  H   -0.16264909982513     -1.79449863871625      1.09541017660001
  N   0.82929745448377      1.97106891831801      1.35920327187976
  H   0.84516984169645      2.98400937679647      1.32807702637204
  H   1.78127335521913      1.61762973649354      1.45395955591041
