20
Coordinates from ORCA-job run
  C   0.52480464054745     -0.07674621361415     -0.06628444037750
  H   1.59372676469273      1.52975533358687     -0.79720685224930
  Cl  -1.76886160777803     -0.45688300547390     -0.85661024858288
  F   2.53133987964021      0.04640300499653      0.65545507196991
  C   0.67873803382784      1.43988641645465     -0.19666448508882
  C   1.03179325504384     -0.91280056733373     -1.20709599909928
  H   0.56904081704453     -1.89785748307448     -1.20101879477026
  H   0.80145078338843     -0.43661864261916     -2.16142801449861
  H   2.10912554774290     -0.98587494742050     -1.06670581534996
  C   0.13824561292017     -0.71065281233184      1.24181754942817
  H   1.04427441131238     -0.78947617432077      1.83783470556107
  H   -0.59453911060817     -0.09275105287271      1.75536581495148
  H   -0.28715951129911     -1.69674177052986      1.06396055065948
  N   0.87649158991233      2.00299058918226      1.14029393006166
  H   1.06126397409523      2.99514842460323      1.03278829395461
  H   1.73542754346012      1.54356098091061      1.44408971207395
  C   -0.42198131873909      2.21613576846433     -0.90648865134258
  H   -0.63531147686254      1.81163494535351     -1.89415139158903
  H   -1.34149981038444      2.19539016988666     -0.32565547370379
  H   -0.08207001795677      3.25544703615241     -1.01491546200834
