18
Coordinates from ORCA-job run
  C   0.39522409054026     -0.07605272192232     -0.01046847933383
  H   1.45298603779081      1.70297009954288     -0.48397814251524
  Br  -1.89770335579094     -0.20963046058694     -0.30262534125167
  H   2.57878265921627      0.24975441703079      0.56951940761666
  C   0.48222427572614      1.45504999235972     -0.06498479801730
  H   -0.29188286097500      1.81933162403288     -0.75097310146159
  C   0.80081261742828     -0.79343797912722     -1.28691393875624
  H   0.35871891076950     -1.79255031323292     -1.31715898808632
  H   0.44760133879100     -0.23979031543097     -2.16072406406719
  H   1.88571838908291     -0.86590502968153     -1.30600372658617
  C   0.43479565628856     -0.92505358529643      1.25998898545079
  H   1.42193957269998     -1.35486050496020      1.37823877488982
  H   0.22306802418990     -0.31681248639117      2.14023764646914
  H   -0.31821819215352     -1.71775863296079      1.20384606204851
  C   0.33333781560284      2.14292152520591      1.27958435478063
  H   -0.61564399534846      1.88162061834460      1.75631614610048
  H   1.16593526998178      1.84378582609755      1.92050509820809
  H   0.35933374615969      3.23120792697617      1.15300410451143
