20
Coordinates from ORCA-job run
  C   0.61940811875475     -0.06981936585881     -0.01892687536475
  H   1.55101998145926      1.76348881340437     -0.50671669399437
  Br  -2.06624060611534     -0.15275093489782     -0.03849111453939
  Cl  3.06871153765334      0.07354171232805      0.23167411690094
  C   0.58817002467739      1.46349452227579     -0.09397662960016
  C   0.80205609630018     -0.88125367114957     -1.27707443339670
  H   -0.16200629662889     -1.08749918383074     -1.73769545960143
  H   1.42729200944133     -0.35365778992426     -1.99121264451631
  H   1.29070699751072     -1.82010533405588     -1.01297586549275
  C   0.47817611245448     -0.82518715492059      1.29325272396881
  H   1.45604596425331     -1.10052053579145      1.68147328201902
  H   -0.06086567731579     -0.24574010069737      2.03728851903566
  H   -0.09917521293868     -1.72916806866497      1.10899314326191
  C   0.36776302300176      2.14597624948145      1.23468148077721
  H   -0.62707834364271      1.92206163100725      1.61908257420804
  H   1.13432716589720      1.79595470384191      1.92709589081863
  H   0.46483218385346      3.22572276085980      1.12239404893931
  N   -0.35191210004650      2.01812077486477     -1.15031990713434
  O   -1.07567143251426      2.95969641114981     -0.84403760706392
  O   -0.22621954605501      1.57567456057821     -2.28798854922537
