20
Coordinates from ORCA-job run
  C   0.71758245430518     -0.06023454316342      0.01212025355582
  H   1.57992545951791      1.84683564804382      0.47614151856901
  F   -1.35501168891606      0.12560901294785      0.15769868619450
  Cl  2.91344029862443     -0.04223496457387     -0.36753563967936
  C   0.63824751580201      1.47446665254959      0.06916980104993
  C   0.40774499342124     -0.86528499672022     -1.23647403472188
  H   -0.61411658807322     -1.22076167952570     -1.14586391761420
  H   0.50208705270548     -0.26651010421090     -2.14059648788703
  H   1.10720800125528     -1.69765212877466     -1.31515265655760
  C   0.78205602408701     -0.84523920063499      1.29814511753291
  H   1.21590493042868     -1.82582885107904      1.09250724911204
  H   1.39277319085450     -0.34334822599933      2.04429731273039
  H   -0.23800895785245     -0.94649327975781      1.66046419834028
  N   -0.34862547852144      1.98335624371907      1.10237449933726
  O   -1.18402744512389      2.81468400416571      0.76681046141581
  O   -0.14287906812883      1.64744749693226      2.26600827559632
  C   0.35183697744005      2.10996077257928     -1.26962834292848
  H   1.13797353804221      1.82728570089525     -1.97109122511894
  H   -0.62123595470455      1.76557861057708     -1.61440993311071
  H   0.33573474483648      3.19663383203002     -1.18140513581612
