20
Coordinates from ORCA-job run
  C   0.60021768536029     -0.03059492527581     -0.00381244341613
  H   1.66055415200598      1.76397004116417     -0.26262071939351
  F   -1.27695159394453     -0.01901134304546     -0.07448654840337
  F   2.54013816984377      0.02598053277241      0.21877796334102
  C   0.62310582629883      1.50497976313521     -0.06492921156984
  C   0.77497239071625     -0.79241117869353     -1.29447702530000
  H   -0.16054351703455     -1.29284155775439     -1.54453397764546
  H   1.03623442344642     -0.10087337960830     -2.09448394041993
  H   1.58183532257864     -1.51184589319375     -1.16726617216514
  C   0.50284852703544     -0.85018679808922      1.26474804571929
  H   1.48461270684908     -1.24895251336928      1.50405715556534
  H   0.13766375895490     -0.25132319866756      2.09857226852223
  H   -0.21871608866457     -1.65157671942719      1.10321390916428
  C   0.20453021861172      2.13692437208934      1.25898019638255
  H   -0.80839265496598      1.81526831358206      1.50831219387781
  H   0.89236759221203      1.85826174461131      2.06185924632188
  H   0.22048439720763      3.23012058045911      1.16875328223530
  N   -0.17998027209903      1.97500308484120     -1.20524564324006
  H   -0.24800995376307      2.98580458296879     -1.14643785005298
  H   -1.09752109064925      1.56593449150088     -1.05763072952328
