17
Coordinates from ORCA-job run
  C   0.75716358523440     -0.01961568014699     -0.02191028160790
  H   1.60820702858988      1.94453767217602      0.06906534348995
  F   -1.42594309405196      0.08707646783865     -0.07368815452921
  Br  3.33257363585791     -0.09827635043698      0.07385952134017
  C   0.62072924155513      1.49204225661686     -0.00829515728572
  H   0.05394333138876      1.72553399244479      0.90191245316960
  C   0.71558276310846     -0.78672536630182     -1.31046703210606
  H   -0.33769863874888     -0.99882297877052     -1.49042289509606
  H   1.11345844187932     -0.18139196043414     -2.12145583297949
  H   1.28677427056063     -1.70947924438047     -1.22041231572759
  C   0.63563169427551     -0.75586970935475      1.27960023964504
  H   1.15141959637403     -1.71383277648828      1.23706429920659
  H   1.05757522456641     -0.17003079972259      2.09681598116552
  H   -0.43693757826239     -0.88996652075545      1.42300248016420
  N   -0.03849750166424      1.95915614809454     -1.22452101294245
  H   -0.12565328184085      2.96767322802619     -1.17374903456262
  H   -0.96134871882210      1.53255162159496     -1.14416860134397
