18
Coordinates from ORCA-job run
  C   0.54967976488874     -0.05843689948243     -0.00192001648983
  H   1.48477846578772      1.75299067633985      0.44914872910498
  Br  -2.21603155219586     -0.09923732530938      0.45158606869778
  Cl  3.16109764127877      0.07344366501487     -0.61947182860846
  C   0.53049976118423      1.44381286336168      0.01738810331185
  H   -0.25184805874049      1.73532341654472      0.71832261426197
  C   0.43198289090354     -0.89701561262440     -1.23862302956165
  H   -0.58592012372284     -1.27831256063504     -1.30549070902278
  H   0.67504047977775     -0.32824941192780     -2.13136231235340
  H   1.12653451818867     -1.73229739329316     -1.16406242759865
  C   0.75649634414471     -0.76340126758059      1.29952279970389
  H   1.82677028783324     -0.96015486039058      1.39102876620880
  H   0.42147712082762     -0.14609573779578      2.13152198195006
  H   0.20864592313727     -1.70428596968035      1.31079389627690
  C   0.31498961446084      2.11539585216904     -1.32580055461407
  H   1.14204136477697      1.89393602821021     -2.00209847567819
  H   -0.62855052550437      1.78851852521362     -1.76767942124151
  H   0.26667608297351      3.19983601186550     -1.19160418434767
