19
Coordinates from ORCA-job run
  C   0.66256479290059     -0.07889555312811      0.01352218288361
  H   1.80441566497796      1.70371687377624     -0.24385066521038
  Br  -2.02045464588639      0.25751753682691      0.16509417553145
  Br  3.35163864035439     -0.23804311426619      0.01721585248409
  C   0.77678745481158      1.45351064084106      0.01605171426741
  C   0.63015318841647     -0.88703219777809     -1.25817016461789
  H   -0.37542309504488     -0.88855980222089     -1.67531170076753
  H   1.31070731701249     -0.48401876896944     -1.99961001248971
  H   0.92878105490396     -1.90844447552318     -1.01975791856765
  C   0.61381554119463     -0.84026123893769      1.32018076240540
  H   1.44512573671790     -1.54037179043788      1.34786739488661
  H   0.68695782633847     -0.16075764335600      2.16526120291546
  H   -0.31928647137247     -1.39768732027444      1.37568128378838
  N   0.44426460470048      2.03348410494259      1.26198925937212
  H   -0.54772555721994      1.89191251401608      1.42769199301786
  H   0.63904279883254      3.02445488800956      1.24081225513196
  N   0.02019306801199      2.12280045538242     -1.16858992110097
  O   -0.56114883019664      3.17424221833128     -0.92130546946623
  O   0.17640091054682      1.65657267276579     -2.29119222446400
