16
Coordinates from ORCA-job run
  C   0.59686390114951     -0.07229466517944      0.01702885330778
  H   1.46763969073405      1.81901771625387     -0.48727944326899
  Br  -2.05229296926603     -0.10636227241123     -0.03011861983456
  Cl  3.12876975567904      0.10354125042820      0.11464632385712
  C   0.54342205851623      1.45292391651343     -0.04197571548674
  H   -0.29282373621437      1.75690200122291     -0.67115974341279
  C   0.76313837962852     -0.79795044636098     -1.29585825891911
  H   -0.20394218448242     -1.12994898839125     -1.66841058845657
  H   1.23559924329678     -0.14590190089828     -2.03010755263184
  H   1.41441071414976     -1.65829549605251     -1.15001901434505
  C   0.53084252785905     -0.85912103521322      1.30345625093508
  H   1.53661811915919     -1.08695105734219      1.65051273237754
  H   -0.00221745200841     -0.30339800358501      2.07202279840964
  H   -0.00836280938019     -1.78798843686339      1.12143888258583
  C   0.38868296880095      2.08683457586572      1.26181719599765
  N   0.27218179237836      2.62699284201335      2.29722589888502
