18
Coordinates from ORCA-job run
  C   0.64930774832886     -0.05981055925980      0.00531851710885
  H   1.66822995390787      1.76879923758013     -0.07453066971511
  Br  -2.07150845977706     -0.00294416939903      0.14481214364107
  Cl  3.21495385511454     -0.01663320444310     -0.04679722792812
  C   0.61916501783604      1.47199577333054     -0.02130275555213
  C   0.70448558718958     -0.79154502831061     -1.30452521157456
  H   -0.30864570647143     -1.03635215017925     -1.62194059225744
  H   1.17484256992265     -0.17128169100794     -2.06201017985711
  H   1.27863178073919     -1.70785331307261     -1.17575204270744
  C   0.61784730586643     -0.84248267387052      1.29118168066499
  H   1.62643445789927     -1.16415024407050      1.54217554667089
  H   0.20751598750162     -0.25077249457209      2.10738567658467
  H   -0.01621075686312     -1.71757455999979      1.15342422269311
  C   0.11473167725724      2.05160856888731      1.23948615398193
  N   -0.21146744874417      2.64004031123909      2.20341979341467
  N   -0.02228811644070      1.99373986747307     -1.21693101375589
  H   0.14499798223147      2.99152086634018     -1.26666233923234
  H   -1.02007343549828      1.81953546333490     -1.13959170218005
