20
Coordinates from ORCA-job run
  C   0.63566301590275     -0.06926008798985     -0.01664223129834
  H   1.54866355858331      1.77445777394431     -0.50371411161571
  Br  -2.10189585398955     -0.11759100511591     -0.01259803582591
  Br  3.23442872550453      0.08879104353193      0.26097733640598
  C   0.58848435735347      1.46511532315091     -0.09132480772672
  C   0.79362838127510     -0.88054890245899     -1.27716858336538
  H   -0.18655747560850     -1.05780511119689     -1.71778034998226
  H   1.41717966807413     -0.36538992661055     -2.00167538801108
  H   1.25717802225923     -1.83465521718003     -1.02210359015355
  C   0.47590846215009     -0.83703595635070      1.28591023925586
  H   1.44462167817854     -1.17219084964834      1.64920549003830
  H   -0.01522220320251     -0.24267823995038      2.05125440972996
  H   -0.15228917893909     -1.70525329333660      1.09643112330308
  C   0.35611315974293      2.14863012316580      1.23481611430842
  H   -0.63562681749141      1.90884192040547      1.61745457942625
  H   1.12799244433484      1.81401107575756      1.92926746527550
  H   0.43519959149997      3.22931203994275      1.11828163683277
  N   -0.35088967007533      2.01157200374856     -1.15588207859410
  O   -1.07513997684275      2.95451920240591     -0.85697439749012
  O   -0.21809988870976      1.56518808378506     -2.29121482051296
