19
Coordinates from ORCA-job run
  C   0.43665258516210     -0.07027766827815      0.02261200659793
  H   1.72188790265968      1.62201872023953      0.22853529220292
  Cl  -1.67604375396824      0.05299895485092      0.10240634543342
  H   2.61445874392942     -0.03458961605045     -0.22602032496669
  C   0.66874018666556      1.45597746733185      0.03008874055160
  C   0.57703842534514     -0.81931957830121     -1.30516028921065
  H   -0.36931437212704     -1.30899349313297     -1.56558278766977
  H   0.86154440231906     -0.13068889198232     -2.09636320500228
  H   1.36058145971330     -1.56308650915477     -1.21314112369809
  C   0.61361471512303     -0.90598906563880      1.28338084238947
  H   1.66636458349295     -0.97495498148513      1.53401314714195
  H   0.05326107095937     -0.49634540361472      2.11926766926056
  H   0.22040823744915     -1.90410659837859      1.06958656348378
  N   -0.00803630516720      2.14832848432678      1.24719712055985
  O   -0.74978138087242      3.10856838913235      1.03731855203308
  O   0.35579499375435      1.79223863814386      2.36723267574747
  N   0.27625708301857      2.06455599936115     -1.18973113595180
  H   0.46788415830513      3.05593894505342     -1.15311417337181
  H   -0.72008273576191      1.93478620757726     -1.31791591553092
