20
Coordinates from ORCA-job run
  C   0.50958717495429     -0.07445590986114     -0.06735304800203
  H   1.59096720570446      1.51092505444156     -0.81253673201727
  Br  -1.97514392467643     -0.51931092975897     -0.89791526843320
  F   2.58600250911384      0.06054039529782      0.66027152319453
  C   0.68124172792402      1.43622118376068     -0.20173831629016
  C   1.02110436761904     -0.91764240209475     -1.19575685423959
  H   0.56185379965004     -1.90385825476798     -1.19045875356151
  H   0.81893517828891     -0.44360199432460     -2.15741018664926
  H   2.09607095510326     -0.98086359086605     -1.02108782511876
  C   0.14838642805640     -0.69846887244350      1.24800121012230
  H   1.07683913438246     -0.75467102768554      1.81393646161873
  H   -0.57150005632538     -0.07902574603244      1.77754538203646
  H   -0.26682695060718     -1.69205817676618      1.09073150863813
  N   0.90051295343746      1.99868782877401      1.13032140729019
  H   1.07795014624646      2.99186014144868      1.02122556577324
  H   1.76752406050386      1.53923515693780      1.41571927215125
  C   -0.41742891889977      2.22184933854133     -0.90667340168260
  H   -0.64205774410449      1.81619139574828     -1.89151505358815
  H   -1.33250649253720      2.21149060783718     -0.31808844788733
  H   -0.06721155383405      3.25690580181382     -1.01983844335497
