16
Coordinates from ORCA-job run
  C   0.54848782874016     -0.07132280169611      0.02757710209785
  H   1.56473126232315      1.83075470982066     -0.24815376413821
  F   -1.16085616039104     -0.04061604100262      0.03303712224661
  H   2.50053945550224      0.01942994408738      0.05840666396206
  C   0.56683565525605      1.46429769935964     -0.02934955771962
  H   -0.13080019140851      1.76800335428338     -0.81677687766029
  C   0.73423380328634     -0.79067527435114     -1.29669238110083
  H   -0.25400610453223     -1.04631099657928     -1.69781245683488
  H   1.26811778550686     -0.16354120912026     -2.01056450692028
  H   1.32809751428163     -1.69320485144553     -1.16011582156411
  C   0.62346692383587     -0.88070530034092      1.31250587261616
  H   1.56953647380143     -1.40484947688233      1.38902137929551
  H   0.51974838958416     -0.22383806593863      2.17948245154998
  H   -0.21836851725008     -1.58048395952367      1.32166491612490
  C   0.09993295008533      2.08408905242331      1.20857663824155
  N   -0.24116706862136      2.62697321690611      2.19241321980360
