18
Coordinates from ORCA-job run
  C   0.69366104901388     -0.04997743187699      0.02678522391297
  H   1.32772256552750      1.92393191508486     -0.50362566204033
  F   -1.42627375096553     -0.16746224131867     -0.12648746395019
  Cl  3.00334289403894      0.14379006287617      0.33661732507003
  C   0.45409316602673      1.44542738136545     -0.05812585111968
  H   -0.39354527323908      1.54939061384019     -0.73329938862173
  C   0.81857470401242     -0.78300621485765     -1.28148428185480
  H   -0.19957738177406     -1.02546641304981     -1.58077351363273
  H   1.29675879359059     -0.14709678137347     -2.02854670326101
  H   1.41957080128896     -1.68531564842027     -1.16706955561717
  C   0.54583393683578     -0.86630816785667      1.28871058525457
  H   1.23284267074402     -1.71210285718485      1.26425893687289
  H   0.78261217139592     -0.27384156122083      2.17121996721918
  H   -0.48692029426977     -1.20274354032138      1.32398962079950
  C   0.10792053876482      2.09647583816305      1.26867650344159
  H   -0.78621459763688      1.61664083176294      1.66779099169474
  H   0.93033597021900      2.01084596848463      1.98337953742520
  H   -0.10370796357325      3.16160824590330      1.12539372840698
