17
Coordinates from ORCA-job run
  C   0.53011055993071     -0.05849313089160     -0.01686004701379
  H   1.74178937068656      1.66414432592039      0.07939838537776
  Br  -1.86898159893045      0.04326213294696      0.05760605418970
  H   2.84349541526124     -0.08638592311428     -0.04788071664961
  C   0.68067976342190      1.46515532019060     -0.00372111002458
  H   0.17530052016718      1.82388323478835      0.90665053812836
  C   0.59473519179211     -0.84660920878260     -1.31064298878050
  H   -0.08797807141771     -1.69894663209391     -1.25873523421727
  H   0.30251877417226     -0.20235111460206     -2.13953637482154
  H   1.61243269450208     -1.18905896297259     -1.45611815113565
  C   0.64211348088350     -0.80817876194294      1.30022150966360
  H   1.68134975881437     -1.05689505213250      1.47819199026474
  H   0.26201630211652     -0.18883202276896      2.11725190932659
  H   0.03609683747718     -1.71713759207085      1.25754125447927
  N   0.18770158126535      2.09630222391386     -1.22767545608172
  H   0.49861520770796      3.05991518953348     -1.23687572312504
  H   -0.82501578785075      2.08478597407867     -1.20658583958031
