19
Coordinates from ORCA-job run
  C   0.43192457732867     -0.06600601749707     -0.03861919802641
  H   1.55615657837149      1.59494610403951     -0.64036598584760
  Br  -1.88671312786378     -0.31612960964433     -0.46386931259001
  H   2.51703835635881      0.21652842205046      0.60734256849082
  C   0.59866013761144      1.47160704267109     -0.13276942859548
  C   0.87887699364786     -0.82184616831516     -1.27707558008413
  H   0.44066429615024     -1.82219287962172     -1.28773130477604
  H   0.52968803969610     -0.28700058655246     -2.16344628955771
  H   1.96340189302057     -0.89643219747513     -1.28690886689086
  C   0.30031103466829     -0.82019057721203      1.28707802153072
  H   1.27811479873277     -1.06321080494413      1.68457367446686
  H   -0.24227288089110     -0.19919547728344      2.00071740780810
  H   -0.27286895933154     -1.73593963971228      1.12730521620172
  N   0.63368872099940      2.02862871347965      1.22187680840357
  H   0.83220828819188      3.02166099725171      1.12756984693370
  H   1.46946534749625      1.59333212233500      1.62308501487658
  N   -0.36237535070877      2.15307337742261     -0.99416450961700
  H   -0.04095704823258      3.11053902924034     -1.10522472202732
  H   -1.26809169524603      2.16656814976736     -0.54096336069951
