18
Coordinates from ORCA-job run
  C   0.65035919986401     -0.08858993341890      0.00436959742028
  H   1.49696958752426      1.72890266176043     -0.61411823221029
  Cl  -1.95424938100604     -0.24187893852043     -0.19064651700987
  Br  3.17361957332514      0.12410931758915      0.40864878241157
  C   0.57957293967998      1.44789880235485     -0.08384554932464
  C   0.86223976480342     -0.83148301920835     -1.28742196596458
  H   -0.10658179528995     -1.11139630238022     -1.69833451720331
  H   1.39895995365943     -0.21148590812872     -2.00683118027334
  H   1.45139178692099     -1.72976594808597     -1.10250044933507
  C   0.39564828524677     -0.84178130647644      1.29263645622134
  H   1.33020120420589     -1.13378448105787      1.76689947345366
  H   -0.18244636785709     -0.21426098871017      1.96556450174659
  H   -0.18557803777997     -1.73312500914907      1.06776665670908
  N   0.51876850784351      2.04078794786257      1.24811792551076
  H   0.37941806764286      3.04035700821816      1.15375914011273
  H   1.43347532115289      1.88723044779952      1.66393300624826
  C   -0.47959064092916      2.01151040565822     -0.93433667394209
  N   -1.09500796900694      2.69942524389326     -1.66312045457109
