17
Coordinates from ORCA-job run
  C   0.56283890745949     -0.03990293734505     -0.02632731487668
  H   1.64800720107510      1.81439762813105     -0.01708500537956
  F   -1.17819403106903     -0.01808845550825     -0.06380715456156
  H   2.57600180441269     -0.12873444518524      0.06469784175593
  C   0.61403282523517      1.48718021829745     -0.02275876981876
  H   0.13066546093160      1.80114991823918      0.91788453692682
  C   0.74281080122673     -0.79076090513902     -1.33525104018107
  H   -0.24118778364406     -1.02715272973392     -1.75502355030256
  H   1.29803029584714     -0.18193112473802     -2.04450724086011
  H   1.30669114156592     -1.70680377199925     -1.16737023657418
  C   0.65667354195369     -0.76445062859575      1.30802207551058
  H   1.23058160957198     -1.68303434727270      1.20027898825942
  H   1.18242028216803     -0.15188140547444      2.03966398474823
  H   -0.35419495212979     -0.98503631932995      1.67135063740359
  N   -0.06149000506614      2.03762340582616     -1.20682155099186
  H   -0.10060431188658      3.04668498895586     -1.11362210134407
  H   -1.00610278765197      1.67530091087191     -1.15709409971412
