18
Coordinates from ORCA-job run
  C   0.56211732766061     -0.05296090109532     -0.00599552409248
  H   1.44281099842447      1.81131633223789      0.46239063549142
  F   -1.30668657392228     -0.10881808576400      0.34782610976697
  F   2.39074851966492      0.07878913545533     -0.46923874404287
  C   0.50299263403143      1.46587330024430      0.02953954124265
  H   -0.32314252537680      1.73986126098513      0.68457258672412
  C   0.36245695550610     -0.91551805830542     -1.23374813977311
  H   -0.58873073477033     -1.43671891848109     -1.15489622133373
  H   0.36677068674898     -0.31224061758482     -2.14196812359887
  H   1.19337097315739     -1.61627248639643     -1.30561901990449
  C   0.83144139781894     -0.76333308954658      1.29889401056347
  H   1.88549869750062     -1.03051326297486      1.35209480513627
  H   0.56771491049595     -0.11035195106871      2.13409094759507
  H   0.19870189105902     -1.64871190546760      1.36571324134129
  C   0.31592071358306      2.11132606276593     -1.33262255881383
  H   1.14647194599574      1.83394216395735     -1.98392045552862
  H   -0.62689346719180      1.78589597465118     -1.77884073766108
  H   0.29279564961397      3.20420504638771     -1.24707235311216
