20
Coordinates from ORCA-job run
  C   0.66226332183532     -0.04424433269729     -0.00462860537533
  H   1.66361060576472      1.78643732570404     -0.21502638079690
  F   -1.20976562980132     -0.16041988056692      0.00644729811407
  F   2.54356229930610     -0.07412303560579      0.07776728556336
  C   0.62493110084900      1.48716382883611     -0.06637828307109
  C   0.75531530293035     -0.82798996602983     -1.30207428921059
  H   -0.21669344571315     -0.87289903345156     -1.78894851639904
  H   1.50137140112693     -0.37495860060382     -1.95415118646827
  H   1.09598800241966     -1.83916183067747     -1.06946286524311
  N   0.65458297185538     -0.69886501671418      1.28121934237115
  H   1.51608390640394     -1.22429117656698      1.31973169438783
  H   -0.16265681543542     -1.29217004029731      1.28743289109680
  C   0.13305532419635      2.07575822478018      1.24922459028387
  H   -0.87141071830563      1.70141519468223      1.44822999361894
  H   0.78190201040861      1.76896855214319      2.06944573013726
  H   0.11589187524588      3.17176032854665      1.19282200812764
  C   -0.20062206993066      2.02217388877611     -1.23643702523823
  H   0.13804240906787      1.60841653300212     -2.19072168728121
  H   -1.24654068577278      1.75552817817959     -1.09976368552940
  H   -0.09627116645117      3.11302085856093     -1.29500830908777
