19
Coordinates from ORCA-job run
  C   0.56279004371999     -0.09416306570460     -0.04213962185535
  H   1.58304048395775      1.74479701815589     -0.44811922024725
  F   -1.08486678022527     -0.27824734108554     -0.20405314854596
  H   2.44312845311098     -0.01220240565581      0.20325001042030
  C   0.57479383202885      1.44736938786727     -0.18304472510672
  C   0.93621082402556     -0.84455816647262     -1.31923988749491
  H   0.03660076882775     -1.02739759455799     -1.92112256614383
  H   1.67174049428401     -0.28849643483562     -1.89959693643431
  H   1.39448458664968     -1.79680366508601     -1.05348643137569
  N   0.54593836697799     -0.66699540688890      1.28795954645842
  H   1.44191126043705     -1.09367797156830      1.45221435568626
  H   -0.22528331421477     -1.32235210377987      1.33054156789902
  N   0.35692308513941      2.05922673592002      1.16430446890379
  O   1.34034726314142      2.51226661943655      1.75037684008744
  O   -0.78930952510685      2.09052242269873      1.60849957669073
  C   -0.44697155337017      2.03550839361989     -1.14495061309938
  H   -0.32707050723381      1.57003642726371     -2.12601753063345
  H   -1.45525917682189      1.84809525870419     -0.79214185901477
  H   -0.27472860532766      3.11302189196902     -1.25025382619435
