18
Coordinates from ORCA-job run
  C   0.69033144255186      0.05715839972287     -0.00765752734427
  H   1.74457008972576      1.88559111264253     -0.25857302312191
  F   -1.14349333254088      0.07093782795895      0.16282095817282
  F   2.62288048233822      0.01477117648467     -0.08489250457984
  C   0.70809809267222      1.59440573008160     -0.11089769112067
  C   0.67856862091059     -0.80140121968316     -1.25489755909981
  H   -0.32281170810800     -1.19674295298752     -1.42494749412973
  H   0.98446434892721     -0.19868144405588     -2.10819027144148
  H   1.39644067833745     -1.60974300995717     -1.12722783887306
  N   0.80437366492148     -0.52817254259501      1.30342541668075
  H   1.69343274859235     -1.00878128843496      1.29180028992581
  H   0.02628575225628     -1.16472697244759      1.40692250650513
  N   0.22561144250554      2.23926829358811      1.11293421424085
  H   0.84134834711413      1.91711094820708      1.85458598826967
  H   -0.65341351743004      1.75938347380347      1.29509134560033
  N   -0.07051079068719      2.01196832371227     -1.27271462549990
  H   -0.18120103493948      3.01676861835844     -1.18636230109808
  H   -0.98224532714750      1.58730552560130     -1.13340988308661
