17
Coordinates from ORCA-job run
  C   0.43912954030005     -0.11715953261917     -0.11614378742813
  H   1.54048027131369      1.58627361312288     -0.87427583340525
  F   -1.11015773244688     -0.12711343145258     -0.59108413932468
  H   2.17837858213771      0.11698175487890      0.42985132048354
  C   0.70517579747081      1.38442947890806     -0.21220062709391
  C   1.00374313196319     -0.99693108588850     -1.22911347197824
  H   0.17655595710819     -1.47942387909519     -1.75876013914910
  H   1.57425513433240     -0.39731371626223     -1.94158888898354
  H   1.66876902182680     -1.75493586431752     -0.82020360755593
  N   0.15174186844884     -0.65229542696583      1.19525706904132
  H   0.97514472459178     -1.10874190383893      1.55363815644276
  H   -0.62643421435558     -1.29237430861028      1.09896890621664
  C   0.89486729215165      2.03460312380234      1.07920494342030
  N   1.02494458654975      2.66768779490399      2.06127936605630
  N   -0.46778361994691      2.15082183495495     -0.93694838515988
  O   -1.35891869895014      2.67638961109768     -0.28180498574143
  O   -0.38324164249539      2.16802193738147     -2.16434589584078
