16
Coordinates from ORCA-job run
  C   0.57210258985807     -0.18406362489834      0.16716166797295
  H   1.55337212486756      1.23083055853358      1.45671398904186
  Cl  -1.46719951201414     -0.17715335670668      0.64632749753296
  H   2.62301192706492     -0.14822509596073     -0.10484106997561
  C   1.01475847510030      1.23621348941820      0.51618586222443
  H   1.60234886711710      1.66489968548978     -0.28573973203414
  C   0.37311338427674     -0.50027221984190     -1.31480689018525
  H   -0.16678218455332     -1.44515024513524     -1.41018560435069
  H   -0.23731642954112      0.27935926014855     -1.77585215692515
  H   1.33345626131482     -0.57566682901303     -1.81608867445218
  N   0.90430284581013     -1.21799919648989      1.13153037160498
  H   1.82631773346650     -1.54432540822961      0.88914590710760
  H   0.21356537540386     -1.95682902819482      1.07182717599664
  N   -0.11423070007444      2.25599754116363      0.70141687633207
  O   -0.63255939549250      2.70484704783418     -0.32208075658064
  O   -0.37364136260450      2.64443742188231      1.83935553669016
