18
Coordinates from ORCA-job run
  C   0.50957704624972     -0.01394365944936     -0.05843663039236
  H   1.53141330849377      1.67394055921549     -0.91952931487726
  F   -1.12409444065446     -0.08648744020358     -0.35082214753521
  H   2.30422272293684      0.14015345234199      0.35453477020254
  C   0.69048963316159      1.50796481087458     -0.25418585923063
  C   0.94589966711197     -0.92133988049455     -1.20340273112122
  H   0.07437986952006     -1.20814010600821     -1.79932572434376
  H   1.66999236633383     -0.41288127634399     -1.84053685807651
  H   1.42886446993335     -1.81468663300972     -0.80562629115165
  N   0.32752734137766     -0.49295063788945      1.30260198267015
  H   1.17660734524370     -0.95464482775572      1.58744450400883
  H   -0.46293999373443     -1.12601107388332      1.29018724327100
  N   0.84273630303540      2.28562105607356      0.94721811119700
  H   1.68207598921774      1.87937455896257      1.35460188298283
  H   0.08480592507208      1.99966972990949      1.56071382260925
  N   -0.48510124366375      2.10365251256334     -1.02175274283680
  O   -1.39087878267122      2.65946643536880     -0.41270685905210
  O   -0.43295752696387      1.99306241972808     -2.24799715832410
