19
Coordinates from ORCA-job run
  C   0.41233130445639     -0.12850040933604      0.05329783323213
  H   1.57893505949796      1.51894358396084      0.69348642762546
  Br  -1.79738490575421     -0.33953931491839      0.56443902310571
  H   2.49949312586492      0.03984570104469     -0.45421694989692
  C   0.64967118539025      1.39575640336846      0.15276866412319
  C   0.24075454090948     -0.79298850926414     -1.32325371459568
  H   -0.12874349210048     -1.80826495420759     -1.15998740870595
  H   -0.50588046395549     -0.27334370606244     -1.92654947612785
  H   1.19033242445168     -0.83507313231001     -1.84511236772824
  N   0.89794028020492     -0.88618608154765      1.18486711628687
  H   1.85670214663802     -1.11948454373163      0.97205989881348
  H   0.32970313287424     -1.71681010953018      1.29697861453687
  N   -0.33598038462730      2.13238708153128      1.06424948661776
  O   -1.20360134193370      2.84988682149887      0.56546111350286
  O   -0.14581582562585      2.01671932511795      2.27307675454957
  C   0.67554075810629      2.10396534046139     -1.18443859690543
  H   1.45843844136480      1.64294997650128     -1.78373732321377
  H   -0.29000300311012      2.03190192021073     -1.68578699302971
  H   0.90198701734821      3.16378460721262     -1.04462210219035
