17
Coordinates from ORCA-job run
  C   0.64505267055079     -0.00378888816498     -0.00415016916966
  H   1.78683744546206      1.73636317912567     -0.16664358922538
  Cl  -1.67404126647621     -0.02639562914405      0.08571672463029
  F   2.66403719592836      0.00810785105819      0.01689692237686
  C   0.71909918741131      1.54045722305903     -0.06097543984100
  C   0.65486498971859     -0.82774283761091     -1.27156807516794
  H   0.21908832499259     -1.80758084263729     -1.07210213049491
  H   0.06382310305335     -0.35291717752081     -2.05348938772105
  H   1.69138533723324     -0.93326702535754     -1.58246264516860
  N   0.75757904011963     -0.57826317982942      1.30119118970071
  H   1.72213850487111     -0.89058630488421      1.33646616603457
  H   0.10493851695100     -1.34502405410592      1.38511560240053
  N   0.24711274271554      2.23271100300061      1.12661326386686
  H   0.76692108705855      1.82141950996617      1.89522039919522
  H   -0.71309920707953      1.92896604392243      1.26376029731305
  C   0.07349849920976      2.08878778096471     -1.25904381811578
  N   -0.35625617172015      2.56910334815834     -2.24060531061379
