17
Coordinates from ORCA-job run
  C   0.47333231803403     -0.07860844152942     -0.01216100526700
  H   1.23265513900616      1.83841065315783     -0.59680394918810
  F   -1.21296377464821     -0.34450726453776     -0.16947635711617
  H   2.33959173347564      0.16613265539735      0.27604310129099
  C   0.35693138625164      1.44211903555325     -0.08401444681223
  H   -0.53649340417216      1.67562345839451     -0.67658887503046
  C   0.86870474820146     -0.79514220258751     -1.30022969232250
  H   -0.03568022145971     -1.02988309472187     -1.87343040852943
  H   1.54025026952493     -0.17460494165477     -1.89323678680786
  H   1.39979778730130     -1.71937055694815     -1.06793283063903
  N   0.47190402059150     -0.76028049165948      1.27574696124457
  H   1.39451810908280     -1.14064911130104      1.41179056426440
  H   -0.23520311252457     -1.48376803903482      1.21218563382060
  C   0.23615202091596      2.07758844376275      1.28936272673243
  H   -0.62987856326073      1.67168847371344      1.81404095008180
  H   1.12860526517794      1.84069818105342      1.87182689893705
  H   0.13061627850205      3.16702324294226      1.20968751534091
