18
Coordinates from ORCA-job run
  C   0.43810827524630     -0.02737536269570     -0.04653180336829
  H   1.54532181440133      1.62385556604441     -0.83889382616737
  Cl  -1.64007428370885     -0.19125006067119     -0.20745451284917
  H   2.46899756250829      0.14588775720842      0.30116946839875
  C   0.65881759211471      1.50069049033533     -0.22864848839934
  C   0.86814451005675     -0.90762942161244     -1.22222350077646
  H   0.02537302724299     -1.14613803439743     -1.87568469383651
  H   1.63825787319705     -0.40560563232121     -1.80441521815878
  H   1.29622488125803     -1.83432287956224     -0.83811294315394
  N   0.44367002080731     -0.50611892221560      1.33137305977279
  H   1.39268763059398     -0.79594383858676      1.51572554984335
  H   -0.20853634999885     -1.27573858594736      1.41693854150721
  N   0.78414213743156      2.25943672379110      0.97776322527484
  H   1.64296536188971      1.88974247325310      1.37851875679770
  H   0.04083463753908      1.95471629351892      1.59942533958841
  N   -0.42106617440503      2.14728844097477     -1.09308012810777
  O   -1.24755680624844      2.89617721697905     -0.58759111200213
  O   -0.35369170992587      1.88414777590483     -2.29529771436328
