20
Coordinates from ORCA-job run
  C   0.52451509762886     -0.08275808748751     -0.01161022950186
  H   1.60805812542692      1.66513201769679     -0.25250399860807
  Br  -1.85456677632710     -0.42248240357833     -0.04220069671800
  H   2.70718152659087     -0.08213115142908      0.15727789993208
  C   0.55530758296886      1.45124687053169     -0.07427372450726
  C   0.78551460258600     -0.83587057656764     -1.31716306407136
  H   -0.06979836852131     -0.78296026930877     -1.99397528213123
  H   1.67051222703103     -0.42881300019008     -1.79886723299978
  H   0.98612207601827     -1.88391506864609     -1.08840216288059
  N   0.61407909578342     -0.70957967924793      1.29333172684483
  H   1.60444415972978     -0.87632090382022      1.40942909170330
  H   0.10407697160670     -1.58517160475372      1.26472544158596
  C   0.17439238806632      2.09342640223461      1.25223312281783
  H   -0.84362585901831      1.81586600189932      1.53358268722702
  H   0.84707298337481      1.76210924760314      2.04337719507810
  H   0.23627010041171      3.18483291148235      1.16390934118143
  C   -0.22654041804879      2.07213473198459     -1.23649170385551
  H   -0.03449893620222      1.55719485082325     -2.18120636098505
  H   -1.30105573308792      2.05598992758123     -1.05527325980916
  H   0.09517915398208      3.11358978319240     -1.35617879030266
