19
Coordinates from ORCA-job run
  C   0.55970244929391     -0.00890311395169     -0.08504866132822
  H   1.53555602789586      1.69731210393714     -0.87790074060900
  F   -1.08794236396125     -0.25529951674524     -0.47510705698840
  H   2.34571561037443      0.16643221116381      0.44458472280065
  C   0.62725329543340      1.52805646302109     -0.29422362059127
  C   1.08799512326355     -0.89664176972090     -1.20943737360840
  H   0.29132429906057     -1.09879213031155     -1.93335835333049
  H   1.93833349309671     -0.42864443332394     -1.70490793771604
  H   1.43758652079353     -1.84416052567648     -0.79328744178431
  N   0.30725305571580     -0.51186599167276      1.26312306716543
  H   1.16716753078113     -0.91184573738220      1.60323814371284
  H   -0.42472938110698     -1.20631113511609      1.17754090469552
  N   0.79680059349639      2.26262070191933      0.96005492859815
  H   1.64952606343523      1.84862534806989      1.34086766417456
  H   0.06775727686978      1.90449777721481      1.57382576383990
  C   -0.54264123470481      2.14462484062782     -1.06062448668668
  H   -0.69422608113444      1.65113524780833     -2.02270117605590
  H   -1.47158653112507      2.05165338107728     -0.49841415324814
  H   -0.32073574747776      3.20513627906136     -1.22144419304021
