16
Coordinates from ORCA-job run
  C   0.57702180787952     -0.03149569251746     -0.04049745493282
  H   1.29424889756449      1.75725382674648     -0.83046808025296
  Cl  -2.42411145186292     -0.43952695700715     -0.80424829764690
  F   2.79721565456484      0.35088702271331      0.98201371501598
  C   0.57073230490399      1.46802111295500     -0.06558891537608
  H   -0.43334321653583      1.72290274466891     -0.42641211405768
  C   0.72204975382631     -0.77282851103459     -1.31164295348635
  H   0.28082221088493     -1.76620672733384     -1.26037984497854
  H   0.25118657668240     -0.23206114358172     -2.12829518941662
  H   1.80713940574933     -0.83274012414707     -1.45735256726996
  N   0.44292984643610     -0.66258382101937      1.07543307072130
  H   0.77590893548965     -0.16523162631006      1.88848603494147
  H   0.48413209168507     -1.66777966860374      1.08673178506087
  N   0.90372353359640      2.14641768204690      1.16475293726687
  H   1.78671127165945      1.68080783884707      1.43668861294405
  H   0.17394237747629      2.01274404357732      1.85464926146739
