15
Coordinates from ORCA-job run
  C   0.67379476962275     -0.15058483566588     -0.07136734341441
  H   1.15365386324466      1.71232561968119      0.83905992343396
  Br  -2.62247055717555     -0.19942180637494      0.44890883921325
  F   2.88266685361144      0.31150699200657      0.10140720003911
  C   0.58095044542620      1.33910023956871     -0.00554080271591
  H   -0.49321945826795      1.53867722391815      0.13092150530137
  C   0.22992504633841     -0.83936918727944     -1.30442440350165
  H   -0.09212662868125     -1.85916880864442     -1.09773027157107
  H   -0.58872663254326     -0.30347405429845     -1.77790911166179
  H   1.11013697344199     -0.84422399068656     -1.95710635069970
  N   0.97310602204134     -0.80452329244137      1.01434178551998
  H   1.81041897078692     -0.36020274234332      1.41496974554519
  H   0.96903345456474     -1.81087757037502      0.95624006415502
  C   1.05853161162639      1.97201322019889     -1.22914173010322
  N   1.37736526596319      2.51439299273593     -2.21886904954013
