18
Coordinates from ORCA-job run
  C   0.56660750115693     -0.05897201024916     -0.04223832824208
  H   1.53790217203956      1.85329865136433     -0.33822383170182
  F   -1.09954795869841     -0.22415946249787     -0.05639448827681
  H   2.50477426416213      0.03473964466389      0.03130730984252
  C   0.53919717141050      1.48114550824534     -0.14627347237724
  C   0.82945522196946     -0.79524385667876     -1.35117322564167
  H   -0.12331406633741     -1.00453797740564     -1.85110683116778
  H   1.46481456144705     -0.20386498765372     -2.00619739627334
  H   1.35311376845270     -1.72678599104172     -1.13916745982908
  N   0.66019066844044     -0.64816148800764      1.27556113511852
  H   1.58912628474548     -1.02286407216115      1.37126539705114
  H   -0.06077332604678     -1.35717181184160      1.33781752084215
  N   0.21736670634812      2.03636140202873      1.24503306821001
  O   1.16552301150877      2.32905854891657      1.96860870158850
  O   -0.96541077821976      2.19400092760972      1.54603525343698
  N   -0.38864948448799      1.94084703170434     -1.13078608756174
  H   -0.41687873537963      2.95238315594548     -1.13745270883571
  H   -1.29645698251116      1.56466678705887     -0.89260455618254
