16
Coordinates from ORCA-job run
  C   0.48154434217746     -0.13051529012085     -0.00145234207774
  H   1.63714400555344      1.61937114762081     -0.08112841566960
  Br  -1.74814011685623     -0.27454058315767      0.10772496693684
  H   2.58536128697956     -0.03057273563376     -0.02795335640403
  C   0.56080643584720      1.42240815583605     -0.01024607411807
  C   0.72856028351745     -0.80415939056851     -1.35818968604999
  H   -0.19778243898651     -0.89247515382467     -1.93419835545953
  H   1.46472410086742     -0.25249356407397     -1.93670145660792
  H   1.13957807338927     -1.79780991347147     -1.18004125580431
  N   0.72090997811861     -0.73537801604550      1.29155565048983
  H   1.68454275610325     -1.03293341824561      1.29755471997237
  H   0.07640106720629     -1.50308605385883      1.43642447380700
  C   0.07709423969968      2.03297661082722      1.22750981694983
  N   -0.23509332741374      2.61071577269865      2.20147559923382
  C   -0.08861793002721      2.02902712113086     -1.17595091463185
  N   -0.50002275617598      2.54691531088722     -2.14769337056665
