20
Coordinates from ORCA-job run
  C   0.53818525934126     -0.07364507536613     -0.02860315631810
  H   1.58944999975161      1.72019224850356     -0.42451097586368
  F   -1.15016119013012     -0.21645258570500     -0.25687730492852
  H   2.40158705021834     -0.02190827482129      0.35288859715113
  C   0.57091211025921      1.46637053757506     -0.13018514999528
  C   0.93248681134778     -0.84099044723686     -1.28776274370293
  H   0.05217801450784     -0.98462714143382     -1.92549534339346
  H   1.71118599860952     -0.31015475312805     -1.83539516245577
  H   1.33825130587768     -1.81530723643415     -1.01160950373498
  N   0.41864112309786     -0.72771117451023      1.27027281660466
  H   1.29577509989245     -1.18780906286152      1.45170117181556
  H   -0.34844845416288     -1.38601377603160      1.19078585866037
  C   0.30497784615313      2.09482379584967      1.22738325391827
  H   -0.67594743733158      1.78262854576047      1.59297964287779
  H   1.05547094472355      1.75609795391193      1.94284400517809
  H   0.33266223466060      3.18992309244305      1.15713524991227
  C   -0.37425600887088      2.04536118018910     -1.19063288612522
  H   -0.25962834787813      1.53304880273424     -2.15040235005154
  H   -1.41641153121883      1.95148520011590     -0.89008424737431
  H   -0.13427082884841      3.10620817044568     -1.34471177217437
