15
Coordinates from ORCA-job run
  C   0.62433856051165     -0.14378265646040     -0.05881163436660
  H   1.58897358211788      1.67912887801841     -0.14957202354117
  F   -1.53621857794142      0.07866915784935      0.58761892525868
  Br  3.92333508756620      0.16323238750947     -0.25877672390294
  C   0.54525642949747      1.34829988785351     -0.03673905469217
  H   0.13215145086384      1.68671331945511      0.90945831950799
  C   0.86877961987751     -0.82625192421797     -1.34985960505074
  H   -0.12585878475644     -0.96023798565497     -1.79001689538638
  H   1.49445091231418     -0.22087402869571     -2.00049133320857
  H   1.34864263812427     -1.79318740689728     -1.20433707624494
  N   0.64608060406314     -0.78420706436192      1.07425434048752
  H   0.76832048345353     -1.78391583234538      1.03420017359035
  H   -0.12733822716522     -0.42432482859859      1.64820197499554
  C   -0.26769312719326      1.86882349239126     -1.12975843249265
  N   -0.86018065133335      2.32808460415511     -2.03161095495391
