18
Coordinates from ORCA-job run
  C   0.54535986196860     -0.09150553066368      0.02596846057782
  H   1.57861978784098      1.71553943771025      0.42219674198891
  F   -1.07244228176587     -0.20612598427016      0.46943857960151
  H   2.31513913489883      0.09013531365308     -0.59242135279786
  C   0.57625918788935      1.44944964237617      0.09285232134726
  C   0.36351016546337     -0.89832293664685     -1.26251048092938
  H   -0.64014427529356     -1.33903134369136     -1.28550338812837
  H   0.50908476500392     -0.28306886557415     -2.14900984868977
  H   1.11500039371860     -1.68421054012886     -1.30102095920040
  N   1.03577652086160     -0.73091725857754      1.23078613481024
  H   1.90153091529995     -1.19605582674003      1.00618944457699
  H   0.32272919065125     -1.39311170745641      1.51358096817967
  C   -0.34525432459163      1.99995866716891      1.10505215167998
  N   -0.97149179705551      2.58326977677581      1.91088386632992
  C   0.30660362069100      2.11308931900912     -1.25238476478415
  H   1.09493536732049      1.80681205337526     -1.94326238906536
  H   -0.66851111715873      1.80634608636440     -1.63757710287162
  H   0.31743488425735      3.20247969731607     -1.15772838262538
