16
Coordinates from ORCA-job run
  C   0.60222956229477     -0.11212299871262     -0.01930355163726
  H   1.74011713822119      1.63919557280376      0.09226055109331
  Cl  -1.68706348082086     -0.06862089684848     -0.05939940428344
  F   2.55673816905563     -0.05656760819778      0.03998410238211
  C   0.66644182701422      1.43134010096749      0.02792710049006
  C   0.65566979299649     -0.85232606672366     -1.34163817485740
  H   0.06608435640609     -1.76532303956022     -1.26312313733545
  H   0.22718648686694     -0.25519363528799     -2.14618229152830
  H   1.69561756483482     -1.08625810533190     -1.55398619275281
  N   0.65005280728505     -0.75683860592053      1.25148753404115
  H   1.58676330560611     -1.13154740546659      1.32476804683151
  H   -0.06260829051624     -1.46990971504988      1.30518879816709
  C   0.03791395869201      2.00119356708699      1.22038682973006
  N   -0.37196099539910      2.55146944303569      2.17281115217911
  C   0.16537566682596      2.08813436020467     -1.17925782707230
  N   -0.14154786936308      2.65082503300104     -2.16323353544742
