16
Coordinates from ORCA-job run
  C   0.66986834110681     -0.08254818565860     -0.06148507186790
  H   1.01769768568649      1.88100353963679      0.69697794154284
  F   -1.24769814369859     -0.44244514149055      0.44710609803045
  Cl  2.88657013135313      0.36172641802971     -0.57833608482990
  C   0.33338058090421      1.39634479554379      0.01095971301840
  H   -0.70232066619610      1.46494824803546      0.33797764028839
  C   0.50906826849096     -0.96071802699162     -1.28252023376822
  H   -0.53908903365716     -1.23901101660926     -1.34669854643123
  H   0.82698800166464     -0.45911459000042     -2.19017378699472
  H   1.12944789564299     -1.84780026349098     -1.14475607448432
  N   1.00286546438254     -0.61522456043034      1.22622022786922
  H   1.77369385603195     -1.26088851855200      1.12380852614836
  H   0.14712202410922     -1.08375018351951      1.50475449222588
  N   0.41065833264840      2.16841048184614     -1.25594030027492
  O   0.94027530946258      3.27802722667121     -1.20371270709448
  O   -0.13584804793206      1.70867977698015     -2.25738183337785
