17
Coordinates from ORCA-job run
  C   0.73400641856997      0.02922355213387     -0.00560920308276
  H   1.67914932889522      1.92666407503962     -0.22206454631815
  F   -1.08235088806218     -0.00677654529232      0.22869179127237
  F   2.58873046012140      0.09476432219250     -0.17937258176058
  C   0.66048448774675      1.57104720174919     -0.07143493270610
  C   0.68160875043481     -0.81436015644286     -1.26280046676454
  H   -0.33546489766526     -1.15363020491978     -1.44827897325755
  H   1.03805731480606     -0.23293480807094     -2.11391802541266
  H   1.35879446008430     -1.65944250987276     -1.14179407772286
  N   0.91000724241639     -0.53844083714985      1.30399613588101
  H   1.78672642204875     -1.03845049324358      1.27512318658629
  H   0.12095621703473     -1.14657044737739      1.46974910980641
  N   0.11906697966174      2.19172219343647      1.13425207059454
  H   0.71306042789848      1.84108728620354      1.88043704779479
  H   -0.76232255168022      1.70055255809429      1.26338129064297
  C   -0.13139011808463      2.00267867111259     -1.23208444117538
  N   -0.70614005422630      2.39321614240744     -2.17833338437780
