11
Coordinates from ORCA-job run
  C   0.50393251144820     -0.03462034685174     -0.04153343457642
  H   1.59217139220270      1.73470677788513     -0.59989572170121
  F   -1.22655588222885     -0.00638924038811     -0.20199362620893
  H   2.30555046581556     -0.28004691320534      0.41715120673602
  C   0.71155703154185      1.46134256420694     -0.02519597753148
  H   0.40334885942687     -0.57699871240582      0.88103589538179
  H   0.85267208465347      1.80868631844737      1.00182626760461
  H   -0.17646582168557      1.93258236534138     -0.45597577119361
  N   0.69138647281998     -0.71805188342231     -1.30729589551687
  H   -0.13170655344608     -1.29605549539547     -1.41997569758939
  H   1.52017943945185     -1.28410543421201     -1.21748724540453
