12
Coordinates from ORCA-job run
  C   0.70244229578494     -0.06852799341212     -0.03340169199404
  H   1.49522522525055      1.90247516949588     -0.38694228433703
  F   -1.34329940769420     -0.11303774480011     -0.15197458265476
  Br  2.97145932977121     -0.26391570305514      0.57205035345930
  C   0.56529107921679      1.43506774746770     -0.06056404918436
  H   0.45612142938375     -0.61237706346122      0.86057761725735
  H   -0.23262077411981      1.65222610252295     -0.76970601130800
  N   0.75868505005364     -0.67472246866798     -1.31565239610633
  H   -0.23966933274204     -0.77959708973500     -1.50380669589750
  H   1.18502342753669     -1.58782190842191     -1.22408105100915
  C   0.18198490974529      1.98017129036306      1.23743166810809
  N   -0.09060323218681      2.46238966170388      2.27165912366645
