15
Coordinates from ORCA-job run
  C   0.18454107670250     -0.11471579155738     -0.15178552592826
  H   1.56439121055237      1.46365519088141     -0.72692310735532
  Br  -1.89293618204513     -0.27708455147561     -0.67630298814773
  H   2.06859504907217     -0.02730162526884      0.83533206768424
  C   0.61085356579177      1.33853063273212     -0.23580497307316
  H   0.08765645186657     -0.46114688983163      0.86476607005764
  N   0.80035462105944     -0.92888504780251     -1.17292681966152
  H   0.27269741374503     -1.78819221317966     -1.25875225319174
  H   1.72754452061880     -1.12579146643291     -0.81326355829855
  N   0.67362322495348      2.00205818920866      1.09329218148068
  O   1.43553703373384      2.96539974058594      1.17207989816931
  O   -0.11249669215329      1.63998741774623      1.96230615586153
  N   -0.33898198237845      2.22795267882830     -1.07329568690109
  O   -1.12915476564121      2.97110375585345     -0.50091283563328
  O   -0.17959454587787      2.14121997971243     -2.28565862506274
