14
Coordinates from ORCA-job run
  C   0.32566042702347     -0.14817034349059     -0.06018486769900
  H   1.70119625270334      1.29810216078778     -0.02070338679343
  Cl  -2.02113101032790      0.09936018736828      0.15297887002990
  F   2.43472183161717     -0.45167877724551      0.46257653840016
  C   0.60370883897849      1.32898418687084     -0.01903104965677
  H   0.34579119908231     -0.71969702864271      0.84500351353651
  N   0.49964103096380     -0.76436013099859     -1.23443632743799
  H   1.10288525678653     -1.56311105863222     -1.12324238622013
  H   0.76576892219659     -0.12726986578575     -1.97073057527955
  C   0.18494946198627      1.97774953854056      1.23210013640043
  N   -0.07882154860231      2.62165387720123      2.17855592940118
  N   0.10206395986579      1.97369383762207     -1.22536925924232
  H   0.40891144962629      2.93787816928954     -1.24446183364672
  H   -0.91288607189985      1.94703524711505     -1.18352530179222
