16
Coordinates from ORCA-job run
  C   0.71337866587576     -0.05594064901985     -0.04674308077855
  H   1.71095575173590      1.84009036528277      0.08250446794215
  F   -1.33384384043236      0.09435637376130      0.11841060960422
  Br  3.02670622767526     -0.46717357997053      0.12895594517766
  C   0.69487132909884      1.46617688259129     -0.06026657537070
  H   0.58673036306801     -0.53362329187427      0.90827757302006
  N   0.50189298003131     -0.72714562491980     -1.27903702226447
  H   -0.51844075422166     -0.73573559470934     -1.31373135172412
  H   0.84889512016678     -1.67305314936760     -1.18655889804619
  N   -0.01198302945320      1.94611456302395      1.18004456703501
  O   -0.75917388580045      2.91577241664341      1.08841765044301
  O   0.29233309018929      1.40203101498042      2.23672726382960
  C   0.08605484999484      2.06195158393880     -1.30793776669716
  H   0.61083969491925      1.65071246403090     -2.17077366734008
  H   -0.96261541358468      1.78012377423904     -1.34266912755067
  H   0.18351885073714      3.14794245136951     -1.29967058727978
