16
Coordinates from ORCA-job run
  C   0.42119481131314     -0.00264867118287     -0.10265589149967
  H   1.66132815494736      1.71528764387341     -0.34023919988921
  F   -1.28437487428616     -0.03167686003441     -0.37522822445566
  H   2.20400370111630     -0.20775733415180      0.60146015543162
  C   0.61245551300477      1.51598643779955     -0.13806264812381
  H   0.26771186447095     -0.46994105350590      0.85422619284072
  N   0.74375790337152     -0.77247362119941     -1.27927964617223
  H   -0.02052872201107     -1.42469702435867     -1.40061749360083
  H   1.60140330344727     -1.26073297506080     -1.07588828729758
  C   0.25029152686087      2.05508678029084      1.24339913425062
  H   -0.79773995757850      1.82179707014964      1.45019864992708
  H   0.88733778564564      1.59176930526981      2.00244497260898
  H   0.38563327694155      3.14274144909670      1.28992380257286
  N   -0.17331331805177      2.12656986681740     -1.22711553582406
  H   -0.33093692519668      3.09988561520909     -0.98589039469445
  H   -1.06726404399519      1.64776337098742     -1.21295558607439
