15
Coordinates from ORCA-job run
  C   0.30834997784817      0.07105740598831     -0.01795504769462
  H   1.62353240663633      1.63115916305672     -0.56471727382693
  F   -1.37013587377486      0.10559934001073     -0.42398846527818
  H   2.00747086714934     -0.15497194249735      0.72749122305292
  C   0.63486958186667      1.56823434886671     -0.09926256304547
  H   0.04617086381421     -0.37340773670096      0.92715833745820
  N   0.66197245423862     -0.70582978365891     -1.18822548563834
  H   -0.13818469994839     -1.29416020177222     -1.37975865970723
  H   1.46763450796424     -1.26315504479533     -0.95322125060145
  N   0.59729881250874      2.11271586432688      1.25126882832227
  H   0.93181628353766      3.06859381762782      1.19324162087433
  H   1.28662730700374      1.56384104138834      1.76173599312057
  N   -0.26084295251909      2.36842852063664     -0.93198562392782
  H   -1.19084487114673      2.07318300840458     -0.65066506885291
  H   -0.15730466517862      1.99178219911806     -1.87033656425534
