14
Coordinates from ORCA-job run
  C   0.59135816496049     -0.15774544618682      0.01941144740886
  H   1.70485952716892      1.54862950748835      0.70789031233167
  F   -0.76465554234640     -0.36567224506773      0.88547282673418
  H   2.19521989935240      0.10982656511407     -0.79066161612187
  C   0.79505384391498      1.34430034619062      0.15075670423482
  H   1.21332361948922     -0.75283034497099      0.67378071345859
  N   0.04581721842983     -0.65741490898960     -1.21583530602178
  H   -0.65205189589020     -1.34832309530464     -0.97685015116463
  H   0.78717799777860     -1.04813141861768     -1.77295330238041
  N   -0.31424968728276      2.00587645766411      1.03168724051627
  O   -1.35303803925707      2.38123980040055      0.50314032458642
  O   -0.04697108893434      2.10485482677975      2.22785019955476
  C   0.79281377786229      2.06438713656348     -1.11863101802614
  N   0.77833220475405      2.74632281893650     -2.07594837511074
