15
Coordinates from ORCA-job run
  C   0.48490320366470     -0.10003845414178     -0.13089546984875
  H   1.60652197298505      1.60628012731295     -0.14930641767771
  Br  -1.84855420957293     -0.50775248809075     -0.45907566327760
  F   2.38940419116544     -0.11549024570318      0.57732211772368
  C   0.53216153748784      1.41641525315999     -0.07253596827412
  H   0.36674744694458     -0.66817539405783      0.77288284860065
  N   0.95935847085728     -0.66412580769850     -1.34597428501216
  H   0.54559829565547     -1.58049231978896     -1.45812558695484
  H   1.95148096226280     -0.75874716356247     -1.12695140319367
  C   0.12860416159187      1.90543490222746      1.24466162111444
  N   -0.16820931354571      2.37510640639324      2.27933828585017
  C   -0.19607602114668      2.15680475961431     -1.19464839919078
  H   -1.27292185865301      2.15638469920180     -1.04211362269323
  H   0.16539540673127      3.18867174884043     -1.24117670205141
  H   0.02542575357204      1.65110397629330     -2.13490135511465
