15
Coordinates from ORCA-job run
  C   0.42212493471527     -0.09200952382227     -0.07650490936840
  H   1.68876571554467      1.49871479355072     -0.32467283995304
  Cl  -1.79565756551316     -0.22156279214631     -0.28983579673168
  F   2.30795793545663     -0.25654378330519      0.52485807533710
  C   0.61711249408366      1.41453231610004     -0.13003448582752
  H   0.28895079329827     -0.58635631602224      0.86769474208817
  N   0.75740139849936     -0.77736514549027     -1.28102391455560
  H   0.16941543833376     -1.59571007076783     -1.36244374922017
  H   1.71925324908023     -1.04985638306564     -1.09425902282267
  C   0.39511230516930      2.01398696899783      1.18455419959078
  N   0.21693938405170      2.55127593625957      2.21338614175840
  C   -0.14907889641171      2.15973445185914     -1.22349981529869
  H   -0.10516838584880      1.56092569885070     -2.13342249664172
  H   -1.19147286718286      2.31300370434238     -0.95544842496974
  H   0.32818406672367      3.12861014465937     -1.40084770338524
