13
Coordinates from ORCA-job run
  C   0.74343148469450     -0.08148426405617     -0.03927356853117
  H   1.63334348990667      1.87428828963084     -0.21413291742218
  F   -1.27933772676417      0.01119019218668     -0.08898677068349
  Br  2.96680923501085     -0.30442793160996      0.53194315519554
  C   0.63530076611293      1.44423949566625     -0.07847768218836
  H   0.46456164471099     -0.57950978537248      0.87208588561498
  N   0.75249153783435     -0.70970676680699     -1.30816416039643
  H   -0.24249281611704     -0.76891036052567     -1.51999327880944
  H   1.14262922868195     -1.63836115538444     -1.21421792309557
  C   0.10046072732029      1.94857589698030      1.18826264293604
  N   -0.23323174277500      2.39536749729560      2.22066608357148
  C   -0.18678095117710      1.91588553957681     -1.20145175597831
  N   -0.72447487743923      2.41695335241921     -2.11659971021308
