15
Coordinates from ORCA-job run
  C   0.46638286102994     -0.11083828558250     -0.02339930925133
  H   1.63965446372788      1.65249795326208      0.24369633090140
  Cl  -1.55674612570359     -0.38102312388863      0.34469857459122
  H   2.48926158940323     -0.17901079215446     -0.04729214321252
  C   0.59975001394079      1.40439258146905      0.06201832537831
  H   0.83896248301734     -0.61399321922871      0.85336079331957
  N   0.52778798041298     -0.65599177503076     -1.35666567310880
  H   -0.20279943673574     -1.34662612714327     -1.46863633391961
  H   1.44869530619751     -1.05342939729042     -1.46095048826079
  N   -0.16216670686091      2.02369082528946      1.20103504573806
  O   -0.82008646122870      3.04088573931639      1.00757404203873
  O   0.06518054117469      1.50928694415744      2.29125211607773
  N   0.22628581079412      2.07454482796761     -1.21663096211876
  O   1.14353094546834      2.66066118862492     -1.79440698306348
  O   -0.93106326463789      2.00174266023179     -1.60350333510973
