14
Coordinates from ORCA-job run
  C   0.44800494726541     -0.03859810992010     -0.10423837015402
  H   1.70556424047208      1.60237241431805     -0.42037929438170
  F   -1.28355545379580     -0.03069867906056     -0.53780657899526
  F   2.11661426585124     -0.20485727025674      0.64044731339932
  C   0.65600686536695      1.47817376488833     -0.15832540572532
  H   0.12708990832083     -0.50023030194711      0.81352682802929
  N   0.83607946307546     -0.77564972695859     -1.26754475151662
  H   0.02927276664416     -1.31287538285625     -1.54913340187304
  H   1.59392239209177     -1.37230246471924     -0.96877819741826
  C   0.47910039718300      2.01969630033867      1.20527830303081
  N   0.30256759448687      2.54325996306173      2.24248965152936
  N   -0.18367412141544      2.16527726138197     -1.14100203074039
  H   -0.28081246248874      3.13769320806213     -0.87653243851941
  H   -1.08372080305780      1.69890902366772     -1.08847162666474
