13
Coordinates from ORCA-job run
  C   0.71246685165103     -0.08341958120477     -0.03146917636805
  H   1.65020648842627      1.84739334527013     -0.21075422771152
  F   -1.25633838931137      0.01360166773246     -0.10633758263163
  Cl  2.79750817995027     -0.28270287417293      0.48871843175301
  C   0.64194193919767      1.44427245350232     -0.07276353034444
  H   0.44074623479681     -0.57740466031191      0.88419915616723
  N   0.74479507376920     -0.71611702985122     -1.30304475907735
  H   -0.23783814727253     -0.88387841736858     -1.49768724097970
  H   1.25118610716816     -1.58774722829706     -1.23004559059297
  C   0.12359124038860      1.96221699922052      1.19519685217646
  N   -0.22368430056674      2.41361684362369      2.22094449474776
  C   -0.17090336563083      1.93625178848953     -1.19315298758590
  N   -0.70096791256653      2.43801669336780     -2.11214383955289
