15
Coordinates from ORCA-job run
  C   0.47197424247681     -0.12033734866028     -0.03736406726054
  H   1.67236601698243      1.52235975812648     -0.04508355170253
  Cl  -1.92192698841518     -0.10643672172126      0.33511159948880
  H   2.91187847748436     -0.05182113015734      0.53034180104673
  C   0.58224306031852      1.37355770382899     -0.07894967203767
  H   0.67243861682883     -0.63476542431076      0.88473902263593
  N   0.60671680008698     -0.72789173460253     -1.18924338689347
  H   0.52979799142536     -0.17911726003023     -2.02989010950518
  H   0.74858126891569     -1.71947198411996     -1.23237357675248
  N   0.10247899113280      1.99607369844225      1.21477362604944
  O   -0.35009156425262      3.14025609782616      1.13321206610200
  O   0.31334660221307      1.38733451255366      2.25434406807815
  N   -0.02564518696302      1.90769219847843     -1.24913088807994
  H   0.17871857822024      2.89396107235324     -1.32278875538460
  H   -1.03013690645427      1.77999656199314     -1.16071817578466
