13
Coordinates from ORCA-job run
  C   0.60300492291335     -0.08317845593054     -0.01963378704515
  H   1.79620670688405      1.69559447397624      0.14270905016753
  F   -1.17983593298757      0.10945863190203     -0.03020178315897
  F   2.38002930266116     -0.37041986861412      0.13873546333290
  C   0.75086091817219      1.41424208716507      0.03318662159095
  H   0.49718481146599     -0.63705645474308      0.89662051587451
  H   0.29556958860582      1.85019636809051     -0.84941211202084
  N   0.59517785288511     -0.67489268730971     -1.32843375667084
  H   -0.30721301392874     -1.11550771523543     -1.43154557180768
  H   1.34705271565469     -1.34744649306324     -1.33438321726923
  N   0.04063922327868      2.01079395963962      1.19486753281977
  O   -0.60573597060730      3.04164219886497      1.00450434662547
  O   0.19737887500255      1.49012395525767      2.29602669756158
