13
Coordinates from ORCA-job run
  C   0.41278845436015     -0.09867003470193     -0.04825947967571
  H   1.67981009645906      1.58402609945079     -0.21981453076734
  Cl  -1.66419519317452     -0.14894610545586     -0.06246316390616
  H   2.37450900138314     -0.24381669575800      0.42054274943124
  C   0.60851683148084      1.42566851903024     -0.08394235426096
  H   0.52828736964234     -0.56873818112246      0.91155089935742
  N   0.69171533514588     -0.74978785456880     -1.30029203788735
  H   -0.02642597241209     -1.44048440403575     -1.47826084907347
  H   1.59943192301210     -1.18042223924110     -1.19951626507256
  C   0.23134374083805      2.05103234133649      1.18580698000775
  N   -0.02560238134604      2.55664941769251      2.21369690621945
  C   -0.08370976680751      2.07035494031450     -1.20604970940430
  N   -0.55375943858139      2.66723419705936     -2.10133914496801
