15
Coordinates from ORCA-job run
  C   0.52821520005925     -0.06951301297352     -0.00724174119059
  H   1.72167041787835      1.71674197393182      0.05354685510620
  F   -1.14476459509855     -0.03777741662140      0.21482674512531
  H   2.38751551617256     -0.26095413870501     -0.10710227059469
  C   0.66540530224992      1.46295415973440     -0.00893283617585
  H   0.71393396527827     -0.57577224815705      0.92661398366896
  N   0.43262640976878     -0.77688468453518     -1.26529279030352
  H   -0.38762373672725     -1.36728761907798     -1.19594930810245
  H   1.27548083320388     -1.31749962128430     -1.36850738278570
  C   0.02115098354029      2.03710273970991      1.17968863111298
  N   -0.41930218322594      2.55779930456120      2.13676994967958
  C   0.07498892454521      2.07166987620652     -1.27917158932066
  H   0.61086583185370      1.67222422671595     -2.13969906212557
  H   -0.97251178927551      1.78638980450676     -1.35982586369768
  H   0.16218891977702      3.16218665598787     -1.26122332039635
