14
Coordinates from ORCA-job run
  C   0.74947685322253     -0.02629108545809     -0.04777386287484
  H   1.48177888763642      1.93142910641301     -0.42719259164939
  F   -1.41030037629527     -0.19448299380773     -0.12498893244489
  Br  3.09463714374641     -0.17040255445375      0.61494349997540
  C   0.55458384485469      1.45875647158795     -0.09718251063268
  H   0.57227935755630     -0.55449191434387      0.87279514808069
  H   -0.21729342089543      1.63246897609782     -0.84840836030418
  N   0.76834687007557     -0.69437367964904     -1.26997515861370
  H   -0.22265851802413     -0.59184574698096     -1.51796925140003
  H   0.94605234972845     -1.67720717658379     -1.10283163344750
  C   0.08761783395151      1.99521520001153      1.24537564925867
  H   -0.85607914084871      1.50238377632836      1.47759014338483
  H   0.82530628649030      1.77904839200985      2.02302340078411
  H   -0.06520797119866      3.07891322882872      1.21237445988351
