15
Coordinates from ORCA-job run
  C   0.49519535150308     -0.03146070805193      0.00187536150207
  H   1.78618207678853      1.64282565890287      0.45627546835134
  F   -1.11534136341114      0.06237216431108      0.35599261663598
  H   2.34477018877541     -0.26701252004907     -0.34214824929208
  C   0.78268558151405      1.46722024588392      0.07755955453772
  H   0.78578287600336     -0.60675408802429      0.86613467839195
  N   0.24831657336089     -0.61543703298920     -1.29897656135800
  H   -0.56301581606071     -1.21337275387511     -1.20642622573727
  H   1.07580927037313     -1.12176001900869     -1.56653175992512
  N   -0.08743941826348      2.05918594635869      1.21997205111255
  O   -0.91153514774080      2.93896631225654      0.97560519242903
  O   0.17489791279360      1.65318386320423      2.34740684838776
  N   0.51283524368682      2.12395874225170     -1.16117565844222
  H   -0.08462422079365      2.91996735280429     -0.98065442820913
  H   0.01822089147094      1.44950683602497     -1.73792888838457
