17
Coordinates from ORCA-job run
  C   0.71594667323998     -0.01072121867944     -0.04399492474456
  H   1.69731771126655      1.82994774875574     -0.25406012568209
  F   -1.38677134809651     -0.13889697507683     -0.08743905920731
  Cl  2.89569823638646     -0.30528333648072      0.63163502821406
  C   0.66613502136218      1.49840308173134     -0.10950922883212
  H   0.48869958644565     -0.50462117383141      0.88224315316602
  N   0.76504563805522     -0.71843525999747     -1.25376250255452
  H   -0.21792387143334     -0.66450426792826     -1.52927611070434
  H   0.97203384031517     -1.68729211099059     -1.04264030641599
  C   0.14444625253318      2.02788341054182      1.21919735394968
  H   -0.86072599953748      1.62928203734148      1.36006882320027
  H   0.78705073066994      1.69618913472045      2.03978700620771
  H   0.11742977615658      3.12299514871172      1.22617218283763
  C   -0.15882853935015      2.01245888889437     -1.28805055130104
  H   0.23454225607775      1.62315613981164     -2.23027751329706
  H   -1.18753154958566      1.68124608851315     -1.16424779344775
  H   -0.10422441450553      3.10636266396301     -1.32315543138858
