15
Coordinates from ORCA-job run
  C   0.58212184602564     -0.07201033403961     -0.02463611521386
  H   1.73861687718862      1.69513821462073     -0.08140382051346
  F   -1.22153496212044     -0.02138915895746     -0.00492201244722
  F   2.36362323198348     -0.27583635189579      0.16018219281555
  C   0.67456229493970      1.45507812386868     -0.05287040935559
  H   0.50102534630165     -0.57287819897295      0.92573475530313
  N   0.59795585345581     -0.77085480558703     -1.27844481763155
  H   -0.27504006716711     -1.27521976417100     -1.32974874624474
  H   1.39208556898622     -1.39220132178354     -1.23653346970238
  C   0.13969395080440      2.01994380280437      1.18747031674277
  N   -0.24013072395306      2.54146074898442      2.16903844125644
  C   -0.02403690187916      2.07974713366896     -1.26060736147284
  H   0.36690345290164      1.60882480778259     -2.16226350427332
  H   -1.09092409523222      1.88412693889266     -1.19678911269230
  H   0.16491832776484      3.15745016478497     -1.29570633657063
