16
Coordinates from ORCA-job run
  C   0.62383175666562     -0.01485018623243     -0.05742786029972
  H   1.68979854048716      1.69981625814159     -0.52313507987090
  F   -1.44401751557802     -0.29141235516144     -0.60457613103730
  Br  2.74205095790275     -0.35513621290119      1.11850206713504
  C   0.67729232697184      1.48978996913796     -0.15089355545790
  H   0.16338909324255     -0.46517150996417      0.80426194681952
  N   0.89931838800618     -0.72940216392361     -1.23786606236472
  H   -0.07270364431777     -0.76102060074040     -1.58916513169538
  H   1.14650101589433     -1.67557667025355     -0.97104281148228
  N   0.43735402476614      2.06220944165721      1.17529344167687
  H   0.56089828444934      3.06715256997171      1.10891313308548
  H   1.17085616600497      1.71109111782264      1.78442238107223
  C   -0.31413822408667      2.06778857990449     -1.15269222376885
  H   -0.12217122667980      1.66329213525886     -2.14808069399168
  H   -1.31974856164543      1.78858384983726     -0.85535376227438
  H   -0.18270138208318      3.15712577744508     -1.19140965754603
