13
Coordinates from ORCA-job run
  C   0.32958965520738     -0.01138689274426     -0.05631721180795
  H   1.23181083715010      1.79708857484336     -0.66662783491758
  F   -1.29852758061762     -0.16719357657039     -0.64863555005090
  H   1.97665860735477     -0.00652351105289      0.75284464505789
  C   0.38883484703384      1.50155460586313     -0.03111008202480
  H   0.04654249161883     -0.52407992289202      0.84951270207623
  H   -0.53789738324087      1.87839991155156     -0.46968816982205
  N   0.87681984231860     -0.70389830749512     -1.20759469343456
  H   0.15287767659419     -1.34734336052555     -1.49835111097085
  H   1.70217421395615     -1.19751543500404     -0.90805067258275
  N   0.49021979980702      1.99250974738901      1.35008459405511
  H   0.72596525244494      2.97976320536243      1.32007056645280
  H   1.31094174037267      1.49385496127477      1.70070281796939
