13
Coordinates from ORCA-job run
  C   0.74462038475254     -0.08099017314029     -0.03086101251341
  H   1.66295781719822      1.88471570200682     -0.06829555724433
  F   -1.30407610855609      0.07229257449303     -0.06573835593394
  Br  3.03320129061452     -0.45360943029329      0.42733028633401
  C   0.67798987220019      1.41776035462610     -0.03015665845943
  H   0.51918308921569     -0.61073095156230      0.87621073219145
  H   0.06026238795076      1.74537935186550     -0.85829327020535
  N   0.68859078274520     -0.66330839754642     -1.31991400065895
  H   -0.31830010946890     -0.63142651952577     -1.48801962074300
  H   0.99512287793468     -1.62529537249697     -1.25758778027185
  N   0.02744675622408      1.95120985957084      1.19580062850174
  O   -0.56480123102384      3.02288743375302      1.07852485424618
  O   0.18812219021293      1.35466556824975      2.25403975475688
