13
Coordinates from ORCA-job run
  C   0.56066513970737      0.08090688677716      0.02325308974811
  H   1.87423244192900      1.76670160351518     -0.31093765296908
  F   -1.13665149076318      0.27010719688393      0.30754928483088
  H   2.42383044820570     -0.38154999679683      0.00067595819501
  C   0.83169127390485      1.58276240265877     -0.07414416301922
  H   0.67755181251027     -0.43249521487926      0.96068141111183
  H   0.61261094842645      2.01857155270364      0.90700407738043
  N   0.37257057198103     -0.64170728584887     -1.22020002069994
  H   -0.49874824037644     -1.14692057880263     -1.11597732882560
  H   1.15203249423747     -1.27421283702473     -1.30592500499408
  N   -0.00706774081962      2.25301689166358     -1.07323820276347
  H   -0.94813516010082      1.95899038997324     -0.83048957669419
  H   0.18390750115793      1.76471898917681     -1.94365187130069
