12
Coordinates from ORCA-job run
  C   0.36879593328249     -0.06973983370508     -0.07209559687339
  H   1.54589104526297      1.69196232992423     -0.39267127193855
  Cl  -1.71755017047479     -0.18525921836414     -0.16477188746243
  H   2.36320530577469     -0.24179248964779      0.49684242832982
  C   0.54719225068736      1.43973985847061     -0.04866207424149
  H   0.45291572228816     -0.61152763969647      0.85277305638349
  H   -0.18968106601836      1.88251774146779     -0.72490240247722
  N   0.69069394144999     -0.66081915552561     -1.34891518186389
  H   0.11746233476798     -1.48763791849519     -1.46817825379425
  H   1.66224577022472     -0.92983551361658     -1.25827960229344
  C   0.36083157689948      2.00602245811302      1.28516633501189
  N   0.20803735585531      2.49869938107521      2.33928445121946
