13
Coordinates from ORCA-job run
  C   0.61782884543372     -0.09910462821728     -0.09255663440584
  H   1.48649123568523      1.78124126501772      0.21526186007100
  Br  -2.00392550208498     -0.36411486068618      1.17026768468254
  Br  3.56573487846612      0.00736829127327     -0.02060813397108
  C   0.52246298080508      1.38815062465071     -0.10709779394170
  H   0.86577069896128     -0.53327384650197      0.86128945831698
  H   -0.27166436888787      1.67636538785161      0.58155987384415
  N   0.45755503022580     -0.87670810597004     -1.10751837546113
  H   0.21471309551357     -0.49008205981158     -2.00721071454273
  H   0.55425193312353     -1.87077701235760     -0.98487966785187
  N   0.21399027700867      2.06675572189821     -1.39692999737032
  O   0.20480763454409      3.28974512829235     -1.34881084555844
  O   -0.01963673879421      1.40872409456077     -2.41299671381157
