14
Coordinates from ORCA-job run
  C   0.29354593539345     -0.03903942608940     -0.12497508771553
  H   1.38411622919068      1.68548971624801     -0.54581366934883
  Cl  -1.97831430236019     -0.26094878714446     -0.36219362312566
  F   2.27003641089286     -0.11645125470238      0.59202051303810
  C   0.40630882318066      1.45459078692030     -0.12057520828571
  H   0.14014190943589     -0.56872020270621      0.79752461845136
  H   -0.36802675245736      1.86996074393715     -0.76818675973732
  N   0.71908470470890     -0.69596759545896     -1.28509164111965
  H   0.49009078299127     -1.67872494653078     -1.20381020234050
  H   1.73058146852622     -0.59526752777337     -1.17519082008269
  C   0.31761250916967      2.00683182636028      1.29186735329307
  H   -0.64190951942741      1.74440451478771      1.74539095796253
  H   1.13219998582871      1.56530998681003      1.86507283810470
  H   0.41307181492663      3.09765216534207      1.30374073090615
