12
Coordinates from ORCA-job run
  C   0.55269669615404     -0.12490740468629     -0.07603455028969
  H   1.52956543203131      1.72329902768415     -0.37561786279712
  Br  -1.77095449430938     -0.52733458271902      0.30914333126170
  H   2.73294133460160     -0.05444249825931      0.87369157336874
  C   0.53680126646974      1.38735024317912     -0.07676181621159
  H   0.94560387865109     -0.61880670856564      0.79776221911339
  H   -0.21043818335526      1.73872139636912     -0.79615247083595
  N   0.81563002750262     -0.68432565602650     -1.29421741810651
  H   0.23950553519049     -0.32465501812892     -2.03996253857139
  H   0.83027466319377     -1.69256775240671     -1.27459229351888
  C   0.22864163262638      1.97707931171482      1.22285430117538
  N   -0.02022778875639      2.53291964184517      2.22547752541190
