12
Coordinates from ORCA-job run
  C   0.45127833711065     -0.06688773965206     -0.11589004489842
  H   1.69598826063724      1.49726752371143     -0.86573875917037
  F   -1.16091039665331     -0.02084850175041     -0.59386380217393
  H   2.12813456761561     -0.18922942390964      0.64360602901787
  C   0.78656719455763      1.41303738262913     -0.27426109439058
  H   0.18648037451754     -0.42245409961784      0.86559787184592
  H   1.00798347645518      1.83703274252894      0.70689947403608
  N   0.85231593924077     -0.95094123471705     -1.18872742534717
  H   0.04624391816129     -1.52719207653022     -1.39346160111830
  H   1.62526533598565     -1.50570679881400     -0.85878555948278
  C   -0.24982431313686      2.24268621766209     -0.92411882761251
  N   -0.96078269449138      3.02605600845962     -1.43452626070580
