14
Coordinates from ORCA-job run
  C   0.31503412423761     -0.04018063222749     -0.10743736223586
  H   1.42205376950494      1.72565906200818     -0.50868911035069
  Cl  -1.82079611554573     -0.26540471205275     -0.27824040190501
  H   2.28357338570258     -0.17792398107332      0.67636196537966
  C   0.44438938095928      1.46327104350609     -0.10745435142988
  H   0.31965045131594     -0.56547759165440      0.83118510624063
  H   -0.31530994575596      1.85843095533388     -0.78850702987751
  N   0.69603456524359     -0.69277607564822     -1.32901958052811
  H   0.28751299277510     -1.62056149426754     -1.32785866463524
  H   1.70063778546415     -0.78729891982762     -1.24555921714579
  C   0.27329623186949      2.03917088834961      1.28821518752277
  H   -0.70419808379329      1.76804376299988      1.69449210724505
  H   1.05690707225533      1.63248256533921      1.93178597911117
  H   0.34975438576698      3.13168512921449      1.28050537260881
