14
Coordinates from ORCA-job run
  C   0.63387521664223     -0.07047253397007     -0.02606122097604
  H   1.56453608181598      1.74323049852517     -0.50344185713542
  F   -1.35035176670203     -0.17706728856601     -0.51703970886867
  Cl  2.57802909862091     -0.21756749547494      0.90851794592502
  C   0.58805936509477      1.44327065510902     -0.09781268674969
  H   0.16994909140994     -0.54120059246948      0.82273736647210
  N   0.91374069890583     -0.72654762783021     -1.25590669800128
  H   -0.03911632186431     -0.87292873350723     -1.59459288317823
  H   1.33954723374575     -1.62212396355420     -1.05312293035237
  N   0.32898831512779      2.00439019413685      1.22947623887570
  H   0.34812495599856      3.01575837596845      1.15853735626460
  H   1.11291713571269      1.72284461189436      1.80951825268605
  C   -0.40542699471114      1.96243732948714     -1.05014708207439
  N   -1.02419210979697      2.61297657025113     -1.80775209288739
