15
Coordinates from ORCA-job run
  C   0.59331812399389     -0.10485685673574     -0.06598328855049
  H   1.70868963763828      1.61887380700111     -0.17172377132542
  Br  -1.82293461715696     -0.43394423461114      0.44771755999408
  H   2.80944971188287     -0.22122081692073      0.69908947784763
  C   0.63726675622561      1.41067784546450     -0.10114530489941
  H   0.93786735784138     -0.59539876359941      0.82631344036929
  N   0.73131857689673     -0.74692939665911     -1.24878787340503
  H   0.13663122542205     -0.41149604461239     -1.98894741107254
  H   0.73321356571440     -1.75173679362553     -1.16470361113367
  C   0.19675224177081      2.00590599244955      1.16131463322750
  N   -0.09506615853944      2.60083871988517      2.13085865253387
  C   -0.09592872811546      2.04820453192778     -1.28341483847469
  H   0.37269005076059      1.74833165506709     -2.22472187720830
  H   -1.14718384942978      1.75809845122110     -1.28125928633527
  H   -0.02624389490497      3.13603190374777     -1.21610650156756
