14
Coordinates from ORCA-job run
  C   0.36441721928243     -0.09071526767051     -0.08669947755938
  H   1.66467839005832      1.45458273231935     -0.64974633466946
  Br  -1.95947173486340     -0.16099671526598     -0.42234347504634
  F   2.19400842549072     -0.14273680134699      0.61798211481620
  C   0.67135960868711      1.39981229212543     -0.20933733262219
  H   0.15740650761633     -0.46882910081416      0.89839798744418
  N   0.74856619918162     -0.90273058111040     -1.18660213606174
  H   0.11129125247892     -1.68168374978609     -1.26788255072154
  H   1.68060559253417     -1.21352721347989     -0.93306108630071
  C   0.67677064003337      2.03863898776005      1.10089406337794
  N   0.68586962679300      2.56754755255840      2.14852441485154
  N   -0.20880798754216      2.19216641837660     -1.15628710618351
  O   -0.98365758681698      3.02235240055405     -0.69248010629811
  O   -0.03068615293347      1.96168904578010     -2.34665897502688
