15
Coordinates from ORCA-job run
  C   0.58702671940400     -0.11018423990459     -0.03216486506124
  H   1.61999625309521      1.69592290139130     -0.55801748910917
  F   -1.34206984955847     -0.04145165117744     -0.55353870685425
  Cl  2.49013929691662     -0.27558967090575      0.91501507162213
  C   0.65438794413224      1.39220316807468     -0.16440586751085
  H   0.08352913376019     -0.50520403548635      0.83015896080594
  N   0.86731598211039     -0.83337689647517     -1.22380498749839
  H   -0.06086293732748     -0.95451106785293     -1.62045082991387
  H   1.25847630205030     -1.73042738475055     -0.96837762401518
  N   0.49615433586580      2.08590009296433      1.14820462712540
  O   1.05414498338808      3.17908619148044      1.23719101150415
  O   -0.18833564155089      1.55890873795614      2.01587085241520
  N   -0.36386517232338      2.01421199504722     -1.09405368442428
  O   -1.23238853532884      2.72935803970679     -0.61755068232139
  O   -0.15101881463379      1.82194381993191     -2.28192578676421
