15
Coordinates from ORCA-job run
  C   0.30070267045903     -0.04786201718843     -0.07743832420618
  H   1.58417166179341      1.52064091034488     -0.70678882148700
  Cl  -1.75758866615187     -0.13673032277953     -0.50111771492945
  H   2.11962939839508     -0.09608082665341      0.79771001663852
  C   0.63239356684508      1.43899827406541     -0.17849421433221
  H   0.13793591500551     -0.39800492944970      0.92734582590780
  N   0.78670963021704     -0.89761880808396     -1.13249844924593
  H   0.09755337295826     -1.61482210667927     -1.31281887854661
  H   1.64979562181200     -1.30240014546867     -0.80193879541221
  N   0.56732992773469      2.02315132656313      1.13308850388205
  H   0.79759136270480      3.00770678001474      1.08206213367139
  H   1.29995698084669      1.52840559044668      1.63800599483918
  N   -0.28458422951327      2.22479374728723     -1.10935778772274
  O   -0.98267491349624      3.12612270681265     -0.64989906336048
  O   -0.19060229961020      1.95216982076825     -2.30191042569612
