12
Coordinates from ORCA-job run
  C   0.37383533996464     -0.06598651774518     -0.08153123849226
  H   1.56372649406169      1.61493524234332     -0.43093752275317
  Br  -1.97903000895009     -0.18266062475733     -0.22776722738167
  F   2.34590353686537     -0.17604246006011      0.45621129417073
  C   0.55114160880296      1.43307463567973     -0.07207760417602
  H   0.30404103859181     -0.60644424908047      0.84494652037979
  H   -0.17618644170476      1.90775791930024     -0.73164556824167
  N   0.70579498077639     -0.68593116497981     -1.31479809001932
  H   0.24532638129401     -1.58592924161327     -1.35838758130905
  H   1.70878784897759     -0.82140851604369     -1.17876083313805
  C   0.43434849445731      2.00152438286693      1.26643548174710
  N   0.33235072686303      2.49944059408964      2.32390236921357
