16
Coordinates from ORCA-job run
  C   0.33285386699923     -0.06851313886238     -0.07230461510454
  H   1.59343234385342      1.58977164267357     -0.56623045397835
  F   -1.25639444328067     -0.05122399204463     -0.57294619097322
  H   2.01378640115330     -0.16079374026870      0.72708497570927
  C   0.60485706173297      1.43269895840831     -0.14847682127318
  H   0.06698884860322     -0.45998446415517      0.89766330410778
  N   0.80646728333563     -0.90583982489722     -1.14578640735786
  H   0.01362311497795     -1.45826885717700     -1.44482666995943
  H   1.54898841694090     -1.48396171728632     -0.78860322933994
  C   0.41233406212485      2.10112070044343      1.19398573143381
  H   -0.61423137388276      1.95617010927437      1.53123733445729
  H   1.11052414597348      1.63151397909116      1.88659911260298
  H   0.60683189717576      3.17508553865924      1.14147556555545
  N   -0.30699607531087      2.09583889658927     -1.17011476588958
  O   -1.27373401740533      2.75520170390226     -0.78962759740350
  O   0.01151846700893      1.96354420564983     -2.35023927258697
