11
Coordinates from ORCA-job run
  C   0.44424927395210     -0.03993264256964     -0.07496974174787
  H   1.76114210669950      1.55412921601150     -0.39129146572253
  Cl  -1.84637522759496      0.05768971069164      0.11108838976593
  F   2.48590085363552     -0.43274487872793      0.23797930719937
  C   0.73905861350990      1.42528237526928     -0.04146570231395
  H   0.39345714331758     -0.60683869413355      0.83422056467602
  H   0.66235900809650      1.79897671573396      0.97933598026856
  H   0.03367501038943      1.96134430570082     -0.67534940449436
  N   0.55705510030800     -0.66685918873253     -1.32243799883673
  H   0.23785544738486     -1.62303037394704     -1.22919248170480
  H   1.57769267030160     -0.68696654529651     -1.39725744708961
