14
Coordinates from ORCA-job run
  C   0.26323499415510     -0.09060015630919     -0.12276720670689
  H   1.61739978198018      1.42053804728823     -0.81054502172989
  F   -1.17836445018371     -0.03612425562398     -0.85042985851079
  H   1.82782600897428     -0.05661108804643      0.79508583148872
  C   0.70428138754428      1.36203365558441     -0.22678910487507
  H   -0.12138464085335     -0.40126440700002      0.83971603776795
  N   0.86391318188294     -1.01035142081818     -1.05970340834422
  H   0.11698827568629     -1.58332863140405     -1.42927260102538
  H   1.55173708725157     -1.56566715968162     -0.57863114697460
  C   0.83605779621330      2.02549710954253      1.06580604999599
  N   0.88602288202748      2.66095162224932      2.05446071148364
  N   -0.29853594070993      2.21453755367787     -1.07407200875801
  O   -1.24189556546056      2.75897195168916     -0.51160368475336
  O   -0.05493079850789      2.27698717885196     -2.27655458905809
