13
Coordinates from ORCA-job run
  C   0.58879666895871      0.07600977488240      0.01669610684320
  H   1.89153461696355      1.70542481389875     -0.35363556341026
  F   -1.19423948545815      0.28569674799042      0.25912260402483
  F   2.39484125739476     -0.36306117206194      0.03574666070452
  C   0.84579059183272      1.57093150205631     -0.08545615748853
  H   0.58423797297896     -0.42589360812451      0.96905618251368
  H   0.67322026967339      2.01550642878847      0.89927183784136
  N   0.40824723265684     -0.63611274962479     -1.22245704011774
  H   -0.48810108688667     -1.09622420280845     -1.15161110007184
  H   1.16536811042245     -1.30461036143128     -1.24364305496545
  N   -0.00485288889246      2.25811532906916     -1.05957433063681
  H   -0.93775986139223      1.95032721926722     -0.79910532524719
  H   0.17140660174815      1.78278027809822     -1.93981081998976
