15
Coordinates from ORCA-job run
  C   0.43104467946856     -0.06219507709036     -0.06992394219580
  H   1.57964612636534      1.70995137613976     -0.38333558016308
  F   -1.22938428207419     -0.12067724955720     -0.38620888249401
  H   2.16944413040783     -0.10401299893640      0.59405066387266
  C   0.55234864198154      1.45845819873307     -0.12703465554815
  H   0.28318522830763     -0.52230132994002      0.89236089462836
  N   0.81967070219160     -0.80183429125858     -1.24447641911435
  H   0.03906337404247     -1.40614659530201     -1.46721069035659
  H   1.64489178577021     -1.33361944572155     -1.01895311010594
  C   0.20041782229278      2.04471685912174      1.23559319603165
  H   -0.82344479156703      1.76641901583298      1.49130095279659
  H   0.89498286396698      1.61670208420920      1.96360142482418
  H   0.28984434785094      3.13446135967317      1.24715706146120
  C   -0.29727520438954      2.04594306896541     -1.17513521158343
  N   -0.88322542461511      2.63502502513074     -2.00593570205327
