13
Coordinates from ORCA-job run
  C   0.71413212370306     -0.07949248045063     -0.02530345622107
  H   1.68624756229891      1.85764417657980     -0.05154372659919
  F   -1.27795287830072      0.07494117243633     -0.07805265016577
  Cl  2.85120327334384     -0.44052033451157      0.39849712921462
  C   0.68805060543965      1.41984267536944     -0.02106600400709
  H   0.47872098869811     -0.60930557886439      0.87846434856313
  H   0.08340158080501      1.76536849053230     -0.85117706013737
  N   0.68570781988182     -0.66216880753075     -1.32489349209945
  H   -0.31612117220415     -0.74234002966680     -1.48346598041337
  H   1.10940538286677     -1.57883399543274     -1.28054132440899
  N   0.04599966498347      1.96581440782262      1.20355767794643
  O   -0.54736655478162      3.03701433806307      1.08316128995238
  O   0.20889160326585      1.37558596565334      2.26540324837574
