14
Coordinates from ORCA-job run
  C   0.54735192443475     -0.04812730662675      0.01604008326832
  H   1.45890356454676      1.82931076297723      0.44002096462004
  F   -0.97023018942610     -0.29932573827386      0.78676578339026
  H   2.28130069232870      0.02760834009022     -0.68890640737159
  C   0.51679525879995      1.47126359974599      0.02165219289402
  H   1.07929294373552     -0.53675948809295      0.81780568345867
  H   -0.30279076767764      1.78260775969749      0.67885361116125
  N   0.12772424319953     -0.78691167906434     -1.16343734255862
  H   -0.52406454114070     -1.48386281452816     -0.82638221986938
  H   0.95215207392658     -1.21208504382631     -1.55618292378180
  C   0.31810590330748      2.07538859520427     -1.35954805971008
  H   1.13526613250829      1.74999458026483     -2.00682528665927
  H   -0.61942098949477      1.72936821486575     -1.79706637197509
  H   0.30548375095165      3.17163021756661     -1.30921970686672
