13
Coordinates from ORCA-job run
  C   0.48366940072731     -0.10058547309804     -0.04643471636683
  H   1.68443642618688      1.58307773296244     -0.20331458692521
  Cl  -1.71357409227335     -0.15477372498018     -0.06558771313335
  F   2.37220747541083     -0.18036026124609      0.32368112756280
  C   0.60943108092313      1.42272292628988     -0.07175694320671
  H   0.45178822095501     -0.59341921337557      0.90888751292777
  N   0.70564720798245     -0.74651564557447     -1.29690218793662
  H   -0.00765969921779     -1.44240504692669     -1.45687444773682
  H   1.62322569269981     -1.16233663488282     -1.19918325860899
  C   0.22873569048954      2.03749643351217      1.20012774266924
  N   -0.01446638869115      2.55761949768820      2.22389139719745
  C   -0.08700215689345      2.06357143828779     -1.19026949790905
  N   -0.56372885829923      2.64000797134338     -2.09460442853367
