14
Coordinates from ORCA-job run
  C   0.47244317939835     -0.10247925170484     -0.04757708041185
  H   1.71036471021463      1.57085459933567     -0.00710376004929
  Cl  -1.72392595893367     -0.07272988743882     -0.00271025397630
  F   2.39026525295216     -0.23817134260508      0.19737645579731
  C   0.62917927656868      1.40790363037187     -0.03834815453219
  H   0.47575543328459     -0.60623203884456      0.90151377028272
  N   0.61638767345227     -0.72505083793281     -1.32161546818914
  H   -0.11536175272525     -1.40676664980059     -1.45621264702645
  H   1.53269330516836     -1.15275062348191     -1.28311188759593
  N   0.11087673287363      2.02630603290240      1.23193433256650
  O   -0.41724301714597      3.13209273629613      1.16401195212884
  O   0.33363006532816      1.40690904289401      2.26493768613071
  C   0.05876322506947      2.07512271171007     -1.20115910176987
  N   -0.30083812550542      2.66031187829848     -2.15282584335505
