13
Coordinates from ORCA-job run
  C   0.50914924922086     -0.02522750747046     -0.07473431946070
  H   1.43352634865235      1.79450856070360     -0.68876450599297
  F   -1.10295455469595     -0.15390626102113     -0.22906170677553
  H   2.27367042007801     -0.05661540497054      0.39703117080047
  C   0.63317916699465      1.47868427414869     -0.02511347736360
  H   0.86762567393011      1.79056186024117      0.98943794532787
  H   -0.31653555480137      1.92193369561426     -0.34093395797458
  N   0.81892712115436     -0.74884974047341     -1.26781744446194
  H   0.12315721433983     -1.48131402477457     -1.33785735639186
  H   1.73122762685251     -1.15825962832706     -1.14748102020493
  N   0.51586843521879     -0.77078037337354      1.21934858787142
  O   0.31444565036754     -0.14685432557452      2.26453145936340
  O   0.54867320268830     -2.00441112472252      1.15074462526295
