17
Coordinates from ORCA-job run
  C   0.44910197033892     -0.10134548114625     -0.08197123487870
  H   1.42381519025532      1.69248959561658     -0.51238326459181
  F   -1.05413235103782     -0.38240926018061     -0.48185814112363
  H   2.09887522179802      0.12904733018763      0.72119818630249
  C   0.44832825701045      1.43740816930302     -0.09989044844851
  N   1.07115308824156     -0.72847754190720     -1.19918892515208
  H   0.47915580790878     -1.50887940887875     -1.45716898296310
  H   1.97347544657659     -1.06832872076419     -0.90681429526437
  N   0.34017881415173     -0.90277858200241      1.18133515527472
  O   -0.19543378004409     -0.39123211718433      2.16590350547800
  O   0.65345158534027     -2.09331561348117      1.10578149336702
  C   0.29268885284352      2.17108159712365      1.23042472026268
  H   -0.68873579848545      1.99707973678857      1.66632754277334
  H   1.05832495974322      1.80596024781940      1.91402360577176
  H   0.43061690037893      3.24317302092392      1.05821955844745
  C   -0.54585527829333      1.96013227145449     -1.05901966950508
  N   -1.25990888672664      2.49970475632766     -1.82039880575019
