16
Coordinates from ORCA-job run
  C   0.67296943256829     -0.09210589316763     -0.01010023731929
  H   1.37339628482133      1.60035126396974      1.08527970200130
  F   -1.01716888997462     -0.25793802089854      0.93749697916629
  Cl  2.66744367836786     -0.12524516045490     -0.71450917208915
  C   0.68046160329476      1.41164166678390      0.26716274816120
  N   0.04610663707965     -0.60391308464632     -1.15013674658149
  H   -0.86209662728092     -0.92584426472208     -0.83934163919320
  H   0.59477457090744     -1.34688436364388     -1.55649517268433
  N   1.04107459993727     -0.98790877120304      1.16872443391064
  O   1.43525935888901     -0.44871712497763      2.19153365827448
  O   0.94542868521519     -2.18870919661216      0.97218694697415
  N   -0.64434898541690      2.00575323684055      0.72410829271642
  O   -1.50850512192909      2.16726498282838     -0.12349049209743
  O   -0.69539079732162      2.35999926938295      1.89521560968322
  C   1.05142841940891      2.18829159400654     -0.91630759941580
  N   1.29604715143343      2.91770386651414     -1.80354731150706
