14
Coordinates from ORCA-job run
  C   0.54553681799646     -0.06849501954216     -0.07377756558895
  H   1.62526454383669      1.74631995595124      0.09486251426772
  Cl  -1.63464025440481     -0.19352412114578      0.01063801124885
  F   2.46279253664744     -0.09473370177460      0.09620625802229
  C   0.58456837298206      1.45072695651556     -0.02013695160950
  H   0.01242350024103      1.80253321005318      0.83652355443787
  N   0.68852508826008     -0.78961573809273     -1.26865837349661
  H   -0.00023101223633     -1.52333364550466     -1.33036606255272
  H   1.63285673446529     -1.15076279508841     -1.25781414953575
  N   0.66867279296784     -0.76809076011041      1.26636261735691
  O   0.68238718185331     -0.06956720379489      2.27094425440647
  O   0.73745974793954     -1.98793221636928      1.23943330093170
  C   0.04609752813366      2.05109748377866     -1.23575718353919
  N   -0.33908357868228      2.62661759512431     -2.18306022434908
