14
Coordinates from ORCA-job run
  C   0.49351423218557     -0.07057718991386      0.11601401453525
  H   1.45913374962793      1.50860547533772      1.17495815882073
  F   -0.99791681966389     -0.19357458075916      0.64090423950074
  H   2.29407327300758     -0.08734204147813     -0.24113090100456
  C   0.75724535616794      1.41189913533142      0.34845826601737
  H   1.23100051902437      1.81251427141587     -0.54413379661974
  N   0.24925907743619     -0.55805466243854     -1.19854580841926
  H   -0.48702812835582     -1.24902251259215     -1.12169915441355
  H   1.09528362910449     -0.98329031407158     -1.54028775551222
  N   1.03884999678104     -1.00583258579712      1.14932801621992
  O   1.32818455104317     -0.55098920691128      2.25796358590711
  O   1.01244983433354     -2.20787033194104      0.87501348635057
  C   -0.43984046984295      2.22446949684504      0.63773380818701
  N   -1.32027880084916      2.97981504697280      0.81968384043065
