19
Coordinates from ORCA-job run
  C   0.49138176934562     -0.07411487476562     -0.07364441974294
  H   1.54940664733696      1.67229344410296     -0.44851127665037
  F   -1.04036921367612     -0.34236097276852     -0.49811653574255
  H   2.12073650004890      0.03914954613359      0.76832469775078
  C   0.53407948768072      1.46274334484815     -0.11095766186984
  N   1.09198670872294     -0.73323577173828     -1.19279012753903
  H   0.49634774926076     -1.52619373798020     -1.40043289365007
  H   1.99436111386445     -1.06992473941207     -0.89437751119933
  N   0.33456828729394     -0.88837968035556      1.17115768654549
  O   -0.18940720789390     -0.37353168572508      2.16241480831529
  O   0.57592281843983     -2.09758964024237      1.07748859132794
  C   0.34495987009334      2.18194035781547      1.21688979324320
  H   -0.66167138306997      2.03536548614809      1.60953918868091
  H   1.05851303477999      1.81089379232698      1.95229321131336
  H   0.51339360306004      3.25484027447918      1.06111958033106
  C   -0.41541894298745      2.02689763279444     -1.17314341186109
  H   -0.29579266115444      1.48734964191523     -2.11360836876063
  H   -1.45705246199850      1.94614668516393     -0.86250879124305
  H   -0.17371571914711      3.08430089725971     -1.33977655924914
