17
Coordinates from ORCA-job run
  C   0.65099651788611     -0.06114813430088     -0.00962544940628
  H   1.55347193233768      1.79755067555816     -0.30719622912564
  F   -1.09108708910743     -0.24881574609436     -0.19159094390292
  F   2.32038328152692      0.01218761395537      0.49270360771778
  C   0.54560244098888      1.46637111616642     -0.05027941569309
  N   0.94687326564241     -0.70975670569375     -1.22824684828445
  H   0.15656710549054     -1.29541844049087     -1.45552425045150
  H   1.78060663695534     -1.25990513603410     -1.08295171056063
  N   0.45818271576341     -0.92481827902875      1.23574588763719
  O   0.20171525097683     -0.39494977708665      2.30741988690952
  O   0.58544468970728     -2.13142866982153      1.06828457185487
  C   0.10937121772601      2.17754901864168      1.22874767163521
  H   -0.87826046132308      1.83367766392667      1.52922759350693
  H   0.81723307822470      1.96419523025706      2.02643569954910
  H   0.08000605054736      3.25570273268674      1.04412652513538
  C   -0.31961783940080      1.89080365131986     -1.15983855982458
  N   -0.94238879394215      2.38751318603894     -2.02291803669687
