17
Coordinates from ORCA-job run
  C   0.57943785173156     -0.05054612235301     -0.06845205007926
  H   1.69847078347453      1.74388574419252     -0.21461494030607
  F   -1.10918461454012     -0.12394740215476     -0.39268259101473
  F   2.25143536442768     -0.12198644705848      0.56840114006717
  C   0.65034081274198      1.48953847905152     -0.10103718136789
  N   0.95373484746003     -0.72548197973075     -1.24474674154277
  H   0.16610195007838     -1.27886511282001     -1.54644028169932
  H   1.75096258288385     -1.29887807617231     -1.01404890075845
  N   0.25894752705332     -0.86139351039648      1.18213556141273
  O   -0.05371209434453     -0.26911323138693      2.20341872809422
  O   0.32352131414048     -2.07768512112611      1.06031997377457
  N   0.29019852263859      2.12162747206974      1.25612170907026
  O   -0.88454621906154      2.43255347192274      1.44124994507946
  O   1.21213609177530      2.35947119625576      2.03116467056696
  N   -0.13624226896024      2.04710515619274     -1.14531456967899
  H   -0.10091896777889      3.05666581284087     -1.09839361586682
  H   -1.08405348372039      1.71685967067296     -1.03143085575109
