16
Coordinates from ORCA-job run
  C   0.59890581733611     -0.04808998802152     -0.01264932069938
  H   1.37286975844537      1.83626818885499     -0.44471058445297
  F   -1.15062811867227     -0.33211725777321     -0.16962644559331
  F   2.31082676743652      0.04735149207749      0.45678532168452
  C   0.43720334112049      1.45735248348216     -0.03280512917703
  H   -0.35810635844917      1.64649384813622     -0.75416288510822
  N   0.89121780650903     -0.68707173953526     -1.24363867526895
  H   0.14423709769921     -1.34672148332823     -1.40601448109305
  H   1.77003059577806     -1.16692139065827     -1.11329730723482
  N   0.47189145988820     -0.93307426927314      1.22000847117762
  O   0.22207372010779     -0.42417050063688      2.30421477695785
  O   0.63360838682564     -2.13545580711577      1.04247952182884
  C   0.12528297371902      2.17419459059101      1.27106591681088
  H   -0.81409786765181      1.81956240911862      1.69253288339204
  H   0.91529939903028      2.00959190228353      2.00222027504045
  H   0.04181522087751      3.25034752179829      1.07604766173553
