16
Coordinates from ORCA-job run
  C   0.41591233462181     -0.04293477659470     -0.02798669536097
  H   1.42920451034483      1.74401227208731      0.43456265547202
  Cl  -1.72477528561757     -0.28555771611019      0.42661335890160
  F   2.36871082364596     -0.01902254110264     -0.27780986157986
  C   0.45187823379197      1.47108835575704      0.04870602549597
  H   -0.30532434522052      1.82483797387967      0.74625662802350
  N   0.35697656967456     -0.77726922158637     -1.22970905140296
  H   -0.23806755053006     -1.58280447769469     -1.10643487859945
  H   1.31784868357213     -1.05165860570312     -1.39839133680090
  N   0.81750150292965     -0.76718169426593      1.24143406918887
  O   0.99119650913616     -0.08887690033321      2.24560046655566
  O   0.92339432231542     -1.98525030642691      1.17790797855862
  C   0.23730965868353      2.07112897151802     -1.33027308101807
  H   1.02811833105024      1.73352167978382     -1.99984524705937
  H   -0.72208490004002      1.75986499040198     -1.74604109669360
  H   0.26196060164192      3.16462199638991     -1.27234993368107
