14
Coordinates from ORCA-job run
  C   0.62437058747424     -0.06156521342131     -0.06535008498724
  H   1.53185560888989      1.87753404709589      0.23818000851411
  Br  -1.85423509487223     -0.23177556021991      0.07924472955970
  Cl  3.00256596493313     -0.07540182589008      0.00040437522044
  C   0.55094549203084      1.46155039787610      0.01233393999098
  H   -0.13471382394494      1.76112868719501      0.80189233601394
  N   0.65543744804101     -0.79335201877535     -1.26252021590436
  H   -0.17585790942405     -1.35443507754445     -1.36614525827993
  H   1.49112591743269     -1.35716427272611     -1.30432835266632
  N   0.69082920037761     -0.75957671351027      1.28018629228798
  O   0.69434202236363     -0.04839014690114      2.27728689032907
  O   0.74165172316816     -1.98080242914267      1.25984335221343
  C   0.09985100881658      2.02842006674279     -1.25386193845766
  N   -0.20553814528658      2.56507005922146     -2.25176607383415
