14
Coordinates from ORCA-job run
  C   0.54961553417187     -0.10010493602967     -0.17215925955686
  H   1.64923799217120      1.58295870713061     -0.85762007331265
  F   -0.99565380644250     -0.20131143535379     -0.51669849907332
  H   2.25765438219337     -0.06557413291736      0.49936729704129
  C   0.76555900668531      1.40606655894224     -0.24928005272280
  H   0.96659984040090      1.77862944410255      0.75321117711810
  N   1.00749881312738     -0.94554170718707     -1.22215621112973
  H   0.28902998796844     -1.64387603366603     -1.36953637614116
  H   1.86511751421630     -1.38179590718590     -0.92656235384370
  N   0.38421791618005     -0.66870475980948      1.20134413857491
  O   0.07243916062749      0.09556913376995      2.11703102431552
  O   0.41383886001117     -1.89766627660719      1.29888853921390
  C   -0.35454658129583      2.17558424996694     -0.82453700575547
  N   -1.15797862001516      2.89700709484419     -1.28589234472803
