19
Coordinates from ORCA-job run
  C   0.32113774190875     -0.09519357791710      0.06983017199706
  H   1.53697201404928      1.57585004862583      0.43924498475653
  Cl  -1.53883212646093     -0.43497234108722      0.77562237942944
  H   2.25328724421472     -0.10768772285311     -0.32930839031941
  C   0.50081892377110      1.43550937160799      0.13528212466763
  N   0.15505263449063     -0.75257474534739     -1.19353486531217
  H   -0.30050398727519     -1.63948873885789     -1.01079655537318
  H   1.09245798386934     -0.93699216338103     -1.52994405698675
  N   1.12590783417483     -0.82970662472596      1.08432484776604
  O   1.40211152165541     -0.21809641563778      2.13203140099081
  O   1.16629835166419     -2.06713636469171      0.97864687416625
  C   -0.35254473850001      2.18841864482633      1.15976162542262
  H   -1.39827606763793      2.26491748341726      0.85888255617714
  H   -0.30020793874116      1.70356532093533      2.13312877982801
  H   0.05500360858043      3.20273386056780      1.25274347801230
  C   0.32123011231009      2.03733048009473     -1.25194090759822
  H   1.04078503309050      1.61038471056841     -1.95252296199812
  H   -0.68229360325692      1.83801887327421     -1.63522446813578
  H   0.47382545809289      3.12170990058130     -1.20486701749022
