13
Coordinates from ORCA-job run
  C   0.65803506072487     -0.01629280572125     -0.05926888661777
  H   1.54758081211656      1.85984989446648     -0.45893861949896
  F   -1.11429258421489     -0.15951922288838     -0.12119278492607
  F   2.39938498703549     -0.06930643540982      0.28751136332718
  C   0.62047892428607      1.48535585129835     -0.03147745574167
  H   0.53142905951301      1.82373417116221      0.99898809554284
  H   -0.23910902112954      1.82425796354681     -0.60451920133565
  N   0.81648856476188     -0.73460057081224     -1.26863913088251
  H   -0.00005171571087     -1.31958989321249     -1.36465678058779
  H   1.65383857691043     -1.28845026061972     -1.16741529520703
  N   0.52435432528833     -0.78944749908963      1.24447783192717
  O   0.38331705797003     -0.16444268359753      2.28762760148173
  O   0.56850595244866     -2.01207850912278      1.16683326251852
