14
Coordinates from ORCA-job run
  C   0.78979967954060     -0.05410884827362      0.00172352811374
  H   1.54946707910295      1.96939049131045     -0.10710991120575
  F   -1.14752593225293     -0.12444764566657      0.04750406500311
  Cl  2.94495435648750     -0.10980089580022      0.23311762643484
  C   0.59632123075793      1.45559128083339      0.01979152872143
  H   -0.02637778711990      1.65124522565365     -0.85247105718516
  N   0.75605296666866     -0.70039924971061     -1.24918569848258
  H   -0.19671704743175     -1.03590509457873     -1.33324009882432
  H   1.41160783209809     -1.46788732789634     -1.25619161864393
  N   0.61148784487715     -0.88036936839966      1.26135389096162
  O   0.59328190631215     -0.29365476037961      2.33169157254917
  O   0.53383164523059     -2.09046905056180      1.10024057887038
  C   -0.09409235609623      2.04017862792600      1.16585973695580
  N   -0.60816141817482      2.67138661554369      2.01117585673164
