18
Coordinates from ORCA-job run
  C   0.50176774456786     -0.05067342549929     -0.07773975735869
  H   1.56933277497808      1.61238638573167     -0.65261897315450
  F   -1.00949097328369     -0.31104981493918     -0.58598651016759
  H   2.08202657235317      0.09445810203002      0.82390848220419
  C   0.59583234485028      1.48896072722775     -0.16499045931261
  N   1.14055439436410     -0.75495455235482     -1.14492783313269
  H   0.54177473052447     -1.54232547249019     -1.36038099421292
  H   2.02714306377815     -1.09196289017630     -0.80494420080435
  N   0.22440359545140     -0.83149432119738      1.18046504871390
  O   -0.31598261768209     -0.26742840478771      2.12828930780978
  O   0.44845376375489     -2.04353011590284      1.13292644132326
  N   0.55558437278415      2.17602022596365      1.12947417569953
  H   1.03305024035336      3.06269829856558      0.99217599871006
  H   1.14924781879205      1.62435110229176      1.74535686897737
  C   -0.45782863162496      2.11445284193188     -1.07354674293193
  H   -0.46259461469500      1.62995627627575     -2.05075218341397
  H   -1.44327686482109      2.02459039065467     -0.62181424966378
  H   -0.22029771444512      3.17824464667498     -1.20647441928505
