17
Coordinates from ORCA-job run
  C   0.53654554063743     -0.08254798416926     -0.02705678851520
  H   1.56785178699908      1.69489999792591     -0.24285154055835
  Cl  -1.64188363867756     -0.34783213548099     -0.17197788523717
  F   2.37851838428522     -0.00184277831789      0.44902700676924
  C   0.52469105481963      1.44922400027974     -0.03698360017784
  N   0.86201396453875     -0.72009952049015     -1.23893044633248
  H   0.23743405296365     -1.49571573098925     -1.40377812956809
  H   1.81526892614340     -1.04015927660509     -1.12300181707997
  N   0.52355839642966     -0.92945035753907      1.24344603191949
  O   0.33464863450792     -0.38759576841866      2.32109907019430
  O   0.69941639699692     -2.12712061188239      1.07333027989524
  C   0.10442891290498      2.18182613834926      1.23478456604282
  H   -0.89794395064884      1.88601160140953      1.54093109135406
  H   0.80426306490223      1.95102429658089      2.03376573552919
  H   0.11762932346190      3.25745260776267      1.03675749291993
  C   -0.23757476605396      1.95541749313695     -1.18495946047794
  N   -0.75376608421042      2.51581802844780     -2.07908160667724
