16
Coordinates from ORCA-job run
  C   0.82268105310534      0.04463097552369     -0.01721189414247
  H   1.61694969382158      2.03938658244467     -0.21037290488984
  F   -1.11442023036972     -0.02775283072921      0.26859175838103
  Br  3.20739736834443     -0.00156555821987      0.05739178829118
  C   0.63570440950506      1.58664291194724     -0.06380217739234
  N   0.70734647564236     -0.68402783376423     -1.19876308189413
  H   -0.29089623224109     -0.82344942995663     -1.32552832493691
  H   1.17931022146252     -1.57268887826793     -1.09923638349437
  N   0.80321468364069     -0.71559960315724      1.30315857862774
  O   0.90329583367071     -0.08786715965406      2.34825066726535
  O   0.70240344368140     -1.93070408334634      1.21389594051204
  N   -0.00603135911405      2.23978408518090      1.05914064551764
  H   0.59706113665029      2.12153192629257      1.86278038500137
  H   -0.83830338733665      1.68291910919881      1.22893648899909
  C   -0.14321989124838      1.88857444166798     -1.27854703284268
  N   -0.71992321921449      2.21560534483964     -2.24710445300271
