18
Coordinates from ORCA-job run
  C   0.53665782734410     -0.04230886373003     -0.03883075750728
  H   1.59670103741265      1.57774403081085     -0.58117445036622
  Cl  -1.64257836596741     -0.48290504673166     -0.57916989609674
  F   2.26797149842960      0.03769759470650      0.78673130566087
  C   0.59580216579904      1.48280374060710     -0.14131480346906
  N   1.04859875212534     -0.73321232001350     -1.15244030723204
  H   0.54672074736352     -1.60406068115567     -1.25683041420686
  H   2.01392111166796     -0.92116002659192     -0.90214606689477
  N   0.26227562797308     -0.85919575006290      1.22156827064624
  O   -0.12976898033081     -0.28853740158719      2.22513408611368
  O   0.47618228943813     -2.06067214654350      1.12498908174529
  N   0.51358090602773      2.16792040307591      1.14501570692134
  H   0.84870387995927      3.11330342276698      0.98598408566500
  H   1.18539976909427      1.70832934240639      1.74917678599338
  C   -0.37149333541639      2.12631338148239     -1.12057410179444
  H   -0.39791187505109      1.57317391978934     -2.05820418234264
  H   -1.37280284566984      2.17061923769597     -0.69920041013263
  H   -0.01826021019910      3.14684716307490     -1.32029393270307
