14
Coordinates from ORCA-job run
  C   0.53445379547527     -0.06921279055540     -0.07711168513319
  H   1.64767756312628      1.71923426504721      0.07062507871861
  Br  -1.80406223052653     -0.20773998343113      0.01459123280167
  F   2.48570996439128     -0.10462290185263      0.10418666271983
  C   0.59729862996128      1.44940254302678     -0.02625808980810
  H   0.05271635512832      1.81159121912135      0.84433853135304
  N   0.68578832568198     -0.79036704756222     -1.27037678365337
  H   0.04250546406881     -1.56659075130611     -1.30333932084780
  H   1.65137444678971     -1.09709067266776     -1.26791128539683
  N   0.66633020198835     -0.76780970853434      1.26392733953334
  O   0.67744034460118     -0.06842715060212      2.26797939648239
  O   0.74409933528190     -1.98716098689722      1.23644844873537
  C   0.05238291674145      2.06322594605239     -1.23217835075351
  N   -0.32108511270927      2.64680802016119     -2.17952117475144
