17
Coordinates from ORCA-job run
  C   0.51879941132164     -0.08534880564486     -0.03106781415033
  H   1.57500257725898      1.67296499459653     -0.23908676083140
  Br  -1.81863601556661     -0.38787513473788     -0.17067030471804
  F   2.39715522666460     -0.00536927570625      0.44887529125287
  C   0.52582108811347      1.44641712317948     -0.03749306551713
  N   0.84513146761007     -0.72023152343487     -1.24339792191979
  H   0.27511627636561     -1.54452285665766     -1.36806038252601
  H   1.82214067980562     -0.97258197767080     -1.14159058997236
  N   0.52700901467377     -0.93052692049165      1.24097591957202
  O   0.34114807177483     -0.38783203911063      2.31877282626788
  O   0.71387835237481     -2.12661702172311      1.07074804772514
  C   0.11872593171474      2.18490155721810      1.23554404560873
  H   -0.88753579052083      1.90424684751465      1.54439427886084
  H   0.81756440332529      1.94403765866104      2.03237029048714
  H   0.14710721280926      3.26004966563877      1.03647442017019
  C   -0.22318836598924      1.96756136550737     -1.18724077775758
  N   -0.72013954173600      2.54003634286179     -2.08502750255217
