19
Coordinates from ORCA-job run
  C   0.50904472566385     -0.06501282430765     -0.05100342545962
  H   1.59927373391150      1.62098969733345     -0.31002378702203
  Br  -1.85277347708229     -0.46370199881659     -0.34762081667209
  F   2.38265528265245     -0.03709337905155      0.61098190468036
  C   0.54426184185240      1.45738869162454     -0.07955113487387
  N   0.92126524674168     -0.72368924447063     -1.22207285068778
  H   0.49330275844203     -1.64011674174760     -1.24771128759740
  H   1.92282534276103     -0.82657548096011     -1.07226538103574
  N   0.41243225409456     -0.92459316773648      1.21071201435354
  O   0.12561555225771     -0.39420255117450      2.27199532743534
  O   0.61795666488610     -2.12067744556145      1.05294534514001
  C   0.25492880234986      2.17635069557806      1.22943729128086
  H   -0.75887689557601      1.97048144912368      1.57730294486114
  H   0.96016018560517      1.87144261628979      1.99883703773417
  H   0.35410590363841      3.25448603476894      1.05682817450005
  C   -0.26258758379493      2.06397949339202     -1.22841681183644
  H   -0.19226960015035      1.44358594941098     -2.12149716770487
  H   -1.31413377899924      2.17974344985612     -0.96764375276432
  H   0.15504304074607      3.05380475644901     -1.44987362433132
