17
Coordinates from ORCA-job run
  C   0.69860545543271     -0.05909379793355     -0.04163478261442
  H   1.54773381238125      1.86239531496708      0.39611457406023
  F   -1.21833676679767     -0.14420735272170      0.38037761734231
  Cl  2.81012641581337     -0.10545589218236     -0.38208998728531
  C   0.57835243372667      1.46866476808843      0.08682102780152
  N   0.36035026777989     -0.76555340771739     -1.21235191609387
  H   -0.57004240574371     -1.12636700098731     -1.03994273238266
  H   1.02631212745864     -1.50588821537832     -1.37397992990836
  N   0.80611680222629     -0.81223427056755      1.26860879180292
  O   0.99879790337614     -0.14844791323780      2.27869684591817
  O   0.72714038510673     -2.03158165740398      1.21220064258588
  C   -0.37642420369784      1.95783981212074      1.08730494005994
  N   -1.03150810499893      2.58262956961849      1.83673778570874
  C   0.22068087616080      2.04672618677982     -1.28091596560140
  H   0.96532255762603      1.74189942041825     -2.01577987627259
  H   -0.75218399099132      1.66087709065332     -1.58083575443123
  H   0.18268643514094      3.13759734548383     -1.22216128068987
