15
Coordinates from ORCA-job run
  C   0.68140892021030     -0.08787924750569     -0.02145852435467
  H   1.58479797882918      1.85999798092220      0.16146486298390
  Cl  -1.69465603356323     -0.17897343207747      0.11431183498407
  Br  3.11973959614764     -0.10326867296424      0.06678080632660
  C   0.57387123719091      1.45459067466208      0.05877299383552
  N   0.67091370327214     -0.74468442310740     -1.25699198181682
  H   -0.23145586751073     -1.16291545205509     -1.43292247823108
  H   1.41580978011814     -1.42290190081769     -1.30705385780442
  N   0.68639767744450     -0.85842684889508      1.28407001952843
  O   0.74421648759847     -0.20592305826983      2.31671789214249
  O   0.66024956129425     -2.07560266603895      1.18495453587923
  C   -0.19802056513630      2.03519425744931      1.16328769894841
  N   -0.70347748452482      2.67526651113718      2.00906671908447
  C   0.05295029095365      1.96720153494854     -1.21284425795716
  N   -0.28614528232408      2.47084474261214     -2.21782626354897
