17
Coordinates from ORCA-job run
  C   0.70341577256180     -0.04264655021623     -0.02763257425269
  H   1.66554672485195      1.70264366860362     -0.60230902794417
  F   -1.30819355804708     -0.29347087706682     -0.52540325570032
  Br  2.92562944645988     -0.19533753837318      0.83073131112591
  C   0.69370210120912      1.48054925643493     -0.14192168285740
  N   0.96511378623454     -0.76197365190007     -1.23586498103236
  H   0.01547883007657     -1.00893462961280     -1.51899728259472
  H   1.48583880793289     -1.60050769715382     -1.01190961177831
  C   0.14073878149204     -0.69519627810753      1.14274108711519
  N   -0.20246029932287     -1.27325858212467      2.11012629478019
  N   0.54598625842923      2.06375275952938      1.18806977280970
  H   0.54742918190228      3.07326589179240      1.09477066319437
  H   1.35653260948154      1.80322396878870      1.74091072092407
  C   -0.37325392850418      2.04885279708624     -1.06537657800818
  H   -0.31356805031303      1.58252674021065     -2.04823258954482
  H   -1.35888214894591      1.86206995320656     -0.65339900130506
  H   -0.18523431549875      3.12596076890265     -1.17690326493141
