15
Coordinates from ORCA-job run
  C   0.46724937999302     -0.07954570863867     -0.03956822904946
  H   1.51621336362319      1.56981074211746     -0.67203640593737
  Br  -1.89171539743002     -0.42059902372943     -0.57341272196959
  F   2.28372768519486      0.02793573176041      0.60756488479283
  C   0.56401912339852      1.44720917304132     -0.14194852331504
  N   0.92057710686975     -0.81877558437467     -1.17487263389066
  H   0.29928979066633     -1.59520336262083     -1.34930752922247
  H   1.85092898887882     -1.13547931050887     -0.92641855823315
  C   0.20313142499317     -0.70806877070526      1.24255945891118
  N   0.04679310871512     -1.27816226620606      2.26083901439081
  N   0.57490119611822      2.01755062919145      1.19986816412961
  H   0.65161327318099      3.02575425498903      1.13339428749298
  H   1.42034984869116      1.64671736353368      1.62285716248369
  C   -0.43560037135642      2.14383496671698     -0.96190350480192
  N   -1.06478852153670      2.89126116543349     -1.61505486578145
