16
Coordinates from ORCA-job run
  C   0.43840915111211     -0.03619777485417     -0.07692200545133
  H   1.54585308888338      1.59100320883667     -0.66432112582360
  Br  -1.96235029227537     -0.39311173106073     -0.55964382858332
  F   2.30157139099508     -0.00359289281170      0.60765286376767
  C   0.57543266999998      1.48813202097750     -0.16732652530279
  N   0.87151391046264     -0.78895076220804     -1.20496940117131
  H   0.32290543408483     -1.63491382545314     -1.27508855194382
  H   1.84032976912105     -1.00277277290065     -0.98705760150276
  C   0.18030157227909     -0.68244335254098      1.19987375345664
  N   0.01522987697528     -1.26202157166089      2.21166472093974
  N   0.58932543403927      2.00553871326467      1.20137508608476
  H   0.77394955003566      3.00210031555895      1.15670332133323
  H   1.38676876627680      1.55749689909084      1.64566829283440
  N   -0.38189876838711      2.15187873260234     -1.02259618655011
  H   -0.10160092149170      3.12436482471171     -1.09934521972089
  H   -1.29930063211101      2.10379996844760     -0.59523759236653
