17
Coordinates from ORCA-job run
  C   0.47432820716946     -0.06368618691936     -0.06916192136266
  H   1.61324629650331      1.50529149593504     -0.68972811326643
  Cl  -1.73778887725037     -0.42874965179607     -0.72148412790614
  F   2.27922617508114     -0.06878299480621      0.72873554925557
  C   0.63649644208727      1.44706653416922     -0.19145024925456
  N   0.97050446829053     -0.83682168209992     -1.15964843582127
  H   0.41173838459740     -1.67290023480838     -1.25900834118527
  H   1.91872769368001     -1.06395271221143     -0.87671827887058
  C   0.10522876073319     -0.67794607692210      1.19479780874949
  N   -0.15760420626943     -1.22634746212215      2.20239787467721
  N   0.66226029422621      2.01910314358933      1.14908852265837
  H   0.82020049292721      3.01749972268939      1.07210082538953
  H   1.46628055538409      1.59481994632280      1.60169450230180
  C   -0.36336731531744      2.18821512354459     -1.06035844443652
  H   -0.46370659045802      1.70381471152349     -2.03037654587709
  H   -1.33916706435883      2.22378675917589     -0.58093469423459
  H   0.00721628297425      3.21110956473592     -1.21054593081684
