15
Coordinates from ORCA-job run
  C   0.35558202649104     -0.05749659662567      0.04409679529056
  H   1.37172583381834      1.76601045169885      0.52998238526937
  F   -1.19787001076151     -0.20176526358111      0.58406209309381
  H   2.15425036759427     -0.04074388549751     -0.45110609608345
  C   0.43787675932353      1.46920488438241      0.05361530225302
  H   -0.40035405462115      1.83125006005482      0.65900613983653
  N   0.08423706776239     -0.78577935545971     -1.18484728750912
  H   -0.60217689609436     -1.49271029332610     -0.94831072861471
  H   0.94952259021043     -1.20222443051254     -1.49137591712812
  C   1.01367235462391     -0.73540724657546      1.14603276737445
  N   1.37355633032439     -1.31482204093920      2.11083996087799
  C   0.36385302396347      2.06543796080794     -1.34163511445935
  H   1.20411911656592      1.69819034130462     -1.93433678178181
  H   -0.56002545376276      1.76819056892912     -1.83950314373576
  H   0.40591094456206      3.16000484533956     -1.29330037468344
