12
Coordinates from ORCA-job run
  C   0.54398128051363     -0.03170341179312     -0.02740115901273
  H   1.78249351270564      1.65615279925702     -0.25177550557121
  Cl  -1.69868849915399      0.05124954209923      0.03793308029589
  F   2.50635919632896     -0.29601047874488      0.13036089861506
  C   0.73710460043574      1.46398470925506     -0.02636431951808
  H   0.48092733162434      1.87909849652672      0.94894586713497
  H   0.08765664152059      1.90254023004913     -0.78157766622886
  N   0.60380251204089     -0.71844633013997     -1.28379440326841
  H   -0.05900260869090     -1.48182850176513     -1.27774979914665
  H   1.55605790317701     -1.06946043686332     -1.30053775819237
  C   0.58456368790206     -0.77095603587470      1.22479151837101
  N   0.56882444159602     -1.38633058200604      2.22747924652137
