15
Coordinates from ORCA-job run
  C   0.50535256273222     -0.10028531832817      0.01122051205096
  H   1.73038344262983      1.60712759769135      0.13724236340526
  Br  -1.86348165101671     -0.04043832195029      0.09032693757608
  F   2.44772518874696     -0.17761905221869      0.05684863955443
  C   0.65819762924804      1.42947717890835      0.02409028458042
  N   0.56492386328067     -0.72161092267773     -1.27408915068365
  H   -0.17166777724911     -1.40472832422894     -1.37228025484923
  H   1.48786470554507     -1.13455575819531     -1.32491431926372
  C   0.59782742440352     -0.88003239897705      1.22859223257210
  N   0.66033632063920     -1.62375271860692      2.13947336752570
  N   0.03330761286665      2.11164168314209      1.21521936691770
  O   -0.62056889681790      3.13135162296548      1.02894185516913
  O   0.31402935381671      1.62437277617131      2.30380215931726
  C   0.18571740988581      2.03325804064175     -1.21415769134232
  N   -0.10894718871099      2.57835391566276     -2.21155630253013
