17
Coordinates from ORCA-job run
  C   0.47018985313732     -0.11257246065575     -0.06507010409681
  H   1.57545639171497      1.54241336045637     -0.60994156210082
  Cl  -1.65614043412548     -0.49805831883234     -0.66662069859449
  F   2.26002143735387      0.02472926395201      0.68611909514259
  C   0.57440373985517      1.40511326876134     -0.21403674607219
  N   1.01588875398586     -0.81284891292400     -1.19110535609557
  H   0.46643479334263     -1.64174208125741     -1.36963739378158
  H   1.95691868047020     -1.05088606662598     -0.89657723307657
  C   0.22166255311887     -0.80325859377340      1.18759603998517
  N   0.03415299855803     -1.47031436536899      2.13873756229637
  N   0.60982605227764      2.09217003798907      1.10962765473486
  O   1.43015929666063      2.99917283839003      1.24141910928685
  O   -0.23706360254353      1.77988843163706      1.94303571892156
  C   -0.42869095516604      2.14434427676006     -1.07901793631954
  H   -0.49368867569173      1.64783302996268     -2.04572488930564
  H   -1.41713686516911      2.15653934171681     -0.62570848530377
  H   -0.06426401777930      3.16731694981247     -1.21749477562044
