18
Coordinates from ORCA-job run
  C   0.59985516526145     -0.04802337414110     -0.04293320198880
  H   1.66272952984834      1.71983771058505     -0.30459200033358
  F   -1.20266807799317     -0.15926644412576     -0.23658950813272
  F   2.35742844860031     -0.14095197707883      0.38042679168335
  C   0.61857448136716      1.47979290890227     -0.09642618809706
  N   0.81609638195291     -0.77842642384331     -1.26211138498649
  H   -0.00785367347934     -1.34559786216725     -1.40449463042125
  H   1.63937209297466     -1.34403455812446     -1.11128763604613
  C   0.38173794774813     -0.75813437847835      1.21982289331981
  N   0.21051419942376     -1.35374913591984      2.21870426671921
  C   0.23934947629254      2.07608579404493      1.25204459856415
  H   -0.77645872740798      1.77123243524976      1.51422633155823
  H   0.92284485617207      1.73096844114892      2.03111290564385
  H   0.28147030181733      3.17034836090939      1.21297211185477
  C   -0.23160297977833      2.05230118730993     -1.22530575178083
  H   -0.04044674077268      1.50320970725251     -2.14855123673621
  H   -1.29182411467307      1.97460389105090     -0.99462160756096
  H   0.03723143264591      3.10521371742525     -1.38005675325936
