15
Coordinates from ORCA-job run
  C   0.59796261008381     -0.04580642601297     -0.05164858316866
  H   1.73773553856635      1.74035212391778     -0.17517588400547
  F   -1.17293138731485      0.00219054939902     -0.10860635102098
  F   2.39402842412574     -0.17856285210068      0.19817576472459
  C   0.68342348192312      1.49268323188343     -0.06997168280887
  N   0.69032833109142     -0.75892973867352     -1.28504754976793
  H   -0.15190555400161     -1.30666453019015     -1.38228451160001
  H   1.51773659712113     -1.33366031974552     -1.22560029073675
  C   0.49283442376971     -0.75469182552472      1.22546548444803
  N   0.38740581887918     -1.38699117720509      2.21039153944797
  C   0.22228300637192      2.03677564916577      1.22508534669495
  N   -0.11987710700927      2.58540230490308      2.20675049443807
  N   -0.05577150006536      2.06106787126098     -1.19444211130151
  H   -0.13096517710662      3.06219884257689     -1.05417289763406
  H   -0.98181750643469      1.65204629634569     -1.13973876770934
