15
Coordinates from ORCA-job run
  C   0.40530269444085     -0.05903167580672     -0.05753661434230
  H   1.41958214593892      1.69448899409687     -0.50624364372125
  Br  -1.98114953878358     -0.32567727587831     -0.31388240588507
  F   2.37660094875330     -0.01604501800393      0.43513670085767
  C   0.44398537384070      1.45187896084926     -0.08549380023366
  H   -0.33123836007502      1.80299686559541     -0.76717260006977
  N   0.75574472741392     -0.73034279115532     -1.26517781033635
  H   0.32375793013598     -1.64543711978574     -1.27756904250301
  H   1.76519190641368     -0.82122364089757     -1.16243028112024
  C   0.36375918642153     -0.78348161389374      1.20158988100068
  N   0.29316065897558     -1.39966085920678      2.20272316475517
  C   0.30265360362587      2.07327273377954      1.29277397442691
  H   -0.64686520264684      1.79120084507692      1.75416547915132
  H   1.12430038948799      1.72830593836230      1.92134879738606
  H   0.34176353605711      3.16511565686780      1.22719820063384
