15
Coordinates from ORCA-job run
  C   0.55873929171881     -0.04190779492849     -0.03444600151792
  H   1.42474967345566      1.82189053720570     -0.46828595956935
  F   -1.23543959677855     -0.23585142804738     -0.20196819714250
  F   2.33304965136958     -0.03178671109410      0.33373899272153
  C   0.47403515016272      1.46740106789270     -0.07019948031751
  H   -0.32442998160178      1.71299979980044     -0.77036949945821
  N   0.78462799642719     -0.73676076986286     -1.27362723052258
  H   -0.00558874099283     -1.35270293190000     -1.40182898215416
  H   1.64622312115718     -1.25051716356231     -1.15613786729116
  C   0.41284159778293     -0.78142973964541      1.22164343406897
  N   0.29897683214297     -1.39756607851129      2.21611801235882
  C   0.19894075711316      2.07630955975533      1.29522360352954
  H   -0.74288461552652      1.68981914684309      1.68929062392023
  H   1.00308090673724      1.81885862544149      1.98768756539746
  H   0.12962795683226      3.16760388061308      1.23259098597685
