14
Coordinates from ORCA-job run
  C   0.40602117996520     -0.02828723838663     -0.01339811755315
  H   1.24105841351196      1.73638322835236     -0.70185737254227
  Cl  -1.82226626004772     -0.32136672623722     -0.45379523260021
  F   2.29134161944930      0.08793744510172      0.54412639061309
  C   0.42440005832751      1.48733661429342     -0.01432824684647
  H   -0.50774024800815      1.87474207002294     -0.42170113579011
  N   0.82396052254948     -0.69438049221853     -1.20576213421306
  H   0.26950523353266     -1.52908124789471     -1.33453908328432
  H   1.79521819294088     -0.92523615656484     -1.02462259006189
  C   0.24269188410421     -0.76434165536766      1.22985212098853
  N   0.13509561193188     -1.43151473814561      2.19297607664763
  N   0.61323927578689      1.98465956494420      1.34031927791512
  H   0.59245128627817      2.99677994470400      1.33207466160895
  H   1.53904322967773      1.66883938739657      1.60714538511818
