14
Coordinates from ORCA-job run
  C   0.50462651948026     -0.08186312164451     -0.01680197315839
  H   1.42811450219662      1.80003541836556      0.35605342401268
  Cl  -1.68347403940566     -0.39018621718034      0.15545641586945
  F   2.45109588729152      0.04967070037326     -0.01407639653246
  C   0.44945877870067      1.44296793882358      0.05549469869175
  H   -0.35203160869279      1.78773335177272      0.70081896268564
  N   0.60085322639045     -0.73989805789983     -1.27725392322380
  H   0.04263789291888     -1.58059839261661     -1.27044967243233
  H   1.58844283228759     -0.93073353220622     -1.39323022380856
  C   0.74458243231829     -0.74762825023963      1.25192968063790
  N   0.90730370665875     -1.30389166690104      2.27574819313275
  N   0.18793620462315      2.02288024027682     -1.28861201090730
  O   1.12975831763312      2.06155613694495     -2.07609505184357
  O   -0.94291465240084      2.45148545213128     -1.51956212312377
