12
Coordinates from ORCA-job run
  C   0.45334683577791     -0.02898493144529     -0.01654643972124
  H   1.78645178749014      1.67057189592111     -0.18855623219215
  Cl  -1.62559506743123      0.04923820113938      0.08721873619907
  H   2.34155578235726     -0.40366283134402      0.29143773606237
  C   0.73292709572975      1.46417458152026     -0.02062181779410
  H   0.41840176210598      1.89673020888055      0.93219493514148
  H   0.14070971736639      1.90352766799950     -0.82378336350393
  N   0.55860025598844     -0.67917685155759     -1.31522405360758
  H   -0.09185697682204     -1.45784379039286     -1.31850769724295
  H   1.50304543599317     -1.04037988621922     -1.36616382491039
  C   0.80021155899941     -0.78014887748368      1.17531260331114
  N   0.67628181244482     -1.39575538701814      2.18354941825829
