16
Coordinates from ORCA-job run
  C   0.48161085816792     -0.07722132669280     -0.03106591529225
  H   1.58055163545228      1.52522040903774     -0.77320544405752
  Cl  -1.75476330187886     -0.21836744888968     -0.47953583472102
  F   2.27025038685815     -0.05453953840681      0.56627957384601
  C   0.67414625465379      1.43722586822446     -0.16991307395272
  N   0.85635676243528     -0.90444100029601     -1.13047652446610
  H   0.11381908171020     -1.55458595801108     -1.33911370226794
  H   1.70391280948164     -1.37778912601718     -0.84610419869999
  C   0.17722078281980     -0.63545665801128      1.27865503653017
  N   -0.00568071709812     -1.16584675245443      2.31284249480955
  N   0.70560708215267      2.03438834889261      1.13261523738546
  H   0.77030370428575      3.04051319125085      1.06051279286901
  H   1.53362532828317      1.65458212498814      1.57583754833304
  N   -0.34211038347266      2.16184140684553     -1.02816147822294
  O   -1.08108803261789      2.98914862247386     -0.50310979833341
  O   -0.27743225123313      1.93103783706605     -2.23045671375934
