14
Coordinates from ORCA-job run
  C   0.64528933402149     -0.08889236600537     -0.01253462286385
  H   1.69353073607888      1.77298512956098     -0.11966369831633
  F   -1.13111203451628     -0.02817107000929     -0.01024807720416
  F   2.39219994775263     -0.14148601323769      0.12996024111730
  C   0.65244660370935      1.45459395460997     -0.03175080052610
  N   0.67263465568634     -0.76130082014813     -1.26947820069546
  H   -0.19833330311069     -1.25994430046482     -1.37531247155326
  H   1.47866199429120     -1.36790536370033     -1.28130002138210
  C   0.56613120295629     -0.79794631089367      1.26541282110829
  N   0.51097866857606     -1.42284057046181      2.25881592685895
  C   0.09762017886274      2.02996813471909      1.19594913619489
  N   -0.28491830285445      2.54239225333437      2.18031787864813
  C   -0.08536014776747      1.96891748573755     -1.19042937478937
  N   -0.58904953368611      2.48096985695915     -2.11842873659694
