13
Coordinates from ORCA-job run
  C   0.66157019726063     -0.07615803158353     -0.04278968890475
  H   1.75539824973264      1.76154733284670     -0.15976391191600
  F   -1.12072487463277     -0.00414848664251     -0.00892770006783
  F   2.42780834935150     -0.21929194993939      0.09862687218190
  C   0.71697428865024      1.44868201852564     -0.06291254897002
  H   0.31111580017408      1.83065745640608      0.87594772814251
  N   0.66166759934213     -0.79247256909948     -1.28100987167976
  H   -0.22393668944210     -1.27093840734868     -1.35430436306631
  H   1.44541402121090     -1.42761585977542     -1.26337041684997
  C   0.58169852372096     -0.75207271109267      1.25483839840167
  N   0.52063169760098     -1.31547044678397      2.28405523654567
  C   -0.06136438776346      2.02163039615349     -1.15985086324381
  N   -0.61950277520573      2.58571125833378     -2.02415887057326
