14
Coordinates from ORCA-job run
  C   0.54862891615518     -0.09955616018820     -0.08662503570360
  H   1.80954961918597      1.38925125779050     -0.85584178395434
  Br  -1.84256365941687     -0.01678311060737     -0.14344612774465
  F   2.46485573747106     -0.27327715059799      0.22369196610870
  C   0.88889968770290      1.37188351006187     -0.28204678339468
  H   1.01655367463917      1.85858493693235      0.68080242569680
  N   0.67074580160444     -0.98125729280000     -1.20356302365884
  H   -0.07979881396676     -1.65618155521603     -1.19518473334507
  H   1.57515890155414     -1.42194747772131     -1.08254177790078
  C   0.48491790153219     -0.59977491789414      1.27791729492173
  N   0.42921266534746     -1.03309595384574      2.37081309267744
  N   -0.08022681193484      2.20581115057044     -1.05416126750119
  O   -0.63685006727627      3.12793764057185     -0.45748539947886
  O   -0.19269355259776      1.96993512294378     -2.25290884672268
