16
Coordinates from ORCA-job run
  C   0.55120496659592      0.00131428382908      0.02970571404958
  H   1.65931528837360      1.86802975723854      0.08253019423719
  F   -1.05605267138249     -0.11808360200532      0.31524663926626
  H   2.40129932807841     -0.05809853831354     -0.08549125356590
  C   0.62468049530098      1.55177841266034      0.04367435177587
  N   0.49277161783246     -0.70162780935496     -1.22802475411222
  H   -0.22232306843833     -1.41289653925945     -1.13707780345858
  H   1.40022119863892     -1.09831546335606     -1.41190758829227
  C   1.06657279337740     -0.59884142490140      1.23800720941368
  N   1.22715447038216     -1.09033894925894      2.30374205216450
  N   -0.14461135673459      2.20919504568339      1.06495960657001
  H   0.36521322053231      2.11693131843795      1.93590072327070
  H   -1.01139834667451      1.69196273496345      1.15407619329726
  N   0.13566317522338      2.02355146167554     -1.29914280995991
  O   0.99039773953983      2.25371513915102     -2.15248722704427
  O   -1.07377885064545      2.14743417281038     -1.45811124761185
