15
Coordinates from ORCA-job run
  C   0.53320256951496     -0.05141745509359     -0.00169841570902
  H   1.49428568514176      1.81107470149727      0.41553910588240
  Cl  -1.83892273382429     -0.14787282838389      0.48724692870276
  Br  3.05560199504131     -0.17464621195137     -0.44562319798123
  C   0.53146424346919      1.47440030953989      0.03276552142096
  H   -0.23337366216842      1.80260156593091      0.73534661518654
  N   0.30921159537085     -0.77925018566303     -1.22079538732304
  H   -0.58418243853095     -1.24722193360404     -1.15728094932796
  H   1.05470933297214     -1.44891090067953     -1.34661155256881
  C   0.77477446010333     -0.74140350760744      1.24745903688560
  N   0.95886975056079     -1.29985590014903      2.26994872728722
  C   0.27340209682186      2.06928766934781     -1.33996981189878
  H   1.04538882695986      1.75579103387199     -2.04279564237730
  H   -0.69534953785013      1.74285388200383     -1.71864891498100
  H   0.27479781641774      3.16190976094021     -1.27166206319833
