14
Coordinates from ORCA-job run
  C   0.29656179258601     -0.04061040902774     -0.02904813287179
  H   1.34502556057262      1.69817972515994     -0.62728652239002
  Cl  -1.73785315894676     -0.27293124688892     -0.31403657478317
  H   2.20972783975154      0.02481182164956      0.62101477214923
  C   0.45349039389284      1.47821537724638     -0.03317270864710
  H   -0.41100108510717      1.90315130130876     -0.54954593715628
  N   0.74657695437376     -0.66981522515149     -1.25707023203603
  H   0.24494750626335     -1.54408612962583     -1.36415512476541
  H   1.73134792689554     -0.86053192925936     -1.11779556043978
  C   0.45162758430911     -0.75995136099438      1.22198637370969
  N   0.29779604574164     -1.44320587813566      2.17595973298157
  N   0.49036493825187      1.99887084895664      1.32704147317936
  H   0.58287471142821      3.00755699874194      1.28444378166088
  H   1.34253298998743      1.62281610602016      1.73815465940882
