15
Coordinates from ORCA-job run
  C   0.70313295010299     -0.07750427739387     -0.00026745606232
  H   1.53423798504930      1.74891292486710     -0.59352321530552
  F   -1.25391818071081     -0.21743632482004     -0.40847589513329
  Cl  2.75387117098377     -0.07620592859424      0.68749137431414
  C   0.60586157640964      1.44624762448733     -0.09119008018765
  N   0.94130186717101     -0.75187004447953     -1.23761453042817
  H   0.01151928230595     -1.05120521313612     -1.51660085714331
  H   1.54492673457005     -1.54747488888229     -1.07780498000116
  C   0.20057390236030     -0.76310947811803      1.17944494977950
  N   -0.08361462148695     -1.37449027891974      2.14386425629490
  N   0.44992297759063      2.02439416406273      1.23885084792718
  H   0.34302037916611      3.02790918070153      1.15020155388831
  H   1.30535550487516      1.83780419256600      1.75098991806555
  C   -0.47811028373046      1.93366396494346     -0.95666985444322
  N   -1.17139124465669      2.57460438271573     -1.65613603156492
