14
Coordinates from ORCA-job run
  C   0.64388547297408     -0.04417661568061      0.01804363832535
  H   1.22027693284604      1.85360422827896     -0.67207615322061
  F   -1.36935390930566     -0.27160517239047     -0.32833711823914
  Br  2.96427344773020     -0.00371972448953      0.61126494579551
  C   0.46451102075072      1.45809261149068      0.01720799331975
  H   -0.52951273681600      1.61557914780829     -0.39605253312586
  N   0.83857306786212     -0.67428972142508     -1.25012954412345
  H   -0.11576670442993     -0.93945953535301     -1.48923563560393
  H   1.41515006717835     -1.49649424958862     -1.12708120876557
  C   0.27777173053813     -0.81843801305702      1.19017762370617
  N   0.05615601025433     -1.51052048968742      2.11657948197827
  N   0.51554920489665      2.00648906859184      1.36447808991900
  H   0.18267948006751      2.96179808400045      1.34610451349332
  H   1.47982691545345      2.00561038150153      1.67554590654120
