12
Coordinates from ORCA-job run
  C   0.63482966463711     -0.03643759135020     -0.02459118849828
  H   1.64927797832789      1.77372976380951     -0.46916669137752
  F   -1.16927225542781     -0.03133856002264     -0.03454608930630
  F   2.42133835312531     -0.19485673949478      0.18725347225623
  C   0.70254783262063      1.47193864914418     -0.02716904109215
  H   0.64313877109619      1.85474987275300      0.99364663123930
  H   -0.13880525609995      1.85233848242390     -0.60186448159411
  N   0.68213394505190     -0.73029462299613     -1.28257947967096
  H   -0.17874507382560     -1.25447250014206     -1.34799710674502
  H   1.48738983186605     -1.33842331449295     -1.24056250338437
  C   0.52478280341242     -0.77532524327322      1.23619372464514
  N   0.43546340521586     -1.39331819635860      2.23169275352804
