14
Coordinates from ORCA-job run
  C   0.40098054225665     -0.11354425194074     -0.01601754906146
  H   1.67699267239704      1.58789273135596     -0.12598819455720
  Cl  -1.64544761230309     -0.13787821794887      0.00362419356731
  H   2.30358042403967     -0.24992192272204      0.30399823894984
  C   0.60035389727388      1.42114460401162     -0.03449705740303
  N   0.62729565438784     -0.73037113493040     -1.30230390684942
  H   -0.06718127548879     -1.45576991371100     -1.43717952148194
  H   1.55983925333284     -1.12077431064571     -1.29410030490637
  C   0.75571947910815     -0.78845322138953      1.21025500209781
  N   0.68616538585868     -1.39944373454183      2.22337942596459
  C   0.15609904610583      2.06263170428007      1.20529916842413
  N   -0.12492484569613      2.62641639259507      2.19639472935528
  C   -0.03982273438429      2.04152596799679     -1.19774242549739
  N   -0.46892988688830      2.63788530759056     -2.11381179860216
