15
Coordinates from ORCA-job run
  C   0.68916902770648     -0.04130436686110     -0.01848196647978
  H   1.39794550423425      1.90366461506733     -0.49752508624027
  F   -1.33113824064935     -0.21407711209039     -0.13090854838847
  Br  3.05803582195170     -0.04742011323122      0.45025795238169
  C   0.49902552927014      1.45758859717863     -0.07106305736933
  H   -0.33022312913838      1.60528788788956     -0.76257766097124
  N   0.78649747882776     -0.71828576851396     -1.26914985469250
  H   -0.19193018935857     -0.91590173857325     -1.47183901039925
  H   1.29739822964693     -1.58279948642635     -1.14366870193691
  C   0.43326142273199     -0.78669552257317      1.20261650868970
  N   0.26990331461793     -1.41643128523743      2.18428565797204
  C   0.16140865570043      2.05876290765414      1.28175551384181
  H   -0.76585426160496      1.61329264875032      1.64366247528087
  H   0.95863871710580      1.86929382823245      2.00461554427088
  H   0.02441211895784      3.14138490873446      1.19745023404078
