13
Coordinates from ORCA-job run
  C   0.52527288640210     -0.07274784770477     -0.01516061563347
  H   1.23137016343395      1.80098558372275     -0.65824970556646
  F   -1.20602757235357     -0.29642996902636     -0.36632022315760
  F   2.23510508261840      0.07804739194625      0.47821947946275
  C   0.41014978170170      1.44652173184386     -0.03584195386696
  H   -0.54439663784550      1.72373624202617     -0.47953003025416
  N   0.89483666274830     -0.71441048833285     -1.24435501167623
  H   0.15837474845392     -1.36789528852663     -1.46686668967156
  H   1.77690719439455     -1.17742759669590     -1.07880347475624
  C   0.29972295645822     -0.83832659351749      1.21152063836457
  N   0.13123842985512     -1.50633290679966      2.16323963686077
  C   0.53611067716721      2.06869129585576      1.27880743139902
  N   0.60938562696558      2.64515844520887      2.29858051849557
