14
Coordinates from ORCA-job run
  C   0.75557337192015     -0.07599055053384      0.03140498617810
  H   1.73469940027061      1.87321084400753      0.07321109751106
  F   -1.19563355486656      0.11623342352033      0.06033206681765
  Cl  2.93089784756424     -0.34449851373824      0.16211069997096
  C   0.73533017115882      1.44231793233247      0.03284889285983
  H   0.20434002929270      1.74880021852975     -0.86035433472908
  N   0.63141411920305     -0.67149204019577     -1.26851531234167
  H   -0.35627702126788     -0.89054914394986     -1.34071329854798
  H   1.19840614787325     -1.50680805578758     -1.31111873592929
  C   0.51578203513006     -0.87819343320079      1.21789041085239
  N   0.37287054645722     -1.64136746595139      2.10194484714202
  N   0.00348455354672      2.04504535555937      1.17602106904000
  O   -0.72834286005962      3.00030234275159      0.92753341820369
  O   0.25578521377723      1.62377908665643      2.30009419297236
