14
Coordinates from ORCA-job run
  C   0.46929035089923      0.03642540879169      0.02121348515044
  H   1.82925916206749      1.64681403840218      0.12145459167383
  Cl  -1.71367644291274      0.22606941186340      0.38559513628947
  F   2.42642365428826     -0.31705484264635     -0.19080854638838
  C   0.74879912931181      1.54629525222898      0.07150625346208
  H   0.30239318690151      1.95133693205045      0.98077835332845
  N   0.32168898618062     -0.60355239080007     -1.25542646580572
  H   -0.42782194416270     -1.27958977386635     -1.21223826940817
  H   1.22135629914419     -1.05222396480063     -1.39205781713835
  C   0.68016491104353     -0.74145186806637      1.22976754516508
  N   0.79956808625566     -1.36684827200673      2.21957959987036
  N   0.24613503383456      2.28278907878539     -1.07292467705012
  H   -0.75793413844025      2.13658855358372     -1.09470698566131
  H   0.60085372558884      1.81053243648069     -1.89748220348767
