17
Coordinates from ORCA-job run
  C   0.68787299989721     -0.04657151511108     -0.02836043456340
  H   1.66829719979036      1.68881258866935     -0.59715065096450
  F   -1.27740598989342     -0.27489619671074     -0.52475274484612
  Cl  2.75680056742876     -0.17230702412896      0.78118664837059
  C   0.69231553462319      1.47677972153379     -0.14146057282094
  N   0.96745927614548     -0.77291552174643     -1.23108970899728
  H   0.04224767506881     -1.09885370804949     -1.50023845108936
  H   1.56970628327910     -1.55530087774861     -1.01181201594365
  C   0.13037020307816     -0.69821046630188      1.14656688978417
  N   -0.21613664593636     -1.27511573241002      2.11234829419514
  N   0.55252900346606      2.05820001751747      1.19057865343243
  H   0.56049103351374      3.06779521839624      1.09950818423039
  H   1.36278148567187      1.79069812688007      1.73948537906904
  C   -0.36452200438135      2.06159236656052     -1.06344046125596
  H   -0.32526891243714      1.58062860198184     -2.03989390113537
  H   -1.35256316441588      1.90872740397586     -0.64267698135405
  H   -0.15115454489859      3.13245699669205     -1.18939812611110
