16
Coordinates from ORCA-job run
  C   0.56804194710275     -0.03266388513935      0.00070686050143
  H   1.77442903452416      1.72184144455874      0.36581162911426
  F   -1.17356813538671      0.15039225246818      0.21709148969717
  F   2.34282448355481     -0.24867841256730     -0.15940862192340
  C   0.75784435950341      1.49146588449217      0.05463794488540
  N   0.35056379116953     -0.66473970609792     -1.26826303645613
  H   -0.47048688427728     -1.24506773731484     -1.17877816969219
  H   1.18163862519504     -1.19994816109501     -1.47239674034018
  C   0.63614747222745     -0.83879305252364      1.21726041383480
  N   0.67975964899943     -1.59454286986604      2.11616099080323
  N   -0.07458345016650      2.07821302774776      1.21239928349053
  O   -0.89077482772203      2.96313897468382      0.96738221022454
  O   0.21810854736195      1.68973503858866      2.33775212003694
  N   0.42761668955506      2.06898438903337     -1.19751207779844
  H   0.14327868105725      3.02851758531211     -1.04776778563284
  H   -0.36008998269833      1.55077522771930     -1.56844651074512
