13
Coordinates from ORCA-job run
  C   0.50256004888592     -0.07095928969719      0.00657801116491
  H   1.71192036350078      1.74074714289961     -0.00180953190893
  F   -1.13566974596492     -0.01029182432085      0.05276975638102
  H   2.34797721552660     -0.26343724907206      0.11362381106790
  C   0.66609484560169      1.45122384322979      0.03196592368844
  H   0.16526949363367      1.79771695618005     -0.87484376686833
  N   0.56252776361127     -0.71386724025721     -1.28975051246821
  H   -0.23959801787490     -1.33266315094546     -1.33676151337304
  H   1.42789146763840     -1.22816029989424     -1.34082592333766
  C   0.73416996076029     -0.82543471386475      1.21694992070111
  N   0.71553373349685     -1.47537455078791      2.20396597979927
  C   0.02577463203984      2.07698446875496      1.18981974894606
  N   -0.42640176085550      2.64308590777528      2.11355809620747
