13
Coordinates from ORCA-job run
  C   0.76862352661017     -0.07342379977501     -0.04029949467088
  H   1.68184647183253      1.90478574692322     -0.03236740783089
  F   -1.19009382572610      0.01381572126816      0.05455999631307
  Cl  2.95696420873875     -0.26524080183142      0.07342973914466
  C   0.68935202321702      1.45362004029796     -0.03425772213097
  H   0.14945076755807      1.76615912985752      0.85901575765237
  N   0.64577498394231     -0.76670686388818     -1.28153661110933
  H   -0.34128165766700     -0.98698717412802     -1.35118507996010
  H   1.21578768665187     -1.60055933658773     -1.26596592482317
  C   0.58906300966852     -0.74979721405578      1.23457496204714
  N   0.49021878611724     -1.32278740321089      2.25720312181354
  C   -0.03889981494912      1.95689848163998     -1.19706388281306
  N   -0.56005616599426      2.46028347349019     -2.11972745363240
