14
Coordinates from ORCA-job run
  C   0.61647793545184     -0.08384586400794      0.03460592484522
  H   1.66349609561927      1.79042611252316     -0.10202294209460
  Br  -1.93136455654132     -0.01745836134999     -0.00166619721520
  Br  3.15324164463429     -0.27970792125323      0.31536165140546
  C   0.63963129869229      1.43538319995293      0.00552821546373
  H   0.03213791456602      1.77651019909008     -0.82578640389466
  N   0.69812489464260     -0.67874790222539     -1.26932098567141
  H   -0.20824467986342     -1.05540744894239     -1.51458183646895
  H   1.39751984464066     -1.40855648402674     -1.25245318375678
  C   0.52408264650954     -0.89531822317549      1.22276083530920
  N   0.43038743218443     -1.66311828012406      2.11426146302311
  N   0.12054212941402      2.11517890983709      1.22114252061238
  O   -0.42103642750680      3.20461345279265      1.04291737432542
  O   0.34333382755657      1.60083861090932      2.31194356411710
