15
Coordinates from ORCA-job run
  C   0.33651512411146     -0.08614354702513     -0.05808419356342
  H   1.54166390976890      1.55250916283750     -0.59461205605179
  Cl  -1.67843959861510     -0.29250335447496     -0.41888205753039
  H   2.17739026146104     -0.00665107235398      0.65773244839471
  C   0.55827069705052      1.43705492710880     -0.12888932727751
  N   0.83563753551209     -0.78761104581059     -1.22191292154177
  H   0.25564437946310     -1.60403103244671     -1.37343242444592
  H   1.78422775326554     -1.06788152789401     -1.01044267394412
  C   0.39105169653420     -0.71659495555851      1.24456105901086
  N   0.20165936963629     -1.33016428682495      2.23722196668473
  N   0.46426838485671      2.01940428053787      1.20416768536338
  H   0.63477750241817      3.01685947420803      1.13415350013773
  H   1.23509366414103      1.60251484234077      1.72429542969927
  C   -0.37341063742620      2.14191525057366     -1.02756560921620
  N   -0.95766004217770      2.85556288478218     -1.75575082571955
