15
Coordinates from ORCA-job run
  C   0.48239795350907     -0.07962390167360     -0.03953628442094
  H   1.50709647460428      1.58847999958631     -0.67143212068655
  Cl  -1.71813123120510     -0.37573995421590     -0.57486328440798
  F   2.25859648257601      0.02994092210733      0.61820315216888
  C   0.55866102597700      1.44851507593276     -0.13959434727852
  N   0.94603074049534     -0.81689181439969     -1.17235964041389
  H   0.28882173631019     -1.54951827367935     -1.39555103570390
  H   1.84623524238610     -1.19272350001678     -0.90217496101403
  C   0.19154934041954     -0.71600161362731      1.23485857796150
  N   0.01305004696269     -1.29384593733779      2.24403751016818
  N   0.55794532256642      2.01921157478663      1.20251804699858
  H   0.63060498633763      3.02765463320210      1.13608219276152
  H   1.40082272927622      1.65323956146883      1.63378435466270
  C   -0.45686392136932      2.12676204584753     -0.95594448009872
  N   -1.10012692884608      2.86478118201896     -1.60546768069683
