16
Coordinates from ORCA-job run
  C   0.65007325036065     -0.09315598066869      0.02011637896140
  H   1.66249633400060      1.79404078639158     -0.02387018476216
  F   -1.16923869513149      0.00390289211350     -0.05230622161616
  F   2.45430573830715     -0.05156187632644      0.07474415605919
  C   0.62477422648606      1.45245553793739     -0.01403545928725
  N   0.68162895808935     -0.74406788860565     -1.25260368821673
  H   -0.17956844634908     -1.26085108598224     -1.35164373006912
  H   1.50223032045301     -1.33066003576391     -1.27335632120386
  C   0.62093226805059     -0.85187185989376      1.33333597651534
  H   1.40007693726149     -1.61204444859128      1.30658949803230
  H   0.84021032931692     -0.18316712043512      2.16771033246733
  H   -0.36015613376754     -1.29717418378639      1.48164010810232
  C   -0.03237334722473      2.02560769264579      1.16353202082670
  N   -0.47360353896152      2.52273626728645      2.13118259236172
  C   -0.03011704558386      1.95770598668929     -1.22471670711372
  N   -0.47536115530760      2.46895531698948     -2.18263875105729
