16
Coordinates from ORCA-job run
  C   0.54320887681481     -0.11454361227958      0.01767875946840
  H   1.72101116594793      1.60201534272819     -0.07310095432579
  Br  -1.91616087061593     -0.07082109709302      0.05592607696016
  F   2.53320908683108     -0.07453183793099     -0.04999839310570
  C   0.63922908846329      1.42800221584561     -0.01808452240445
  N   0.59070910483562     -0.75144549321395     -1.25467024460247
  H   -0.08537440643733     -1.50060260840431     -1.29233199058976
  H   1.54480497039969     -1.07962757015669     -1.34571408418326
  C   0.60112934769299     -0.86010753903878      1.33605439170716
  H   1.64484670353536     -1.09381628333500      1.53365542513466
  H   0.18144546174357     -0.26712954058347      2.14830517816872
  H   0.01476298333027     -1.77505021627182      1.25787177001363
  C   0.14726838928646      2.08854465527499      1.19034528820085
  N   -0.14698864148318      2.65284381068144      2.17755192608733
  C   0.03902818942100      2.02074437270166     -1.21377964477515
  N   -0.33581944976562      2.59637540107568     -2.16602898175434
