18
Coordinates from ORCA-job run
  C   0.37354373165769     -0.10409995211872      0.04637785877290
  H   1.64280805205850      1.57545657195229      0.28692536436963
  Cl  -1.71486522180296     -0.10030826886883      0.40613432480989
  H   2.35857770987453     -0.07330557757769     -0.53825862084966
  C   0.58446950077576      1.42889857682297      0.07444689685958
  N   0.23407322200232     -0.77415062637747     -1.23539282979926
  H   -0.47710806000103     -1.49251746444930     -1.15371074013250
  H   1.13830110609829     -1.15701517934102     -1.45797452006454
  C   0.75328025032709     -0.85036629441328      1.32293087886800
  H   1.83278621914621     -0.90553812324845      1.42269972377548
  H   0.31570033761018     -0.35169078535965      2.19267310283480
  H   0.33866297780325     -1.86084722253338      1.28025912116563
  C   -0.12917769736995      2.11937925367206      1.16277094611053
  N   -0.53753735428736      2.77709040236918      2.04869663355024
  C   0.27558607076050      2.06903388314726     -1.27230809442702
  H   0.94614818721081      1.62709680857260     -2.00900112074131
  H   -0.75400703771535      1.86016203842927     -1.56346574472754
  H   0.43219800585154      3.15085195932216     -1.22328318037487
