19
Coordinates from ORCA-job run
  C   0.32558171336159     -0.09872215373568      0.07058555727154
  H   1.64494806443112      1.52763573659431      0.47801677022018
  Cl  -1.72885461953287     -0.06900404023359      0.51917234481409
  H   2.29738034729803     -0.10176266871031     -0.58880339785798
  C   0.63503109379056      1.41344834374337      0.09861478515191
  N   0.11819759867973     -0.71274238849208     -1.23309421079725
  H   -0.59257950302801     -1.43008755752056     -1.14611340844711
  H   1.01070449044288     -1.09520596112824     -1.50374651544590
  C   0.74532374595859     -0.92975357860375      1.28267786570444
  H   1.82684803960533     -1.00796847317260      1.32959326071770
  H   0.35642693441497     -0.48685235543862      2.19932148197397
  H   0.31449611658986     -1.92887748293179      1.17860711158764
  N   -0.17912170436813      2.17583210501857      1.15039415356061
  O   -0.99698029339597      3.02348717715556      0.80074802159589
  O   0.10809273286635      1.94293942241103      2.32627488676094
  C   0.45945694030808      2.07873362890037     -1.24426352311522
  H   1.15206674789144      1.60102201112588     -1.93298009468029
  H   -0.55855915621777      1.93983232581545     -1.60547737877805
  H   0.67526071090417      3.14739590920267     -1.17155771023707
