17
Coordinates from ORCA-job run
  C   0.62533035560301     -0.07015019923408      0.04183635854993
  H   1.83643338883346      1.50322074342098     -0.05768956730430
  Cl  -2.32482213630414      0.04234818572437      0.76109572343109
  H   3.17706830775378      0.20080133103208     -0.19468310320099
  C   0.72039033812496      1.43864849190315     -0.05585360295582
  N   0.31746973887993     -0.77353716850593     -0.99229332562335
  H   0.01864929887766     -0.32415288529513     -1.84804550243653
  H   0.23392080007706     -1.77564061144843     -0.92548542781630
  C   0.91502572185604     -0.71130736549477      1.34610974581372
  H   1.84267659796104     -0.28313620074519      1.72140967806239
  H   0.06051353246776     -0.52547644809962      1.99881053402645
  H   1.05558755091429     -1.78662718300893      1.22921235192238
  N   0.12248916689503      2.19062275681572      1.02324662054916
  H   0.70637421840214      2.11219430866630      1.84590521324441
  H   -0.80062525805531      1.80267888823420      1.21673595331716
  C   0.25569784525339      1.90565740327245     -1.36221290377343
  N   -0.05989946754013      2.20760595276282     -2.45316874580598
