16
Coordinates from ORCA-job run
  C   0.45849215022657     -0.04536396630945      0.02739454898674
  H   0.87421984522424      1.83939629543674     -0.80319991220682
  F   -1.19749711624760     -0.30941422082414     -0.45254543850086
  H   2.27274521220981      0.23225467467255      0.40823048753277
  C   0.34869896321658      1.47141894735947      0.08589371683826
  H   -0.71111668317271      1.72858324958629      0.01218698360539
  N   0.92484184837676     -0.66580083570734     -1.20493283733589
  H   0.22971535621864     -1.36519752562752     -1.43834883862938
  H   1.82205176250212     -1.08444050930219     -1.02324940812171
  C   0.24607252505612     -0.83866518677669      1.31191083573875
  H   1.11774235181777     -0.82827295677050      1.95941640822717
  H   -0.60918965724303     -0.41635931308483      1.84412071552364
  H   -0.00047804049431     -1.86923048986809      1.03807022554337
  N   0.85300172983235      2.02210518706974      1.35263958603121
  H   0.90098855133779      3.03245063302206      1.25682930713649
  H   1.80932120113890      1.65851601712389      1.38444361963087
