16
Coordinates from ORCA-job run
  C   0.56165315763219     -0.04189678934500      0.05163549789466
  H   0.99439041991724      1.83014139200481     -0.76808011186259
  F   -1.27379240873988     -0.33645038980791     -0.42258222380701
  F   2.35602597795823      0.21256302297526      0.44676532822618
  C   0.36421686359445      1.46452862825717      0.05150287967599
  H   -0.68011132320735      1.67006125336317     -0.16978353010145
  N   0.93144466411828     -0.65785959288625     -1.19606994721442
  H   0.16019659666013     -1.27071373089021     -1.42186946090952
  H   1.78532959332617     -1.16912507631179     -1.01877649206139
  C   0.31696361998069     -0.86132956407635      1.30228009031891
  H   1.26747832473740     -1.15399416838228      1.74606888894887
  H   -0.24938044860295     -0.26296541030791      2.01511224851801
  H   -0.27427196400637     -1.73473209788349      1.03393060676860
  N   0.71703451404576      2.04519308384519      1.35502315893064
  H   0.67619378595209      3.05542470942773      1.27341536644212
  H   1.68623862663393      1.77313473001784      1.48028770023241
