15
Coordinates from ORCA-job run
  C   0.37514274056185     -0.09730712739912      0.02511661270408
  H   1.51349837961177      1.66800633333315      0.47990628969751
  Cl  -1.71445728005118     -0.13917435754441      0.38882966267058
  H   2.42488773524132      0.00067906046433     -0.47960671685297
  C   0.55151993446511      1.42733564079856      0.03604560205869
  H   -0.24884659979910      1.89653625837424      0.62409432048852
  N   0.28079619354987     -0.78645577932729     -1.23935178366623
  H   -0.32627445981499     -1.59124206227313     -1.13394667438020
  H   1.22168582274792     -1.04567264303354     -1.49088019972805
  C   0.75979277712022     -0.80278261620492      1.32489282499555
  H   1.83835269396568     -0.87510326859808      1.41046665002056
  H   0.34274432244022     -0.26212959407000      2.18011263622866
  H   0.32101604914372     -1.80357951763904      1.32706114168860
  C   0.52221781678786      2.02186506191714     -1.29614285776088
  N   0.49026387402974      2.59859461120212     -2.31784750816443
