18
Coordinates from ORCA-job run
  C   0.35342354777031     -0.00478967982090      0.10675975524889
  H   1.56769990021919      1.60551900165953      0.86195807640895
  F   -1.24305231302845      0.04134920465556      0.55443803662875
  H   2.10954072005314      0.03016097290473     -0.46857031322516
  C   0.66048545689379      1.50068672536088      0.27607554720577
  N   0.01196046880758     -0.46827492601765     -1.22862037925198
  H   -0.81370984133819     -1.04779373858916     -1.13743000004427
  H   0.79741536867511     -0.98630112643774     -1.58962415896187
  C   0.83225718836011     -0.94878819588367      1.20449185081598
  H   1.26930186100796     -1.84510983846698      0.76445957628189
  H   1.60334286648484     -0.47017164742869      1.80978184560472
  H   -0.01082203956965     -1.22180878563050      1.84630752800508
  N   -0.39502887425307      2.18103340449938      1.14227384251804
  O   -1.31084394606601      2.79931228444397      0.61367362437144
  O   -0.23883293495652      2.06979855808061      2.35959662037640
  N   0.75909247144982      2.26580610462548     -0.93891468551879
  H   -0.07131476594805      2.03853199491154     -1.47867253051201
  H   1.52542486543805      1.79897968713361     -1.41898423595181
