15
Coordinates from ORCA-job run
  C   0.62273720856034     -0.14763815420921      0.07013952146931
  H   1.14049898314945      1.71314117532559     -0.82262622679183
  Br  -2.66234499133510     -0.16291107967761     -0.46757482476221
  F   2.83891779433641      0.26948105245762     -0.09310658483789
  C   0.55888100981370      1.34431794130805      0.01780929649131
  H   -0.51072246641192      1.56586923068446     -0.11883248924383
  N   0.90922992042945     -0.79627883979346     -1.02262043468685
  H   0.88306664353668     -1.80286335056929     -0.97425491632220
  H   1.75966140058855     -0.36662885152278     -1.41255288028915
  C   0.16560774285304     -0.83930037752575      1.29670045024671
  H   1.04759102242303     -0.87057184427549      1.94637331787789
  H   -0.63973833818829     -0.29086223867234      1.77844575579751
  H   -0.17962650730841     -1.84919275620009      1.07955354646136
  C   1.04677343268221      1.95734946843595      1.24750703027060
  N   1.37310714487088      2.48516862423435      2.24264943831928
