14
Coordinates from ORCA-job run
  C   0.56821817829803     -0.12104788226427      0.00977254811781
  H   1.49115159544690      1.71428485384483      0.15134970567899
  F   -1.65735421979513     -0.08463948602020     -0.55779601116071
  Cl  3.83635095593863      0.12507365541738      0.56231361448568
  C   0.47184334632086      1.35358895316763     -0.02894989925756
  H   -0.19361749511706      1.68929416227301      0.76358587432965
  H   0.08811393760898      1.70004882065218     -0.98391430873457
  N   0.57938396758344     -0.80325726243418     -1.10618052788555
  H   -0.22056209233134     -0.46753258855095     -1.65706439151969
  H   0.63515707605722     -1.80512137295640     -1.00560440599156
  C   0.81849612823177     -0.79623619715951      1.30586313592448
  H   1.40628822703013     -1.70349319789377      1.17634756293286
  H   1.34985668207798     -0.14696410141502      1.99475133333201
  H   -0.18365628735042     -1.03619835666075      1.67820576974820
