16
Coordinates from ORCA-job run
  C   0.62742941573770     -0.02425181076139     -0.02860504646377
  H   1.70644842559351      1.79809657117996      0.11605013312875
  F   -1.22459645200906      0.01135588686193     -0.14838731719470
  F   2.52616065894990     -0.17242390082731      0.05178774364080
  C   0.66767852375004      1.49700329658163     -0.00172589627133
  H   0.10222510460773      1.78865810475547      0.89543057345607
  N   0.66757731797529     -0.72199611849800     -1.28387598487017
  H   -0.11764220554383     -1.35678631411351     -1.28468456942801
  H   1.55466749984974     -1.20500444745048     -1.28444265556399
  C   0.58876321172804     -0.74172061729176      1.30812536432503
  H   0.95097772388531     -1.76202474558909      1.17192205200489
  H   1.26918330775763     -0.24745745581310      2.00148587660456
  H   -0.42698908426642     -0.75142067440262      1.69944674867320
  N   0.10609272709947      2.08307438471375     -1.22673596671835
  H   -0.25082849906009      3.00199510107747     -0.98298646207348
  H   -0.70505767605496      1.49854273957703     -1.40618459324950
