17
Coordinates from ORCA-job run
  C   0.41843951573118     -0.12123012758256     -0.04976018842272
  H   1.38046529184284      1.54401594374581     -0.87043879423256
  Br  -1.75485126186094     -0.49765864087612     -0.72525851719425
  H   2.43331801210021      0.20084872449059      0.48188010912260
  C   0.56129384136709      1.41738070241399     -0.15484880557086
  N   0.99985328981831     -0.85782842007147     -1.15541057183258
  H   0.45692605720936     -1.69727748516018     -1.31466345013658
  H   1.94966260508831     -1.07700169156734     -0.89784002924742
  C   0.19488136212700     -0.75266169071362      1.32636308357072
  H   1.11484305532200     -0.75536327481560      1.90280386440301
  H   -0.57351943976673     -0.20162307766204      1.86930379240891
  H   -0.14949094319044     -1.77992923378227      1.18630699546306
  N   0.83886820333972      1.99947578972007      1.16356278016029
  H   0.96581358851364      3.00045456603622      1.04251487145307
  H   1.74691026723984      1.57672310936786      1.38693208283468
  C   -0.57171282646890      2.18529097721350     -0.71196867179204
  N   -1.30942061841248      2.97013382924314     -1.18454855098736
