17
Coordinates from ORCA-job run
  C   0.36950878463707     -0.04904576230512      0.05445901159007
  H   1.58759625707951      1.68637506674565      0.36964103762845
  F   -1.28653490328141      0.06000033942126      0.48608381505759
  H   2.17101190290595     -0.22070175503227     -0.53031754837840
  C   0.57880299565262      1.46341871627472      0.02393742106893
  H   -0.14238255074060      1.90867305886559      0.72063615081780
  N   0.01662503183775     -0.77079762605915     -1.16107205444002
  H   -0.79917123012936     -1.32786908844407     -0.93390097766291
  H   0.80899048251158     -1.34110354264059     -1.40883354162062
  C   0.81766249211317     -0.77749887632255      1.31844844084990
  H   1.66870925608988     -0.26761032936955      1.77030060495172
  H   -0.01870054559760     -0.81903827229758      2.02575048373918
  H   1.13800905443997     -1.79146695931279      1.07597780859951
  C   0.37212344761448      2.04685600422756     -1.36226582129621
  H   1.09156122407528      1.59701949867859     -2.04927821170313
  H   -0.63161771636322      1.81372637606107     -1.72031235900289
  H   0.50727601715494      3.13591315150923     -1.35366426019898
