18
Coordinates from ORCA-job run
  C   0.48487593583885     -0.09637332826412      0.02291728279077
  H   1.70247753928161      1.58765331157287      0.14622199910663
  Cl  -1.83566617862334     -0.05829514449374      0.30571315571490
  F   2.45526687765263     -0.14915970801525     -0.34929454575566
  C   0.62708400412406      1.43321960035988      0.03594993422014
  N   0.34374387959414     -0.74825943841587     -1.24000288774785
  H   -0.31915035314754     -1.50499318184151     -1.14950358594861
  H   1.27909023507041     -1.07933312514790     -1.44763955149867
  C   0.67216601275272     -0.85414591045413      1.31850464976027
  H   1.74174565621468     -1.01052556332206      1.44337204376929
  H   0.25996424817219     -0.30068238448315      2.16174251896801
  H   0.15364521900694     -1.81143795497256      1.26254786754735
  C   0.00468425665261      2.07836968017448      1.19332190002464
  N   -0.37352886186128      2.69422240391842      2.12000369742725
  C   0.18008791513119      2.07802523649002     -1.27143855041578
  H   0.78479526067372      1.67043346135126     -2.08009787759693
  H   -0.86716848946512      1.84754783377290     -1.46180146526539
  H   0.31932684293153      3.16186421177046     -1.21999658510040
