17
Coordinates from ORCA-job run
  C   0.61417242682471     -0.04743003276694     -0.00720714843099
  H   1.72017371079722      1.76961603138565      0.09637895541701
  F   -1.20695554425182      0.05262216108298     -0.09957052287968
  F   2.48394675234417     -0.12999763806498      0.03783160126157
  C   0.67128799954133      1.49119698616634      0.00727343098401
  N   0.63304198369104     -0.71923346305822     -1.27242706405606
  H   -0.16470176709133     -1.33774527067239     -1.29015773993967
  H   1.51123362629656     -1.21576964525664     -1.30709097272723
  C   0.60043146049611     -0.79620881805739      1.31262941451393
  H   1.14637048522652     -1.72964757042825      1.17840805570940
  H   1.12628206279024     -0.22197670633848      2.07575573279463
  H   -0.42289065597800     -0.98768036287916      1.63009746823349
  C   -0.02932714562172      2.00298637703810      1.20614886272061
  N   -0.53725366464230      2.52648559715077      2.12802084597919
  N   0.12081364293235      2.05733381269253     -1.22425579927841
  H   -0.11568010771703      3.02849845446570     -1.04986912660709
  H   -0.74488526563806      1.54387008754035     -1.36041599369473
