15
Coordinates from ORCA-job run
  C   0.57385460496819     -0.15070137013378      0.05984587933070
  H   1.55979336455415      1.65993268459572      0.12043626875181
  F   -1.58197365274517      0.06753548701058     -0.58590568984116
  Br  3.88766862421766      0.16930657780483      0.32280562622811
  C   0.51168215448860      1.34117476671798      0.01030981151596
  H   0.10663129047204      1.66792249449629     -0.94358672350348
  N   0.59048488846936     -0.81099868716026     -1.06327993199612
  H   -0.19272426533874     -0.45540528120331     -1.62992717949682
  H   0.69552499703164     -1.81176893572559     -1.00102148740343
  C   0.81679054334386     -0.81305054832552      1.36136824476190
  H   1.32067347488167     -1.76984018865729      1.23126666125645
  H   1.42254689584928     -0.18826686407431      2.01233280910532
  H   -0.17835206393200     -0.96299172723486      1.79514598797041
  C   -0.29579601194031      1.89132630309576      1.09266882354580
  N   -0.88316484432023      2.37490528879376      1.98515089977456
