16
Coordinates from ORCA-job run
  C   0.55368410347275     -0.11367668449017      0.01641617342558
  H   1.72108542577453      1.61718824509997     -0.08283561527936
  Cl  -1.73456531210188     -0.03818309969185      0.05313862731295
  F   2.50902951759628     -0.09397456901374     -0.04498728481890
  C   0.64385954253449      1.42826725820911     -0.01895875672816
  N   0.59140148060983     -0.74945737651869     -1.25954912261330
  H   -0.13449980412585     -1.44851314125590     -1.31930388177850
  H   1.52102060658905     -1.14107200076328     -1.33437179474228
  C   0.59306340235705     -0.85982285215055      1.33600326794586
  H   1.63269931041190     -1.06625876059026      1.57656935389971
  H   0.12324019301258     -0.28256000189155      2.13153395149091
  H   0.03322786713913     -1.78929437664837      1.23292091596441
  C   0.15415088129105      2.08384694815437      1.19345356247100
  N   -0.14508136766798      2.64383042861916      2.18132428826989
  C   0.02432252172558      2.01776539621353     -1.20670452045060
  N   -0.37032836861851      2.59276458671822     -2.15096916436922
