15
Coordinates from ORCA-job run
  C   0.59360205192560     -0.13855180146567      0.01451778689569
  H   1.66675252469908      1.57458779291625      0.25515671780222
  Br  -2.47559695058047     -0.02869334250954      0.64809906303943
  H   3.15032708186849      0.20121045285138     -0.13672479752972
  C   0.61688579163100      1.35706418661533     -0.00444839677051
  H   -0.10734056957299      1.71779855677344      0.72885632108037
  N   0.41647319480881     -0.80168889252920     -1.07527606147852
  H   0.25501964810476     -0.32525377751938     -1.95215654673364
  H   0.37124261542479     -1.80773369234991     -1.05954035721368
  C   0.80773850292824     -0.82342095969199      1.31079867700923
  H   1.85846717789499     -0.64478764168997      1.55225599433703
  H   0.12725112590742     -0.39990376456108      2.04785762389520
  H   0.61529599135420     -1.89388466993695      1.23020436040250
  C   0.32841447933489      1.91317086668618     -1.31711286867782
  N   0.12780733427118      2.30965668641113     -2.40373751605777
