18
Coordinates from ORCA-job run
  C   0.50747041304272     -0.11364189924199      0.04156765058646
  H   1.46028262921659      1.65967234869898      0.72297881564586
  F   -1.04327582005063     -0.31897474649852      0.53234459208186
  H   2.24597379648675      0.12813336852341     -0.55334466402919
  C   0.56099604523935      1.42079833415529      0.16678987420698
  N   0.23805700874543     -0.69081942119373     -1.26704602069317
  H   -0.49036401901509     -1.38366700814620     -1.13828586002507
  H   1.09257409592878     -1.09874735823969     -1.60794227105814
  N   1.06675972141068     -0.85234604817043      1.15799245155445
  H   1.92020551912246     -1.29009563287083      0.85546784664943
  H   0.37135612256784     -1.53400897656998      1.43711152029575
  N   -0.54567791408580      1.95210449597317      1.07616789895878
  O   -1.58090588899741      2.39801738627105      0.58369634212805
  O   -0.31544276870817      1.93247276208659      2.28537228085287
  C   0.47009512767473      2.14835100500025     -1.15438462576076
  H   -0.46500842291300      1.90027681983485     -1.65223798742587
  H   0.52100340322102      3.23081623202910     -1.00073533175608
  H   1.30543095111375      1.81868833835867     -1.76814251221218
