16
Coordinates from ORCA-job run
  C   0.54313461245401     -0.03075108752093      0.00769956640081
  H   1.68260362926376      1.71683491084322     -0.38821389907539
  Cl  -1.57491753482822     -0.08801246127915      0.08137887433156
  H   2.58515277195663     -0.01303021334868      0.06588267386938
  C   0.64883160212809      1.51582193963311     -0.12131889458114
  N   0.67768339611986     -0.76195016546238     -1.23236582807003
  H   -0.00839301890389     -1.50617070807507     -1.26597290263012
  H   1.61786265672507     -1.12328453399428     -1.25449391496375
  N   0.70185590492329     -0.59969571558182      1.33848747563103
  H   1.62963452244720     -0.98903251525057      1.37197804741078
  H   -0.01134480759939     -1.30373915813797      1.48912420519758
  N   0.35337930787410      2.24408383995266      1.10196281480917
  H   0.98697491694540      1.85345685570877      1.79342526759100
  H   -0.57365773553760      1.95194001360624      1.39606101037077
  C   -0.15580153493546      2.04456004825377     -1.23610451420811
  N   -0.69490868903285      2.56039895065308     -2.14319998208353
