18
Coordinates from ORCA-job run
  C   0.59234980208231     -0.03222393264808     -0.03650919324063
  H   1.66437101426323      1.74527987638369     -0.33369779250496
  F   -1.23261547712371     -0.14839809445527     -0.31396431076096
  F   2.43979845494474     -0.08944750845850      0.34664031906749
  C   0.62910403439662      1.50394323928627     -0.09932538665592
  N   0.84165640466916     -0.73774168861061     -1.26551183352833
  H   0.04600857782557     -1.34028190865977     -1.41861856751690
  H   1.69327628303996     -1.25836513408098     -1.11130154886876
  N   0.38544831482158     -0.69385067460154      1.23158516543952
  H   1.24064078874549     -1.19656758749718      1.41775989272419
  H   -0.40621157646738     -1.30828749207909      1.11197145841640
  C   0.27511325467926      2.08791900700947      1.26289234294338
  H   -0.74164643424307      1.79163496044753      1.52886783309013
  H   0.95667741881554      1.71832420171244      2.02930776643777
  H   0.33673280265201      3.18384646196896      1.22418849689211
  N   -0.20991113008509      2.03410340050956     -1.18860209753089
  H   -0.43752941981352      2.99487456455344     -0.95348871941761
  H   -1.06289311320270      1.48662830921964     -1.14705382498602
