16
Coordinates from ORCA-job run
  C   0.68166904226888     -0.10068227081561     -0.01644032098337
  H   1.52800098889244      1.83648182408417     -0.34143170554075
  F   -1.10620085647459     -0.26136714755875     -0.16064968136837
  F   2.44086167865189      0.04990656105963      0.15173074790967
  C   0.54424539695897      1.43351925211996     -0.11529426162520
  N   0.84515334238460     -0.74538983584379     -1.28728720346392
  H   0.03914526030836     -1.33374162442832     -1.43532777694631
  H   1.71529305744705     -1.25507814376679     -1.26409059929632
  N   0.60751406350164     -0.69782285668166      1.28218500493023
  H   1.48278096956146     -1.16193863083187      1.46544197818972
  H   -0.19271877871471     -1.30995137925158      1.29918914316317
  N   0.19042854146155      2.00269446808628      1.22862553563887
  O   1.13937086038477      2.31495129600124      1.94368435165752
  O   -0.99272185901289      2.10996234298224      1.53116192397281
  C   -0.41990877415523      1.89426435780348     -1.10960938845866
  N   -1.08051293346420      2.39394178704136     -1.94135774777908
