17
Coordinates from ORCA-job run
  C   0.44966388399546     -0.11574300482038      0.02866105096282
  H   1.65374273457051      1.60863524217879      0.22488447108438
  Cl  -1.64728797016483     -0.16902245926884      0.33484881540872
  H   2.44371325640569     -0.11959874055090     -0.37126212854965
  C   0.59507249481878      1.42261513270485      0.05794507140303
  N   0.36682861787566     -0.77876699474457     -1.26401991078155
  H   -0.33545787179361     -1.50762751888421     -1.21709643318343
  H   1.28284974561555     -1.15156564938705     -1.45233007094399
  N   0.80134363951099     -0.77262503717147      1.27279010915195
  H   1.71652646827495     -1.17308736069391      1.14213771083931
  H   0.11210759846862     -1.48313540802900      1.48613116167140
  C   -0.09261789377326      2.05541528984060      1.19246038897219
  N   -0.53340940326512      2.69549521434007      2.07448557703476
  C   0.19458593725206      2.07301332547250     -1.26078909946346
  H   0.83717730526640      1.67700429620537     -2.04697769081253
  H   -0.84073039134412      1.83633840521113     -1.50547556792232
  H   0.31514184828625      3.15846526759703     -1.19647345487163
