16
Coordinates from ORCA-job run
  C   0.59197580258389     -0.12757878361236     -0.00332667945778
  H   1.58114124454993      1.71599971413962      0.19044948192075
  Cl  -1.67355258070616     -0.36019068993107      0.05961421027794
  F   2.51415323775768      0.02131886415858     -0.06127228120359
  C   0.54128084419873      1.41300024758822      0.07356600721393
  N   0.65343277691579     -0.72985102302686     -1.29158529796551
  H   0.03537288064809     -1.52505705197337     -1.33603393791181
  H   1.62467962138039     -0.96902637459694     -1.43743023594801
  N   0.74436300346456     -0.74931509990155      1.27619601327676
  H   1.69160384029944     -1.10235785160086      1.29219384954348
  H   0.05028701069014     -1.46918914249494      1.40695315145101
  C   -0.24151867745256      1.94928549765810      1.17892489051353
  N   -0.74638763243239      2.49064071260923      2.09023725417537
  N   0.11107617751653      2.04155497301908     -1.22363461386542
  O   0.97231431331507      2.08461786422782     -2.09675768327903
  O   -1.02846186272912      2.48614814373730     -1.32197412874161
