17
Coordinates from ORCA-job run
  C   0.52553085968542      0.01678997565226     -0.09145000464303
  H   1.54972136572792      1.69979253602833     -0.85615245773550
  F   -1.08970477555685     -0.22777728202028     -0.55532955949762
  H   2.30450622419198      0.16086061346319      0.49318733319210
  C   0.63732928424185      1.56262138555261     -0.27870650599092
  N   1.01979575960597     -0.80896006497651     -1.17858821494483
  H   0.29806474531497     -1.48907459603694     -1.38400800145359
  H   1.87119821239629     -1.25106845488089     -0.87631587131209
  N   0.22071818063887     -0.48768438263700      1.24701883406379
  H   1.06963934724197     -0.87251160136577      1.62674855215240
  H   -0.49616130866582     -1.19424796279577      1.13690931243817
  N   0.81378956043972      2.26669871020821      0.99353402670749
  H   1.68315658707682      1.87853629179815      1.35884537292877
  H   0.09865470641125      1.88174922496378      1.60802614241359
  N   -0.48214108328079      2.16567458636495     -1.01723446173647
  H   -0.63244435056137      3.07286102665500     -0.59324962614559
  H   -1.29381331490816      1.58323999402667     -0.87103487043666
