18
Coordinates from ORCA-job run
  C   0.68034702074413      0.02818573871414      0.02092717716794
  H   1.75872585806677      1.83804039849301     -0.07034913546421
  F   -1.12854401689225     -0.01370142683260      0.40222561612911
  F   2.50741261418706     -0.09783910499859     -0.40037429134937
  C   0.70441463037728      1.56561735153041     -0.06103055744273
  N   0.41554793810329     -0.76861171937594     -1.15099639237037
  H   -0.39026506488841     -1.33990104753695     -0.94382466020230
  H   1.25011680204537     -1.31284726941725     -1.31105725113560
  N   0.97134068123979     -0.53337887373058      1.32100961019774
  H   1.81184704753167     -1.07965851013044      1.19602848950361
  H   0.17691268635078     -1.10529074742487      1.57090502746986
  N   0.09452113580386      2.21705147091944      1.10297135471163
  H   0.59703092585743      1.84573150427774      1.90437504698434
  H   -0.81969724935564      1.77694204405852      1.16517515872420
  C   0.04407456564376      2.05941191225711     -1.33484928214222
  H   0.55218724968540      1.65658414468560     -2.21103053173401
  H   -0.99276862854934      1.71933224628097     -1.35543722274533
  H   0.07201580404907      3.15304188823025     -1.35349815630229
