16
Coordinates from ORCA-job run
  C   0.46856016710604     -0.06296478877712      0.04075063191653
  H   1.41431779859786      1.78243100229718      0.49157031876923
  F   -1.15911343667658     -0.21765734320965      0.52799481662736
  H   2.24866251415650      0.02323035069722     -0.56113248485786
  C   0.47672006772670      1.46055920112494      0.04383396824146
  H   -0.34546125387222      1.78882586962677      0.68993957965603
  N   0.19548877422817     -0.79926491454645     -1.18766145686626
  H   -0.56408929176243     -1.43503753885169     -0.97188287911394
  H   1.03610453013976     -1.28897032848436     -1.44406721837551
  N   0.95827719985309     -0.70206261456559      1.25610350607036
  H   1.80689924862659     -1.19078912983842      1.02314519470096
  H   0.23007527345060     -1.34723380015644      1.54140909728070
  C   0.32253727685955      2.05761862041536     -1.34331342837433
  H   1.13569415643549      1.69659862634079     -1.97644132944712
  H   -0.62176899108749      1.74538093995651     -1.79277630877412
  H   0.35237596621837      3.15386584797095     -1.30248200745349
