17
Coordinates from ORCA-job run
  C   0.59865185994543      0.04053242366604     -0.07045571959529
  H   1.57635431061812      1.73520803378701     -0.81918069680558
  F   -1.19328163132104     -0.25388696580500     -0.54242701917788
  F   2.38511511671306      0.11119098605686      0.49916687784554
  C   0.65136721594184      1.58007916938074     -0.26347781488473
  N   0.99979411523599     -0.76616556059825     -1.18931263934931
  H   0.23532444380282     -1.39716304673928     -1.37858223379304
  H   1.83908879600473     -1.25112941012806     -0.90613820427879
  N   0.25320688123764     -0.47700008694165      1.23463033254856
  H   1.08613115091005     -0.91907571351758      1.59441893179772
  H   -0.50373003017818     -1.12830034929822      1.09323662491514
  N   0.80045910746671      2.27383955519611      1.01801097611720
  H   1.67691328379592      1.91286504516829      1.38462132276958
  H   0.09110208102649      1.86527605332053      1.62289118429070
  N   -0.46860747575066      2.13308678388000     -1.01981744098660
  H   -0.69221013609852      3.01615965354704     -0.57848609495406
  H   -1.23783908935037      1.48198342902543     -0.91689838645917
