17
Coordinates from ORCA-job run
  C   0.49637047864724     -0.10062558939395      0.04521922202139
  H   1.61139777601364      1.67452563731218      0.37387866987560
  F   -1.10509712730331     -0.16662480865169      0.48380931337203
  H   2.25313745811523     -0.03834938798080     -0.54726180628058
  C   0.58773948601140      1.43877251780811      0.08949335888936
  N   0.21986653693945     -0.77613932733884     -1.21232527873987
  H   -0.55496465891495     -1.40872060774113     -1.04645928423244
  H   1.05465571358219     -1.25688822577196     -1.50081287483447
  N   0.96463764902921     -0.76502155316933      1.24766196271145
  H   1.78722490566804     -1.29636798670866      1.01512583470265
  H   0.20903156979945     -1.36543629372329      1.55805306077591
  C   -0.27454782640816      2.04013171846187      1.12302006895608
  N   -0.86546982806769      2.64342473583851      1.94065625898492
  C   0.28509225698157      2.05632320450377     -1.26928169282064
  H   0.99492996978961      1.64433991557135     -1.98721307723726
  H   -0.72367292127000      1.78622523043260     -1.58270745931613
  H   0.37891856138704      3.14624082055126     -1.23093627682796
