16
Coordinates from ORCA-job run
  C   0.71256746166347      0.00295274773803      0.01063796417549
  H   1.72569100559235      1.85773637069667     -0.25148936419240
  F   -1.09107334221991      0.00123260614834      0.20194448244819
  F   2.54367872564154     -0.04346382523476     -0.15318723997321
  C   0.69520952003587      1.54119202847811     -0.09395129576009
  N   0.60236966201247     -0.75931877660240     -1.19859172819680
  H   -0.24780910367390     -1.30026369418813     -1.14692086184898
  H   1.43218485059896     -1.32775785322728     -1.27039606089787
  N   0.85411121387791     -0.54706248744583      1.33607523777028
  H   1.70603875214008     -1.08781044429378      1.33029797321070
  H   0.03514810065227     -1.11028091337581      1.51275957086094
  N   0.17403731003808      2.21454548127003      1.09385004077657
  H   0.73994437764108      1.85376253770750      1.85646973383114
  H   -0.73573139535931      1.78133432134547      1.22667544672868
  C   -0.08000493198809      1.97558989869109     -1.26494116448062
  N   -0.65827220665288      2.41904200229274     -2.18490273445201
