14
Coordinates from ORCA-job run
  C   0.49250657679381     -0.10267097318739      0.00426089896646
  H   1.63691026824561      1.69880086422760     -0.22707486181338
  Cl  -1.63200731056942     -0.11905228805220     -0.11162956329504
  H   2.53962110551676     -0.13193793371597      0.15563588710931
  C   0.61008815126725      1.42644926754736     -0.00436526268330
  H   -0.04435110196475      1.82004782334297     -0.78623365471001
  N   0.69996745140836     -0.71063969860894     -1.30058514227258
  H   0.02544197000485     -1.45767155216018     -1.41845779081044
  H   1.64148762354003     -1.07080220659792     -1.28649260050813
  N   0.53797885292816     -0.79911570560153      1.27149008358078
  H   1.47360882514777     -1.15530858123827      1.37538720790078
  H   -0.15612238852714     -1.53622651434838      1.27887521335371
  C   0.24256661561328      2.04399270017532      1.26761693386933
  N   -0.00824663940454      2.62089479821751      2.25858265131247
