17
Coordinates from ORCA-job run
  C   0.53291609652352     -0.04988363206446     -0.06847042777900
  H   1.52169805333890      1.57589728269758     -1.02906325766415
  F   -1.00808044686108     -0.19257868398330     -0.63526585075953
  H   2.24130884780111      0.10760956839081      0.53560851184230
  C   0.73119625273677      1.46831061822975     -0.29388079399817
  N   1.06975431305226     -0.93049829412526     -1.08975506338525
  H   0.32727084599380     -1.56273107715790     -1.36270129139325
  H   1.86327022019154     -1.42205671788721     -0.71536136005433
  N   0.15280004126528     -0.45923956541463      1.27449807768619
  H   0.94054891337208     -0.91413661964378      1.70572812725602
  H   -0.63871339220717     -1.08421713255707      1.18332422216945
  N   0.98332731555325      2.27747206455005      0.87504552489978
  H   1.80304989329570      1.82394156968897      1.27271674133735
  H   0.22062257706775      2.07302613716404      1.51519258644644
  N   -0.47916310885420      2.10583806752433     -0.95539703457498
  O   -1.40147398398229      2.49140636960488     -0.24408416189883
  O   -0.45260243828724      2.21474004498323     -2.18076455013012
