16
Coordinates from ORCA-job run
  C   0.64439714413518     -0.06405085690368     -0.02061171362122
  H   1.76760238019060      1.74288038086725      0.06963296449927
  F   -1.16242997960182      0.02452968790777      0.02260393976809
  F   2.48458358040654     -0.19650826179922     -0.08148081734527
  C   0.71502894851040      1.47113716002876      0.00697342939410
  N   0.57581463687394     -0.73354945004944     -1.28752716961701
  H   -0.23681388659437     -1.33130241813655     -1.26623685280908
  H   1.43833000215453     -1.24740167447039     -1.38512690574997
  N   0.66485309308775     -0.71490425501046      1.26056905559536
  H   1.47242500824798     -1.31923883479684      1.26603377163957
  H   -0.20514450498117     -1.21655999280717      1.36242052504345
  C   0.05443770076945      1.98143668107285      1.22830748136487
  N   -0.42407306245337      2.55391586863769      2.13640526112138
  N   0.13659583529232      2.05342047704792     -1.20453327406408
  H   -0.06489311674683      3.03067926242588     -1.02077922590377
  H   -0.74884377929113      1.57011622598566     -1.31570046931568
