15
Coordinates from ORCA-job run
  C   0.78756640887112     -0.10925879183513      0.00038220111642
  H   1.64258989511268      1.87649696781530     -0.02857144469349
  F   -1.19320596887375     -0.05563510524610      0.02275667517043
  Cl  3.04830369015363     -0.13832838572138     -0.02457719953025
  C   0.64546366652569      1.42797993176195     -0.00897039962755
  N   0.70304183701833     -0.74501573121177     -1.27076475738116
  H   -0.26896280620407     -1.01915285270495     -1.35821404580735
  H   1.33518535035322     -1.53062575857254     -1.31175787998112
  N   0.73161133589165     -0.72871511128235      1.28084538060833
  H   1.36009371318495     -1.51759848023037      1.31517029455104
  H   -0.23957301996235     -0.99610471432195      1.39505042950582
  C   -0.02557243587477      1.92538007140782      1.19602158156572
  N   -0.48584238421751      2.42651975653944      2.15214648467548
  C   -0.06403702447900      1.90780186829657     -1.19903108149163
  N   -0.55454225749980      2.39478633530544     -2.14740623868069
