19
Coordinates from ORCA-job run
  C   0.64124178492087     -0.05715181718740     -0.00174323778574
  H   1.69271623592801      1.74545195983558     -0.18466473231665
  F   -1.21383030108772     -0.14523918452242     -0.10552674788555
  F   2.49457250390485     -0.14923027281008      0.14915120910397
  C   0.64380228608754      1.47468113048129     -0.05554705100784
  N   0.73531199134628     -0.76604636045874     -1.25676598618595
  H   -0.10256331121351     -1.32628505675538     -1.32510272359245
  H   1.57126170817660     -1.32869045486958     -1.19150549186899
  N   0.55586854288053     -0.72412638361114      1.27670914847015
  H   1.39438432915796     -1.28010261338677      1.35619317789058
  H   -0.28329113312849     -1.28475428002841      1.24903638424799
  C   0.14150515446279      2.07091522221515      1.25232411379791
  H   -0.87613309430907      1.72143695383528      1.43163853137528
  H   0.76498737065310      1.75151992223908      2.08768383472984
  H   0.14719762046971      3.16707974655995      1.19758169180352
  C   -0.13281080794738      2.02999139897728     -1.24615202994241
  H   0.16791490371821      1.51420252101884     -2.15895056157569
  H   -1.20097876485916      1.87680809112103     -1.10308888595519
  H   0.07659298083889      3.10213947734643     -1.35716064330278
