15
Coordinates from ORCA-job run
  C   0.40971991715842      0.03028551330691      0.10089282997656
  H   1.32036143733683      1.81704769430902      0.79500215030513
  F   -1.12386812326542     -0.08826987735129      0.84252435955412
  H   2.06901528032038      0.11156623950922     -0.70663996088388
  C   0.49039849287702      1.56089257479553      0.13640559982801
  H   -0.43993568443194      1.93474912171678      0.57228454797406
  N   -0.09689985536355     -0.58508600354501     -1.12239635523194
  H   -0.83635000444900     -1.21633527876933     -0.83779978291713
  H   0.66391736928126     -1.07847425545854     -1.56038099198119
  N   1.03344158795256     -0.72498530851492      1.17878500404334
  H   1.82447021335439     -1.21701602947785      0.79797507861516
  H   0.32821043523777     -1.36488562870299      1.52407506317585
  N   0.67831870178516      2.21758686591580     -1.15398857662721
  H   -0.07856711608508      1.87300100145225     -1.73864415873144
  H   1.50566734829120      1.74324337081444     -1.52207480709945
