16
Coordinates from ORCA-job run
  C   0.62044833251093     -0.02279933954357      0.01195364090732
  H   1.72851630102912      1.72595341100830     -0.26472578137403
  Cl  -1.67674274168220     -0.07610921341030      0.20804921068398
  F   2.60256829016320     -0.05557901000801     -0.10051948383541
  C   0.67316237241571      1.51576274134746     -0.08685566977548
  N   0.60384656370501     -0.75360302660317     -1.21396426451651
  H   -0.07025356374261     -1.50363489990595     -1.16539800881478
  H   1.55239421035247     -1.09339338705564     -1.31642361109237
  N   0.79038679246981     -0.58273858443991      1.32398160896872
  H   1.72374829237130     -0.97533130866720      1.30133730166476
  H   0.08329468978222     -1.28328370962750      1.49188468232479
  N   0.26493693234307      2.23862201384604      1.10651650977355
  H   0.81703003204747      1.84195295681312      1.86009609909313
  H   -0.69134984063183      1.95320063980411      1.29615374803909
  C   -0.05297984985581      2.01876383230806     -1.25893178611540
  N   -0.56091681327787      2.52364688413417     -2.18882419593134
