16

C	-0.534272	-0.135235	-1.429261
C	0.0	0.0	0.0
Cl	0.343062	-1.446716	-2.2505
H	1.105839	0.0	0.0
C	-2.022232	-0.379559	-1.533528
H	-2.262487	-1.295262	-0.993358
H	-2.560016	0.457135	-1.081402
H	-2.325936	-0.47793	-2.573448
N	-0.182702	1.149	-2.196339
O	0.844085	1.732062	-1.877078
O	-0.945684	1.473652	-3.103751
C	-0.42144	-1.149069	0.781995
N	-0.756606	-2.08124	1.415199
C	-0.498592	1.22047	0.606881
N	-0.895736	2.221703	1.081215
F	2.428916	0.0	0.0
