16

C	-0.225805	-0.138607	-1.503375
C	0.0	0.0	0.0
Cl	0.18937	1.401955	-2.292476
H	1.106223	0.0	0.0
C	0.6409	-1.246919	-2.055772
H	0.615958	-1.250906	-3.143618
H	0.283947	-2.209489	-1.681061
H	1.642587	-1.04869	-1.661343
N	-1.696172	-0.383267	-1.860004
O	-1.927005	-0.803844	-2.991553
O	-2.540482	-0.126389	-1.007159
C	-0.437171	-1.198391	0.69428
N	-0.751542	-2.188222	1.246162
C	-0.535374	1.200509	0.610058
N	-0.916445	2.178498	1.139804
F	2.490247	0.0	0.0
