16

C	-0.248951	-0.043098	-1.509662
C	0.0	0.0	0.0
Cl	0.037023	1.571117	-2.200486
H	1.102442	0.0	0.0
C	0.674144	-1.049996	-2.152739
H	0.624318	-0.989089	-3.238714
H	1.670715	-0.815811	-1.762815
H	0.39265	-2.057015	-1.837229
N	-1.716345	-0.353011	-1.828658
O	-1.94723	-1.030471	-2.826267
O	-2.560958	0.114343	-1.072015
C	-0.438223	-1.247673	0.603599
N	-0.764607	-2.27988	1.063709
C	-0.525999	1.150296	0.707793
N	-0.884619	2.080941	1.330636
F	2.494263	0.0	0.0
