16

C	-0.216574	0.003926	-1.510887
C	0.0	0.0	0.0
Cl	-1.949645	0.082995	-1.976528
H	1.092504	0.0	0.0
C	0.584066	1.122806	-2.137838
H	1.601834	1.002663	-1.74835
H	0.17857	2.084026	-1.820202
H	0.547468	1.048907	-3.22308
N	0.302178	-1.314585	-2.10208
O	0.363027	-1.366066	-3.326617
O	0.612111	-2.213766	-1.332057
C	-0.618688	-1.086982	0.735017
N	-1.131666	-1.921958	1.384799
C	-0.432228	1.274768	0.551098
N	-0.752014	2.312135	1.003213
F	2.484314	0.0	0.0
