16

C	-0.230714	0.009092	-1.509724
C	0.0	0.0	0.0
Cl	0.162227	1.624178	-2.145569
H	1.097974	0.0	0.0
C	0.646847	-1.031348	-2.168445
H	1.647726	-0.863957	-1.75574
H	0.620067	-0.929361	-3.251405
H	0.299385	-2.029922	-1.890401
N	-1.700273	-0.217211	-1.881799
O	-1.931556	-0.552284	-3.040325
O	-2.544209	-0.034382	-1.010079
C	-0.4318	-1.264916	0.570178
N	-0.732937	-2.308538	1.020222
C	-0.538348	1.132708	0.726503
N	-0.923068	2.060273	1.337035
F	2.493526	0.0	0.0
