16

C	-0.230312	-0.006627	-1.507005
C	0.0	0.0	0.0
Cl	-1.966186	0.088631	-1.956095
H	1.102911	0.0	0.0
C	0.574109	1.098528	-2.154897
H	0.1819	2.066829	-1.842436
H	1.596031	0.975292	-1.777895
H	0.522487	1.013731	-3.238322
N	0.271139	-1.333721	-2.093226
O	0.644673	-2.206165	-1.319881
O	0.264449	-1.414224	-3.317545
C	-0.621287	-1.082836	0.737395
N	-1.147209	-1.913883	1.381394
C	-0.42651	1.277667	0.547014
N	-0.743263	2.318591	0.993208
F	2.481409	0.0	0.0
