16

C	-0.172402	0.085956	-1.515027
C	0.0	0.0	0.0
Cl	-1.88919	0.037223	-2.051884
H	1.093793	0.0	0.0
C	0.529817	1.314867	-2.037802
H	0.026408	2.203746	-1.65722
H	0.524623	1.328226	-3.125863
H	1.550799	1.261894	-1.647144
N	0.474365	-1.163728	-2.130183
O	1.221515	-1.003817	-3.087603
O	0.159638	-2.241766	-1.642578
C	-0.57704	-1.142552	0.681541
N	-1.032568	-2.012755	1.3282
C	-0.454445	1.227335	0.628602
N	-0.790924	2.2296	1.144108
F	2.47192	0.0	0.0
