16

C	-0.28583	-0.065114	-1.500691
C	0.0	0.0	0.0
Cl	-2.032676	0.050325	-1.894185
H	1.106015	0.0	0.0
C	0.498899	1.008631	-2.21442
H	0.082233	1.982051	-1.951222
H	0.44637	0.873347	-3.295208
H	1.528623	0.929561	-1.853146
N	0.175633	-1.4486	-1.983007
O	-0.518388	-2.409391	-1.671821
O	1.220116	-1.492079	-2.624472
C	-0.548756	-1.083886	0.791425
N	-0.963774	-1.937556	1.485012
C	-0.434525	1.280289	0.527792
N	-0.763175	2.325178	0.954285
F	2.466177	0.0	0.0
