14

C	-0.548302	0.048592	-1.411563
C	0.0	0.0	0.0
Br	-0.213283	-1.554049	-2.471051
H	1.095037	0.0	0.0
H	-1.634399	0.169366	-1.41937
H	-0.087521	0.868954	-1.962248
N	-0.457244	-1.182405	0.721024
H	-1.299402	-0.975917	1.248927
H	0.272456	-1.44594	1.374601
C	-0.396804	1.305574	0.694749
H	-1.486314	1.391506	0.816157
H	-0.036271	2.179823	0.14392
H	0.070357	1.330116	1.682813
H	2.967684	0.0	0.0
