14

C	-0.547525	-0.069295	-1.412589
C	0.0	0.0	0.0
Br	-0.238185	1.539145	-2.488769
H	1.100597	0.0	0.0
H	-0.064506	-0.878361	-1.96255
H	-1.627979	-0.223482	-1.39889
N	-0.450139	-1.283203	0.608236
H	0.307741	-1.942834	0.43168
H	-0.441925	-1.151137	1.615541
C	-0.543081	1.159772	0.80569
H	-0.280308	2.11335	0.347522
H	-1.634274	1.098139	0.903231
H	-0.097834	1.143821	1.805244
H	3.012763	0.0	0.0
