14

C	-0.477038	-0.069734	-1.444367
C	0.0	0.0	0.0
Br	-0.296925	1.588269	-2.482875
H	1.095339	0.0	0.0
H	0.109098	-0.813083	-1.985168
H	-1.54081	-0.318091	-1.502599
N	-0.360197	-1.269933	0.650673
H	0.343216	-1.960305	0.404842
H	-1.269196	-1.602663	0.340069
C	-0.561742	1.162852	0.789909
H	-0.224326	2.117837	0.383723
H	-1.66065	1.154786	0.79912
H	-0.207611	1.075569	1.818449
H	2.970307	0.0	0.0
