14

C	-0.403721	0.070144	-1.456377
C	0.0	0.0	0.0
F	-0.208981	-1.212729	-2.044797
H	1.096309	0.0	0.0
H	-1.476054	0.255307	-1.597344
H	-0.320287	0.935198	0.470679
N	0.349539	1.071262	-2.122234
H	1.336479	0.948674	-1.906559
H	0.216552	1.010458	-3.12439
C	-0.561892	-1.204212	0.738353
H	-0.248205	-1.188948	1.78483
H	-1.657915	-1.22225	0.71063
H	-0.194235	-2.127286	0.290851
Cl	3.641784	0.0	0.0
