14

C	-0.493272	0.005675	-1.42997
C	0.0	0.0	0.0
F	-0.272177	1.252781	-2.01358
H	1.0937	0.0	0.0
H	0.098792	-0.692094	-2.035802
H	-0.29835	-0.957742	0.448254
N	-1.920768	-0.229297	-1.504565
H	-2.167238	-0.998232	-0.895538
H	-2.184698	-0.473543	-2.45104
C	-0.543909	1.164812	0.818548
H	-1.635877	1.163612	0.861176
H	-0.221457	2.107943	0.376442
H	-0.148327	1.122037	1.83587
Cl	3.663116	0.0	0.0
