14

C	-0.493296	-0.000277	-1.430165
C	0.0	0.0	0.0
F	-0.288786	1.249742	-2.01383
H	1.093698	0.0	0.0
H	0.107704	-0.689924	-2.036198
H	-0.297175	-0.956708	0.451302
N	-1.917407	-0.254147	-1.504774
H	-2.152905	-1.028516	-0.898172
H	-2.178237	-0.49932	-2.451919
C	-0.546658	1.165843	0.815085
H	-1.638927	1.165292	0.851404
H	-0.157009	1.122587	1.834752
H	-0.220696	2.108672	0.374894
Cl	3.661153	0.0	0.0
