16
Coordinates from ORCA-job run
  C   -0.31648913121777     -0.58893837451388     -0.18168470440241
  C   0.79763168934273      0.18321151096209      0.54071485875623
  Br  0.35073972984184     -2.36211667927011     -0.55193213692669
  H   1.07385565371790     -0.39030743519753      1.42860197993213
  N   -0.69854793669563      0.12189631260243     -1.49164171308555
  O   -0.61115701967442     -0.47349277563164     -2.55035007909069
  O   -1.11467529873391      1.26073578695514     -1.31378642160807
  C   -1.56926080552618     -0.65974732993000      0.67358603031575
  H   -2.33807431910363     -1.22733742520359      0.14677216839337
  H   -1.93907189998030      0.34730327776648      0.87246679651457
  H   -1.34913906697277     -1.16512447391733      1.61515248281262
  C   0.43791329545027      1.53996064534777      0.93966585795283
  N   0.19236846637793      2.61378054263286      1.34833516368663
  N   2.06090668355072      0.24759621258697     -0.29474491497924
  O   1.93622340569314      0.69725851709407     -1.42666542585304
  O   3.08677655393005     -0.14467831228372      0.24551005758156
