16
Coordinates from ORCA-job run
  C   -0.33465135004143     -0.28560521376926     -0.42074123254609
  C   0.64569998488223      0.65489593894901      0.30675676574660
  Br  0.55428725431453     -1.17621486740289     -1.87791395375996
  H   0.11491558767185      1.14175273120849      1.12602424564832
  N   -1.45306148013963      0.61813624876795     -0.97981852435957
  O   -1.70181587590494      1.61377092585938     -0.30493827189801
  O   -2.05660913752186      0.23584874405348     -1.96703842949169
  C   -1.03067940099232     -1.28700334292920      0.48293326320611
  H   -1.51204268174257     -0.76193366123562      1.31188087863522
  H   -1.78300906508618     -1.81891488857918     -0.10137063348592
  H   -0.31959233211597     -2.00664633864974      0.88329346769824
  C   1.22313870656036      1.65488823369094     -0.57890271193121
  N   1.66482927850513      2.48971510380842     -1.27703141760466
  N   1.74237290372242     -0.15775274346758      0.96585108048034
  O   2.82579396192719     -0.23148691256957      0.40312223320220
  O   1.42142364596120     -0.68344995773463      2.02789324046010
