16
Coordinates from ORCA-job run
  C   -0.40751908565090     -0.54406383781400     -0.27797563969559
  C   1.02611944539531     -0.15282986402059      0.09636069419855
  Br  -0.41463165007286     -2.48971331813809     -0.40283960308577
  H   1.72438925997029     -0.56863753699727     -0.63279770591184
  N   -0.66358269382781     -0.04929748646336     -1.70202691172101
  O   -1.81542618851592      0.24188309153758     -1.98562534717626
  O   0.30511976928108     -0.02609322892754     -2.45177368139171
  C   -1.48568472413665     -0.08570069579892      0.67251074817716
  H   -1.27212013480427     -0.46814766120112      1.67172035117416
  H   -2.45097166542505     -0.46788993908552      0.34705908602076
  H   -1.52684769782806      1.00296053923600      0.69161706759583
  C   1.36616571913375     -0.58944922200651      1.44360413751298
  N   1.61584401960185     -0.93394976776086      2.53849655280616
  N   1.26440783116839      1.35621567268726      0.02259340998723
  O   0.34458259535387      2.06323715384298     -0.36874136378278
  O   2.38915520035696      1.71347610090996      0.33781820529212
