16
Coordinates from ORCA-job run
  C   -0.25283702096478     -0.62018216005468     -0.30151093697271
  C   1.02447448028373      0.18405514453861     -0.03648421143898
  Br  0.33164896509186     -2.44029302763274     -0.68301335797349
  H   1.70340494007691      0.08822093801626     -0.88621500247381
  N   -0.85552078020152     -0.10852489430730     -1.61073370308770
  O   -0.06290111467773      0.30046149920162     -2.45069288190578
  O   -2.06900564520420     -0.18640799262116     -1.72617175041087
  C   -1.27005186671774     -0.62910852628223      0.81265319625576
  H   -1.64843886308915      0.37891157021036      0.97938823519168
  H   -2.10249390901002     -1.27720402989581      0.54662681845842
  H   -0.80380196898585     -1.00769742885805      1.72346818816687
  C   1.67829578420026     -0.23744550426693      1.19468177637190
  N   2.18366636142296     -0.58260552924936      2.19738518601567
  N   0.76520017340514      1.68808395117531      0.06518852940078
  O   1.75597801159705      2.36417860780927      0.29602956869182
  O   -0.37761754722692      2.08655738221682     -0.11959965428958
