15

C	-0.481426	0.044943	-1.448041
C	0.0	0.0	0.0
Cl	0.545765	-0.952221	-2.464216
H	1.094555	0.0	0.0
N	-1.93495	-0.503788	-1.495952
O	-2.186959	-1.505622	-2.140197
O	-2.722816	0.1447	-0.816406
C	-0.551313	1.394941	-2.000091
N	-0.613295	2.472605	-2.465412
N	-0.349737	-1.300431	0.562583
H	0.489275	-1.660981	1.000667
H	-1.088786	-1.23224	1.25
C	-0.486595	1.124228	0.780626
N	-0.834625	2.005053	1.478945
F	2.49551	0.0	0.0
