15

C	-0.351333	-0.004538	-1.470686
C	0.0	0.0	0.0
Cl	0.255654	-1.468264	-2.25929
H	1.095928	0.0	0.0
N	-1.884335	0.021375	-1.736173
O	-2.244222	0.201298	-2.893105
O	-2.619397	-0.152169	-0.771257
C	0.189067	1.169803	-2.153442
N	0.621726	2.114669	-2.702119
N	-0.41826	-1.205806	0.682317
H	-1.304399	-1.090451	1.150638
H	0.305176	-1.441947	1.346925
C	-0.460221	1.242725	0.607
N	-0.824533	2.222935	1.147025
F	2.485854	0.0	0.0
