15

C	-0.432709	-0.0963	-1.450751
C	0.0	0.0	0.0
Cl	-2.212254	-0.191283	-1.656877
H	1.093956	0.0	0.0
N	0.06209	1.151378	-2.199467
O	1.078457	1.018799	-2.86752
O	-0.5729	2.181419	-2.021016
C	0.155646	-1.275165	-2.078449
N	0.563782	-2.235053	-2.618501
N	-0.342089	-1.252179	0.662274
H	-1.145789	-1.162652	1.269394
H	0.469856	-1.528003	1.201792
C	-0.534808	1.174316	0.665506
N	-0.966018	2.068932	1.297331
F	2.4788	0.0	0.0
