15

C	-0.510712	-0.001069	-1.441851
C	0.0	0.0	0.0
Cl	0.156752	1.362511	-2.350393
H	1.09345	0.0	0.0
N	-0.030273	-1.307378	-2.09847
O	1.17383	-1.43284	-2.231442
O	-0.901733	-2.113115	-2.414671
C	-1.9699	0.029784	-1.524532
N	-3.143896	0.095859	-1.512301
N	-0.399811	-1.251456	0.622695
H	0.388935	-1.580893	1.163498
H	-1.21415	-1.16328	1.214421
C	-0.490677	1.189509	0.680546
N	-0.899845	2.118831	1.275918
F	2.494126	0.0	0.0
