15

C	-0.296699	-0.069473	-1.510368
C	0.0	0.0	0.0
Cl	0.357987	-1.560824	-2.195331
H	1.095971	0.0	0.0
N	-1.815907	-0.07284	-1.739741
O	-2.329387	0.982025	-2.096217
O	-2.41478	-1.102023	-1.44241
C	0.265521	1.072532	-2.22077
N	0.720622	1.986824	-2.801621
N	-0.39247	-1.145436	0.784809
H	-1.231571	-1.600303	0.444725
H	0.38418	-1.793089	0.773216
C	-0.559	1.236769	0.523979
N	-1.00243	2.239798	0.95084
F	2.481398	0.0	0.0
