17

C	-0.508538	-0.019366	-1.441362
C	0.0	0.0	0.0
Cl	-0.151101	-1.481653	-2.352057
H	1.090217	0.0	0.0
C	-1.94659	0.23947	-1.542156
N	-3.111186	0.396946	-1.597428
N	0.231355	1.161355	-2.134206
O	-0.345359	2.246932	-2.068361
O	1.352737	0.94083	-2.561152
N	-0.432944	-1.223351	0.697053
O	0.167442	-2.267054	0.425176
O	-1.335896	-1.140267	1.547038
C	-0.444318	1.233316	0.759264
H	-0.099965	1.119998	1.787728
H	0.055329	2.10691	0.340552
H	-1.524997	1.38403	0.764138
H	2.558102	0.0	0.0
