17

C	-0.519772	0.042668	-1.415399
C	0.0	0.0	0.0
Cl	-2.30223	-0.198201	-1.512455
H	1.09332	0.0	0.0
C	-0.225735	1.335501	-2.030809
N	-0.043474	2.382495	-2.532781
N	0.170529	-1.003872	-2.348612
O	-0.465512	-1.955755	-2.760894
O	1.338007	-0.723986	-2.579505
N	-0.356505	-1.254835	0.622166
O	-0.772293	-1.254023	1.793968
O	-0.088452	-2.281573	-0.024961
C	-0.411555	1.197397	0.822113
H	-1.493565	1.275365	0.946918
H	0.053272	1.104053	1.803767
H	-0.021305	2.104283	0.356143
H	2.44066	0.0	0.0
