17

C	-0.539058	0.036902	-1.408507
C	0.0	0.0	0.0
Cl	-2.319694	-0.201647	-1.479348
H	1.09326	0.0	0.0
C	-0.249744	1.32608	-2.034042
N	-0.06536	2.373136	-2.536633
N	0.142514	-1.007454	-2.351735
O	1.317596	-0.742684	-2.562365
O	-0.509091	-1.931313	-2.801247
N	-0.34816	-1.247431	0.635064
O	-0.18138	-2.278841	-0.038742
O	-0.644144	-1.24335	1.84248
C	-0.393621	1.200536	0.82814
H	-0.028495	2.109472	0.345896
H	0.104829	1.115131	1.793389
H	-1.471976	1.268041	0.987325
H	2.418857	0.0	0.0
