17

C	-0.530444	0.029337	-1.411884
C	0.0	0.0	0.0
Cl	-2.312341	-0.219284	-1.501822
H	1.093225	0.0	0.0
C	-0.244472	1.318903	-2.037458
N	-0.055263	2.363143	-2.543294
N	0.162881	-1.009226	-2.349937
O	-0.477742	-1.937527	-2.806069
O	1.341516	-0.741557	-2.542982
N	-0.349769	-1.245348	0.638812
O	-0.191864	-2.279348	-0.034709
O	-0.636624	-1.238367	1.849472
C	-0.398769	1.203879	0.819719
H	-0.028543	2.109709	0.335516
H	0.092295	1.123114	1.790296
H	-1.479348	1.273986	0.970856
H	2.409514	0.0	0.0
