17

C	-0.509029	-0.188427	-1.418967
C	0.0	0.0	0.0
Cl	0.528327	-1.233093	-2.423531
H	1.101333	0.0	0.0
C	-1.885855	-0.672224	-1.504011
N	-3.006248	-1.018326	-1.59649
N	-0.498897	1.217295	-2.071065
O	0.562698	1.627292	-2.510019
O	-1.555634	1.838129	-2.018842
N	-0.37108	-1.128505	0.804998
O	-0.57268	-2.219417	0.23076
O	-0.293036	-1.006178	2.041937
C	-0.325853	1.322243	0.66023
H	0.163533	2.130449	0.113117
H	0.117301	1.290928	1.654379
H	-1.398186	1.517796	0.741026
H	2.372083	0.0	0.0
