17

C	-0.522647	0.022844	-1.426837
C	0.0	0.0	0.0
Cl	0.299585	-1.128761	-2.49595
H	1.09143	0.0	0.0
C	-1.969093	-0.151646	-1.539288
N	-3.137696	-0.239773	-1.644361
N	-0.211239	1.448093	-1.968253
O	-1.110133	2.272049	-1.830951
O	0.902195	1.65206	-2.418309
N	-0.441996	-1.193593	0.679743
O	-0.177738	-1.277113	1.891369
O	-0.946428	-2.123363	0.015438
C	-0.294693	1.251012	0.80678
H	0.024962	1.04409	1.826788
H	-1.347221	1.545337	0.795478
H	0.328118	2.068253	0.433785
H	2.421243	0.0	0.0
