17

C	-0.544633	0.10314	-1.397034
C	0.0	0.0	0.0
Cl	-2.320847	0.357128	-1.448327
H	1.091517	0.0	0.0
C	0.076957	1.227761	-2.097964
N	0.540309	2.136189	-2.682915
N	-0.187885	-1.135169	-2.28129
O	1.001346	-1.403712	-2.266973
O	-1.064335	-1.661086	-2.940594
N	-0.443793	-1.195784	0.652636
O	-0.803834	-2.167247	-0.044291
O	-0.313199	-1.245294	1.889359
C	-0.263281	1.235756	0.83855
H	-1.317092	1.346263	1.103179
H	0.080486	2.120175	0.296623
H	0.338719	1.149252	1.742681
H	2.380054	0.0	0.0
