12

C	0.0	0.0	0.0
C	-0.516962	-0.323046	-1.396215
Cl	1.830894	0.0	0.0
H	-0.250056	-1.351936	-1.656864
H	-0.301885	1.00797	0.279011
H	-1.614704	-0.255373	-1.312346
N	-0.520896	-0.929311	0.919956
H	-0.609711	-0.577739	1.858288
H	-0.059327	-1.825162	0.892613
C	-0.0176	0.575765	-2.430248
N	0.37775	1.296695	-3.268052
Br	-3.881759	0.0	0.0
