13

C	0.0	0.0	0.0
C	-0.59667	-0.086845	-1.372129
F	1.355004	0.0	0.0
H	-0.021218	-0.80813	-1.956902
H	-0.383334	0.841855	0.570546
H	-1.631045	-0.424079	-1.212198
N	-0.339592	-1.231529	0.811088
O	-0.483657	-1.087181	2.021704
O	-0.317774	-2.309829	0.220116
N	-0.546555	1.25634	-1.970012
H	-0.447474	1.163111	-2.97265
H	-1.463651	1.663168	-1.798455
H	-3.175922	0.0	0.0
