13

C	0.0	0.0	0.0
C	-0.447171	0.20334	-1.43365
F	1.353816	0.0	0.0
H	-1.507441	0.470262	-1.403043
H	-0.372773	0.821586	0.633648
H	0.131365	1.054354	-1.813712
N	-0.605441	-1.192052	0.598349
O	-0.398759	-1.343224	1.830825
O	-1.763063	-1.442935	0.026363
N	-0.143403	-0.977017	-2.256445
H	-0.823277	-1.670858	-1.959023
H	-0.348768	-0.742087	-3.222647
H	-2.822665	0.0	0.0
