13

C	0.0	0.0	0.0
C	-0.383926	0.016969	-1.524905
F	1.359597	0.0	0.0
H	-1.466497	-0.043114	-1.596032
H	-0.399478	0.866124	0.551832
H	-0.011812	-0.917295	-1.959314
N	-0.349868	-1.180248	0.834391
O	-1.748307	-1.407417	1.05197
O	0.42123	-2.225958	0.83371
N	0.005589	1.188458	-2.331781
H	1.004139	1.300645	-2.22409
H	-0.423371	1.984463	-1.863315
H	-2.008188	0.0	0.0
