13

C	0.0	0.0	0.0
C	-0.285271	0.26432	-1.497268
F	1.35567	0.0	0.0
H	-0.174336	-0.718188	-1.978863
H	-0.391565	0.792241	0.655123
H	0.560432	0.881002	-1.820898
N	-0.61273	-1.232586	0.463001
O	-0.328372	-1.611475	1.629959
O	-1.773596	-1.393861	-0.122201
N	-1.515124	0.969945	-1.831996
H	-2.256076	0.57347	-1.237383
H	-1.753174	0.724555	-2.787933
H	-2.994405	0.0	0.0
