12
Coordinates from ORCA-job run
  C   -0.90237138230665     -0.78899342782013      0.53094477783262
  C   0.27042615982132      0.11451675029563      0.17900103543098
  Cl  -0.38701280600425     -2.19062864334837      1.49606110284167
  H   0.86263014729709      0.28293107002909      1.08926144989092
  H   -1.36559657424677     -1.15541944261403     -0.38529213365161
  H   -1.64566924913696     -0.24741078345893      1.11731328994352
  N   -0.30725829111908      1.34119497053698     -0.38198799351787
  H   -0.83731082266436      1.84569998134816      0.32090063724194
  H   0.44262260051950      1.94971326369152     -0.68959414262121
  N   1.13295269837176     -0.54739490301876     -0.76938069071993
  H   0.70173817382557     -0.51254909432361     -1.68651225282076
  H   2.03484934564282     -0.09265974131756     -0.82171507985028
