12
Coordinates from ORCA-job run
  C   -0.75131674876102     -0.95642699920861      0.48918385969900
  C   0.18936032777139      0.20463354305433      0.20157848677786
  Cl  -1.79851968152765     -0.62436416825250      1.88729868125140
  H   0.64891402506388      0.52022223539164      1.14860377155931
  H   -1.38546328982081     -1.13319879800214     -0.37969251136879
  H   -0.18890781819125     -1.86357287009290      0.71371809923618
  N   -0.55978873849847      1.33094078515453     -0.30014025074300
  H   -0.01480434054840      2.18168269671250     -0.25353656443683
  H   -0.80404276117293      1.15839822786772     -1.26908763259623
  N   1.15703847429357     -0.28331835210864     -0.78769539016970
  H   1.76829361808865      0.47900802375532     -1.05688385849693
  H   1.74023693330305     -1.01400432427124     -0.39334669071226
