12
Coordinates from ORCA-job run
  C   -0.68910930453457     -0.81077771569631      0.75954059980561
  C   0.23795110237036      0.19206222283120      0.08978208137933
  Cl  -1.84240782111948     -1.57239865952038     -0.35259759390103
  H   0.87778465682880      0.56124895611007      0.92068150275494
  H   -0.09659374100685     -1.60387661566754      1.22045688744962
  H   -1.26195216924300     -0.31088892731798      1.54343401340965
  N   -0.53128032911751      1.26144719640905     -0.51917921420375
  H   -1.03658592329140      1.77058857758763      0.19632027121431
  H   0.08967272728320      1.91974436431635     -0.97473955231309
  N   1.01737682772850     -0.45678867544266     -0.94830003888214
  H   1.62353960262783      0.21772424356747     -1.40004286092728
  H   1.61160437147411     -1.16708496717689     -0.53735609578615
