12
Coordinates from ORCA-job run
  C   -0.75453481666334     -0.91497917745052      0.54827176950496
  C   0.28199393679863      0.12899312633111      0.17254018600219
  Cl  -1.97670667238692     -0.25893649126412      1.67903488405179
  H   0.76431720770643      0.47193433244338      1.09980331354667
  H   -0.26373798668891     -1.75169773434023      1.03902466932323
  H   -1.28170333568676     -1.25000700018552     -0.34570712906312
  N   -0.35906183760319      1.20017377362224     -0.58328426202434
  H   -1.13223932407945      1.59222123739211     -0.05748904061219
  H   0.30791127216254      1.94602624259832     -0.74420105068404
  N   1.29651497087111     -0.54759067961629     -0.61497150913461
  H   0.96228874098475     -0.60569664981027     -1.57100982024427
  H   2.15495784458511     -0.01144097972020     -0.62101201066626
