12
Coordinates from ORCA-job run
  C   -0.83789753479292     -0.82682594075901      0.56672312420628
  C   0.18959189409826      0.22773294452315      0.19538234669659
  Cl  -0.06552942471812     -2.30778353021174      1.20953244474184
  H   0.77215937499364      0.46122299979216      1.09878839452516
  H   -1.49651918981846     -0.43470012590590      1.33759130210319
  H   -1.40888353948501     -1.11280546472662     -0.31732348264746
  N   -0.54621937856455      1.42632018598948     -0.16363047756587
  H   -0.84503975992916      1.33183554646215     -1.12845096329012
  H   0.05269584689298      2.24011297084450     -0.10498210390618
  N   1.00273847512878     -0.25649270240692     -0.91559191225404
  H   1.75381077557665      0.39979852013773     -1.09528014390844
  H   1.42709246061791     -1.14741540373900     -0.68275852870096
