15
Coordinates from ORCA-job run
  C   -0.55026448026688      0.22210664608806     -0.38494123336072
  C   0.81049773476057      0.37087085676908      0.26990039562501
  Cl  -0.39853032844536     -0.76341805577354     -1.91553449645911
  H   0.62414931711510      0.82022719187594      1.24816185109269
  H   1.34710932801890      1.11492907267795     -0.32902504226777
  N   -1.17679938626160      1.46936798691898     -0.57358007753093
  H   -0.59210287548593      2.09673798191512     -1.10874696056280
  H   -2.08003620993428      1.36292840256510     -1.01931659047071
  N   -1.53480812335352     -0.57077541861768      0.48316923565106
  O   -2.68191458900107     -0.63349529212628      0.06016664167915
  O   -1.12484249343369     -1.04312703144841      1.53650908430509
  C   1.66869752852666     -0.88140877895186      0.40221253513303
  H   2.57046574496466     -0.63480260140204      0.96681720366069
  H   1.14263784943634     -1.66955405162593      0.93701594445551
  H   1.97574098336011     -1.26058690886449     -0.57180849095019
