15
Coordinates from ORCA-job run
  C   -0.55743497896727      0.25396829302712     -0.54812258548069
  C   0.79398449270287      0.37522125290495      0.15239134914373
  Cl  -0.35524710526382     -0.42494980238222     -2.16474712122521
  H   0.61119358232543      0.92338813388938      1.08209384304036
  H   1.41962015308486      1.00599441839768     -0.48613582760530
  N   -1.34266174545185      1.44878332203968     -0.65704252444820
  H   -1.39548800112227      1.90541138695645      0.24531369207597
  H   -0.93058129018537      2.07293397911030     -1.33795938503266
  N   -1.39139598253416     -0.70407166639468      0.31602680090948
  O   -1.73747687100586     -0.20389099429356      1.38372638982245
  O   -1.59509844953842     -1.85078569927508     -0.04753188596355
  C   1.48362837356747     -0.94997657725195      0.45321642499115
  H   0.91543248624762     -1.53678034566176      1.17768071943252
  H   2.47129673098602     -0.76588365144091      0.88020946093990
  H   1.60922860515477     -1.54936204962540     -0.44911935059995
