15
Coordinates from ORCA-job run
  C   -0.66177115587639      0.22432073578320     -0.62433419960211
  C   0.77057443741393     -0.30743304955702     -0.59605998777284
  Cl  -1.27789808403140      0.09905699297642     -2.28881780186356
  H   1.36157434547081      0.35351757696488     -1.23765512940535
  H   0.77606557919067     -1.29857561204457     -1.05498358089928
  N   -0.90814878363149      1.54500570967358     -0.15479546223639
  H   -0.33852925311921      2.20912827762875     -0.66177873496056
  H   -0.75542486334973      1.61682878248746      0.84154828171003
  N   -1.47191040876441     -0.73385757735763      0.26155508293569
  O   -1.61325588214008     -1.87743832988970     -0.14688621781319
  O   -1.81973543201720     -0.30665541239521      1.35798500572252
  C   1.36131390204272     -0.36597916641529      0.80813012386275
  H   1.33509722601055      0.60749530004990      1.30211917084874
  H   0.83541277031026     -1.08528220542489      1.43906393400368
  H   2.40563560249098     -0.67913202247985      0.75490951546986
