15
Coordinates from ORCA-job run
  C   -0.50105895299485      0.17005827792177     -0.42222894338517
  C   0.48831983406788     -0.70130317839176      0.32893007265652
  Cl  -0.21333893604150      0.13012082019838     -2.18150417379991
  H   0.13669575515857     -0.75929431987629      1.36740517105824
  H   0.42612456407538     -1.70902812034089     -0.08145711373660
  N   -0.49509351529038      1.50471137011443      0.01588066896933
  H   -1.21151201585508      2.05101992718537     -0.44489773973978
  H   -0.63515951870762      1.55042910517317      1.01797868666860
  N   -1.91300998371115     -0.49992392674896     -0.26345786662659
  O   -2.83751205905837      0.24278257422015      0.05133988931200
  O   -1.98685811346344     -1.70598075148002     -0.45401764652145
  C   1.91301167985466     -0.16529342213397      0.27662081158336
  H   1.98042048756445      0.83036136326611      0.71425646938431
  H   2.26770223015071     -0.10508480006728     -0.75290415555418
  H   2.57926854425073     -0.83357491904021      0.82605586973132
