15
Coordinates from ORCA-job run
  C   -0.46013416536926      0.33444943753485     -0.57232536824229
  C   0.88518720613810      0.36916849913730      0.13639723486907
  Cl  -0.33431637261677     -0.37532286951808     -2.18454485949193
  H   1.54967787090727      0.94274772470220     -0.51374157780208
  H   0.74268712780074      0.94696077890846      1.05570480355171
  N   -1.01899682607798      1.63013761130914     -0.67856833683744
  H   -1.88875912948831      1.62105183757022     -1.19721409933155
  H   -1.17480995654280      2.01548779577559      0.24446633228968
  N   -1.35863413441670     -0.61042478027694      0.29554175392073
  O   -1.55262329962235     -1.76920869249232     -0.03750619129010
  O   -1.74940065913040     -0.07840718947968      1.33335096049124
  C   1.47118429289403     -0.99794066694647      0.46333491342622
  H   2.48037627177248     -0.87813367162972      0.86150009823828
  H   0.87919674687832     -1.52026468090688      1.21705869435827
  H   1.52936502687362     -1.63030113368766     -0.42345435814982
