15
Coordinates from ORCA-job run
  C   -0.61172625531745      0.10649923614718     -0.46638675097338
  C   0.45372055028168     -0.67022255579607      0.30854447651372
  Cl  -0.28787338990967      0.02284239872682     -2.20247652195738
  H   0.47578967093447     -1.69503573361319     -0.07339077423277
  H   0.11046587223683     -0.71024389176321      1.34850424115688
  N   -0.83612357968730      1.47317724262104     -0.11505715941833
  H   -0.07072479836584      2.05197152280059     -0.43103223014528
  H   -0.96713490630985      1.56662039072605      0.88386315547322
  N   -1.92958312274451     -0.63312538066110     -0.16398948866921
  O   -2.46976665644497     -0.28147657077819      0.88066554959086
  O   -2.28534536941403     -1.54416928980569     -0.89491016836830
  C   1.83651435040855     -0.03750922999964      0.23855067000459
  H   2.19632091683880      0.02320154378565     -0.78929577019618
  H   1.83715434398311      0.96625211235984      0.66819029360328
  H   2.54831237351019     -0.63778179475007      0.80822047761828
