17

C	-0.367138	0.049928	-1.471158
C	0.0	0.0	0.0
F	-1.733319	0.405667	-1.638805
H	1.100454	0.0	0.0
C	0.517391	1.060531	-2.174496
H	0.24972	2.04595	-1.792809
H	1.5458	0.836239	-1.870046
H	0.39186	1.023608	-3.259041
C	-0.238153	-1.280098	-2.098052
N	-0.169174	-2.289839	-2.693189
N	-0.502391	-1.212357	0.629566
H	-1.446059	-1.076975	0.975978
H	0.098826	-1.432194	1.413549
N	-0.388459	1.277825	0.597308
H	-1.343305	1.246201	0.937301
H	0.235387	1.451928	1.375276
F	2.676726	0.0	0.0
