17

C	-0.368686	0.026597	-1.480263
C	0.0	0.0	0.0
F	-1.71515	0.38268	-1.681485
H	1.101495	0.0	0.0
C	0.541987	1.019898	-2.173654
H	0.405533	1.002013	-3.257885
H	0.292595	2.005478	-1.778213
H	1.567813	0.775249	-1.875133
C	-0.222724	-1.315707	-2.080424
N	-0.122737	-2.385454	-2.554413
N	-0.600391	-1.164466	0.685656
H	-0.217342	-1.133406	1.627796
H	-0.193468	-2.003888	0.278499
N	-0.453574	1.241371	0.594653
H	0.179745	1.479617	1.346704
H	-1.388894	1.1082	0.963508
F	2.711997	0.0	0.0
