17

C	-0.596382	0.009942	-1.40737
C	0.0	0.0	0.0
F	-0.022394	-1.018837	-2.148335
H	1.100263	0.0	0.0
C	-2.09934	-0.202267	-1.423354
H	-2.289858	-1.165777	-0.950931
H	-2.591385	0.588464	-0.855138
H	-2.472656	-0.213378	-2.449838
C	-0.271169	1.275868	-2.101159
N	-0.016104	2.285987	-2.642983
N	-0.429393	-1.215302	0.679968
H	0.384858	-1.590019	1.150626
H	-1.136506	-0.983157	1.368028
N	-0.512966	1.186252	0.733521
H	-0.192985	2.013901	0.234134
H	0.044451	1.195588	1.584087
F	2.663208	0.0	0.0
