17

C	-0.290986	0.064416	-1.494354
C	0.0	0.0	0.0
F	-1.673314	0.294755	-1.737059
H	1.095542	0.0	0.0
C	0.551396	1.149662	-2.132652
H	0.480499	1.134726	-3.225457
H	1.578995	0.968153	-1.78409
H	0.206032	2.106002	-1.738956
C	-0.012904	-1.246739	-2.119476
N	0.148791	-2.292731	-2.630609
N	-0.509849	-1.199495	0.661896
H	-1.339126	-1.55281	0.195737
H	0.205344	-1.915238	0.614052
N	-0.472118	1.241943	0.599163
H	-1.432983	1.109959	0.903693
H	0.090097	1.381588	1.433155
F	2.685773	0.0	0.0
