17

C	-0.293057	-0.034178	-1.50739
C	0.0	0.0	0.0
F	-0.067808	1.25205	-2.032201
H	1.096066	0.0	0.0
C	0.669747	-0.988963	-2.185052
H	0.414219	-2.015744	-1.921449
H	0.637924	-0.859331	-3.269357
H	1.65701	-0.746185	-1.769775
C	-1.71696	-0.33032	-1.780058
N	-2.857491	-0.553809	-1.957696
N	-0.466747	-1.265157	0.554289
H	-1.365813	-1.115759	0.999589
H	0.190181	-1.521241	1.282296
N	-0.517573	1.175023	0.683123
H	-1.385641	1.486308	0.257769
H	0.161718	1.917575	0.56286
F	2.701451	0.0	0.0
