17

C	-0.315016	0.027569	-1.487462
C	0.0	0.0	0.0
F	-1.707176	0.186779	-1.712397
H	1.095596	0.0	0.0
C	0.458279	1.139364	-2.158493
H	0.346458	1.111583	-3.245435
H	1.501821	1.004822	-1.852551
H	0.088923	2.082697	-1.757141
C	0.019357	-1.275375	-2.09901
N	0.233244	-2.317069	-2.596231
N	-0.498446	-1.192271	0.685504
H	-1.266904	-1.618176	0.179788
H	0.258006	-1.863633	0.729177
N	-0.466672	1.250519	0.589246
H	0.175765	1.456532	1.345905
H	-1.376325	1.084888	1.006313
F	2.67356	0.0	0.0
