17

C	-0.596991	0.007139	-1.401317
C	0.0	0.0	0.0
F	-0.125885	-1.093926	-2.116557
H	1.094163	0.0	0.0
C	-2.114011	-0.081116	-1.406033
H	-2.485672	-0.143789	-2.43136
H	-2.54684	0.797991	-0.924629
H	-2.390854	-0.987549	-0.865102
C	-0.171151	1.213783	-2.140651
N	0.094891	2.150513	-2.79664
N	-0.397626	-1.246821	0.672803
H	0.457369	-1.632788	1.057911
H	-1.022946	-1.049405	1.44618
N	-0.402892	1.242674	0.65308
H	0.368164	1.53597	1.24042
H	-1.228486	1.121473	1.230632
F	2.638667	0.0	0.0
