17

C	-0.340262	0.024368	-1.48814
C	0.0	0.0	0.0
F	-1.678048	0.400703	-1.721783
H	1.101491	0.0	0.0
C	0.606369	0.997146	-2.167897
H	1.617911	0.744401	-1.827233
H	0.51132	0.961101	-3.255184
H	0.355473	1.992527	-1.801489
C	-0.205527	-1.323136	-2.079304
N	-0.126255	-2.394835	-2.554488
N	-0.620825	-1.150159	0.68707
H	-0.207311	-1.151041	1.616328
H	-0.272125	-2.00113	0.252127
N	-0.442473	1.251264	0.582611
H	-1.371634	1.125886	0.967301
H	0.202971	1.498532	1.32061
F	2.71486	0.0	0.0
