19

C	0.0	0.0	0.0
C	-0.326779	-0.030809	-1.5421
Br	1.986549	0.0	0.0
H	0.377544	0.678978	-1.994936
N	-0.43548	1.19863	0.667396
H	-1.443688	1.122598	0.803306
H	-0.253977	2.007776	0.082469
C	-0.523418	-1.192848	0.77003
H	-0.105433	-2.129983	0.404151
H	-0.275878	-1.07782	1.826752
H	-1.615075	-1.211484	0.665339
N	-1.651552	0.412793	-1.917522
H	-1.809647	1.369527	-1.626445
H	-2.39331	-0.117322	-1.463102
C	-0.100664	-1.404924	-2.16412
H	-0.171227	-1.310558	-3.24954
H	0.870313	-1.829454	-1.902849
H	-0.888763	-2.091585	-1.842342
Br	-4.337479	0.0	0.0
