13

C	-0.45019	-0.093299	-1.447606
C	0.0	0.0	0.0
F	-1.833482	-0.258848	-1.511751
H	1.095311	0.0	0.0
H	0.011925	-0.957606	-1.931028
C	-0.10991	1.126096	-2.194314
N	0.124378	2.066465	-2.855303
C	-0.452976	-1.207487	0.709067
N	-0.849085	-2.138899	1.305282
N	-0.459451	1.237343	0.607532
H	0.220662	1.535731	1.29357
H	-1.360501	1.12449	1.050945
Br	3.404328	0.0	0.0
