13

C	-0.454186	0.024469	-1.448584
C	0.0	0.0	0.0
F	-1.841051	-0.120371	-1.518475
H	1.10229	0.0	0.0
H	-0.005377	-0.807202	-1.999248
C	-0.107863	1.293754	-2.103454
N	0.116575	2.275665	-2.704568
C	-0.452008	-1.263622	0.605948
N	-0.843481	-2.254651	1.10107
N	-0.460312	1.184456	0.705835
H	-1.371748	1.039814	1.12239
H	0.208693	1.411885	1.430693
Br	3.404537	0.0	0.0
