13

C	-0.521452	0.085442	-1.434923
C	0.0	0.0	0.0
F	0.03961	1.176163	-2.056987
H	1.094479	0.0	0.0
H	-1.605577	0.243603	-1.40922
C	-0.239693	-1.123249	-2.228573
N	-0.09374	-2.083582	-2.886816
C	-0.492	-1.230827	0.621838
N	-0.946331	-2.175211	1.153652
N	-0.444068	1.198742	0.7201
H	-1.070255	0.959628	1.477543
H	0.379733	1.639162	1.112535
Br	3.414498	0.0	0.0
