13

C	-0.473043	-0.009107	-1.460944
C	0.0	0.0	0.0
F	-0.021662	1.137072	-2.08618
H	1.095695	0.0	0.0
H	-1.57037	0.018389	-1.493445
C	-0.023906	-1.18743	-2.21765
N	0.286545	-2.110582	-2.872614
C	-0.528825	-1.202621	0.651521
N	-1.012726	-2.156375	1.137138
N	-0.414971	1.195281	0.716862
H	0.27395	1.915548	0.539375
H	-1.321612	1.522571	0.40515
Br	3.421287	0.0	0.0
