13

C	-0.526066	-0.001375	-1.430737
C	0.0	0.0	0.0
F	-0.077304	1.142817	-2.067096
H	1.101119	0.0	0.0
H	-1.619765	0.048496	-1.409934
C	-0.109303	-1.180896	-2.203648
N	0.153272	-2.124859	-2.850236
C	-0.508247	-1.189037	0.682193
N	-0.941642	-2.130667	1.233488
N	-0.535731	1.210826	0.649106
H	-0.023454	1.985115	0.236713
H	-0.238712	1.181644	1.620013
Br	3.452849	0.0	0.0
