13

C	-0.395784	-0.026911	-1.475455
C	0.0	0.0	0.0
F	-1.782115	-0.127115	-1.600393
H	1.096083	0.0	0.0
H	0.051177	-0.888338	-1.978046
C	0.013633	1.214433	-2.15075
N	0.307495	2.200766	-2.714597
C	-0.487889	-1.239656	0.617845
N	-0.883967	-2.241484	1.084394
N	-0.471719	1.157276	0.735963
H	0.187841	1.916204	0.61613
H	-1.390243	1.443666	0.419492
Br	3.405208	0.0	0.0
