15

C	-0.577132	-0.029491	-1.387769
C	0.0	0.0	0.0
Cl	-2.28477	0.432291	-1.477706
H	1.089232	0.0	0.0
H	-0.487125	-1.039049	-1.772682
N	0.250583	0.81326	-2.347396
O	-0.137233	1.928073	-2.670381
O	1.266988	0.247832	-2.726927
N	-0.398659	-1.206696	0.760435
O	-1.011873	-2.105655	0.174044
O	-0.014414	-1.26434	1.92345
N	-0.432274	1.224061	0.715509
O	-0.051909	2.26179	0.179352
O	-1.128923	1.154996	1.722913
F	2.423108	0.0	0.0
