15

C	-0.647116	0.025886	-1.360922
C	0.0	0.0	0.0
Cl	-0.152018	1.487283	-2.225177
H	1.086175	0.0	0.0
H	-1.73394	0.004065	-1.321366
N	-0.25365	-1.157952	-2.213489
O	0.809207	-1.714869	-1.988141
O	-1.05788	-1.438141	-3.101906
N	-0.525617	-1.138271	0.780389
O	-0.314691	-1.122827	1.989369
O	-1.113529	-2.038337	0.175082
N	-0.50459	1.213279	0.726397
O	-1.731463	1.31049	0.840228
O	0.310371	2.023628	1.145209
F	2.449657	0.0	0.0
