15

C	-0.434308	-0.086152	-1.437408
C	0.0	0.0	0.0
Cl	0.222137	-1.441387	-2.344131
H	1.098238	0.0	0.0
H	-0.080086	0.822117	-1.921717
N	-1.938014	-0.062998	-1.636307
O	-2.609537	-0.900223	-1.049537
O	-2.364422	0.809153	-2.393791
N	-0.427609	-1.07315	0.917672
O	-0.57148	-0.768066	2.099308
O	-0.47063	-2.214072	0.467649
N	-0.52185	1.31031	0.492558
O	-1.703628	1.368128	0.839376
O	0.252755	2.262772	0.449951
F	2.442312	0.0	0.0
