15

C	-0.457002	0.029376	-1.427549
C	0.0	0.0	0.0
Cl	0.368875	-1.15873	-2.414348
H	1.105128	0.0	0.0
H	-0.218806	1.017786	-1.818242
N	-1.975149	-0.088466	-1.581107
O	-2.44407	-0.700783	-2.52671
O	-2.611065	0.539115	-0.740779
N	-0.452378	-1.199206	0.726623
O	-1.248718	-1.954608	0.15922
O	0.042923	-1.398185	1.830262
N	-0.410418	1.234658	0.710223
O	-0.191987	2.279768	0.099965
O	-0.883383	1.162141	1.837487
F	2.429579	0.0	0.0
