15

C	-0.609228	0.316049	-1.350849
C	0.0	0.0	0.0
Cl	0.40001	1.44446	-2.26171
H	1.105271	0.0	0.0
H	-1.612875	0.72682	-1.295438
N	-0.729304	-0.929507	-2.192853
O	0.134422	-1.789351	-2.074082
O	-1.678154	-0.954687	-2.972948
N	-0.568526	-1.278795	0.516065
O	0.160424	-2.03357	1.144098
O	-1.770854	-1.468101	0.287156
N	-0.435362	1.022942	0.979042
O	-0.802409	2.1171	0.54623
O	-0.344496	0.729437	2.168607
F	2.441719	0.0	0.0
