15

C	-0.634454	0.134417	-1.359741
C	0.0	0.0	0.0
Cl	0.004715	1.57106	-2.169591
H	1.105234	0.0	0.0
H	-1.717124	0.207058	-1.33904
N	-0.330914	-1.052127	-2.241637
O	0.667232	-1.716426	-2.015064
O	-1.136676	-1.231351	-3.152777
N	-0.540653	-1.187343	0.702161
O	-0.194121	-1.352734	1.867694
O	-1.30415	-1.934142	0.07886
N	-0.464523	1.151679	0.845282
O	0.299759	1.567909	1.706779
O	-1.605872	1.579098	0.637681
F	2.443194	0.0	0.0
