15
Coordinates from ORCA-job run
  C   -0.50785936259553      0.15802172612611     -0.05807962980905
  C   0.93273284900104      0.63777862499445      0.10207681866832
  F   -0.76728560701367      0.18088047251966     -1.44779010292536
  H   1.26823555604677      0.49155531794586      1.12712238883679
  H   1.01343352907610      1.68265834325099     -0.19459040476785
  C   -0.76444475506868     -1.25463666069309      0.41441661902135
  H   -0.55305083322709     -1.34404157264951      1.48025215022394
  H   -0.14474195802822     -1.96046702550089     -0.13399145717002
  H   -1.81360605350182     -1.50047252997172      0.23428985702318
  N   -1.32853951448320      1.08313488447812      0.64032187156055
  H   -1.29366703873162      1.99679657754595      0.20450215153452
  H   -2.29017434464875      0.76829447377596      0.66054454943682
  N   1.85472987841053     -0.11898280515119     -0.78698196745318
  O   2.17235014374441     -1.25028376431461     -0.42082965224653
  O   2.22088751101971      0.42976393764390     -1.82226319193348
