15
Coordinates from ORCA-job run
  C   -0.58684500311675      0.17055266889357     -0.19935791520117
  C   0.81232150335149      0.45870678360150     -0.74232514897681
  F   -1.42328316223327      0.69293671922330     -1.22660694383572
  H   0.89953626217869      1.51731065481304     -0.98216209030299
  H   1.01305543956549     -0.15267727985212     -1.62050329023540
  C   -0.92567692478840     -1.29670640379118     -0.07639657690298
  H   -1.96592301888924     -1.39755646352926      0.24200813467755
  H   -0.81709161487015     -1.78687543246799     -1.04412997751659
  H   -0.27578749174789     -1.78260287820133      0.64877662067798
  N   -0.76718505312949      0.84250143198767      1.02803260729947
  H   -1.68947927207580      0.68425533769064      1.41069468494047
  H   -0.58896960821852      1.83581659411142      0.95545018917779
  N   1.84854294608651      0.15052090715602      0.27596329159572
  O   2.31980570336680      1.09611217054899      0.90257246639593
  O   2.14397929452054     -1.03329481018429      0.42898394820675
