15
Coordinates from ORCA-job run
  C   -0.55463760757168      0.22568034679891     -0.16626407477810
  C   0.88621900360787      0.61041135813588      0.18820896703055
  F   -0.69719038220801      0.54903846226778     -1.51420117107853
  H   1.03952604984062      1.66650918558291     -0.03340674472929
  H   1.09218655142286      0.38795936426494      1.23448764871241
  C   -0.86751618420920     -1.24448625720398     -0.00238029406553
  H   -0.66144700662218     -1.58387295605591      1.01490545608089
  H   -0.26846293612201     -1.84076882852377     -0.68778940639615
  H   -1.92382264147119     -1.39083755540580     -0.23057911644638
  N   -1.50062069342961      1.01467296930658      0.56325697772130
  H   -1.69654550539285      0.62934278668276      1.47573005692130
  H   -1.21994654702105      1.98326161146926      0.64542534314765
  N   1.88139688704614     -0.14132929898576     -0.62337575394741
  O   2.16216326102146     -1.27671075812538     -0.23788857683367
  O   2.32769775110878      0.40912956979161     -1.62612931133906
