15
Coordinates from ORCA-job run
  C   -0.62911123931648      0.27409621697939     -0.28685401418077
  C   0.80915686519268      0.69110387106505     -0.59604441099533
  F   -1.34321780964900      0.76538021103441     -1.39413011820696
  H   0.90270480868726      1.77193290643168     -0.49103377559490
  H   1.07927910845312      0.36410722626587     -1.59656565217431
  C   -0.82783167855186     -1.22937248209313     -0.29521399360863
  H   -0.30505223179161     -1.69759802194591      0.54042162824898
  H   -0.47428850565237     -1.66914469738352     -1.22913308431138
  H   -1.89624792262200     -1.43767480685814     -0.20102468163751
  N   -1.09514679963103      0.93987940281571      0.88021476521806
  H   -1.83680156601279      0.43163437496669      1.34109775914770
  H   -0.35053937546142      1.13533062967773      1.53451268046528
  N   1.75824000345216      0.05355905116802      0.35141879496697
  O   1.79813349245218      0.51394431741627      1.49420868979785
  O   2.41072285045114     -0.90617819954014     -0.05187458713501
