15
Coordinates from ORCA-job run
  C   -0.52112209143734      0.23529681134224     -0.23849860056233
  C   0.93733691567867      0.68795532544676     -0.24863862828911
  F   -0.91489526424460      0.03359401096705     -1.55348130559192
  H   1.21479223778057      1.12081639745558      0.71083621676812
  H   1.07085875389360      1.39717421543308     -1.06273018852396
  C   -0.75930197483219     -1.06924144314960      0.49783643458606
  H   -0.41126817658267     -1.00330831752582      1.53062156010613
  H   -1.83007031901391     -1.28198509652206      0.49357740956897
  H   -0.24221043401789     -1.89578779534175      0.00842321211657
  N   -1.28468037739966      1.37303998691515      0.22789072887710
  H   -1.18706092000042      1.47266171130796      1.23157120072608
  H   -2.26431153650677      1.21060884113878      0.02268095085730
  N   1.84844612173712     -0.46095036393265     -0.48296950725398
  O   2.33957036782588     -0.99679156920668      0.51099288117258
  O   2.00291669711961     -0.82508271432804     -1.64611236455761
