15
Coordinates from ORCA-job run
  C   -0.61699568456871      0.27536586875367     -0.31243375417125
  C   0.83497899790898      0.51723322891031     -0.72652328915268
  F   -1.33936557785132      0.62185471462460     -1.46624110941527
  H   1.03559868997194      0.01629039745339     -1.66977748642689
  H   1.01800582953093      1.58943381477931     -0.79678575044483
  C   -0.92251897468389     -1.18708184181580     -0.04989523116662
  H   -0.40546408262966     -1.53925629675344      0.84433682886162
  H   -1.99887101721117     -1.29405699746348      0.10405098468903
  H   -0.63392771010406     -1.80991330096262     -0.89824803297783
  N   -0.98578833353559      1.17271651168308      0.72956845024087
  H   -1.76988394483624      0.82797110392431      1.26635598376109
  H   -0.21025184666988      1.37447163507293      1.34555820630285
  N   1.77105847837743     -0.04343067454053      0.28108462260980
  O   2.35260754410570     -1.08905160526839      0.00242616057330
  O   1.87181763219557      0.56645344160259      1.34752341671683
