15

C	-0.37592	-0.005455	-1.480977
C	0.0	0.0	0.0
F	-1.769072	0.163802	-1.602885
H	1.096361	0.0	0.0
H	-0.144243	-0.98567	-1.908367
C	0.321547	1.090122	-2.247841
H	0.06219	1.036331	-3.306256
H	0.018494	2.067997	-1.868088
H	1.400553	0.982843	-2.124541
C	-0.51699	-1.212427	0.646246
N	-0.936304	-2.196765	1.129563
N	-0.449017	1.180037	0.731981
H	-1.327267	1.509983	0.34848
H	0.252898	1.904524	0.645791
Br	3.501924	0.0	0.0
