15

C	-0.433025	-0.045781	-1.457161
C	0.0	0.0	0.0
F	-1.837892	0.023081	-1.514319
H	1.099995	0.0	0.0
H	-0.152267	-1.014629	-1.882082
C	0.158058	1.088449	-2.255014
H	-0.166432	1.024485	-3.296857
H	-0.162654	2.037064	-1.82703
H	1.248332	1.028789	-2.204452
C	-0.485067	-1.195493	0.708881
N	-0.919734	-2.115828	1.296177
N	-0.435439	1.243743	0.634077
H	0.179934	1.432041	1.418141
H	-1.382622	1.148674	0.983424
Br	3.496665	0.0	0.0
