15

C	-0.469903	0.068595	-1.453256
C	0.0	0.0	0.0
F	-0.055875	1.285103	-1.978986
H	1.094468	0.0	0.0
H	-1.567881	0.074984	-1.487809
C	0.124716	-1.040391	-2.29334
H	-0.142866	-0.892087	-3.341893
H	-0.241709	-2.01807	-1.972965
H	1.21241	-1.016127	-2.190602
C	-0.455559	-1.271339	0.580072
N	-0.903725	-2.252631	1.047281
N	-0.464117	1.152125	0.774614
H	-1.24569	0.902266	1.366669
H	0.299748	1.464221	1.361563
Br	3.515026	0.0	0.0
