15

C	-0.47065	0.000921	-1.451616
C	0.0	0.0	0.0
F	-0.044179	-1.183902	-2.054073
H	1.094151	0.0	0.0
H	0.041582	0.829916	-1.949053
C	-1.972926	0.088254	-1.619402
H	-2.227538	0.067085	-2.681811
H	-2.45411	-0.766192	-1.134159
H	-2.352018	1.018132	-1.186978
C	-0.491922	-1.200219	0.695664
N	-0.950023	-2.111396	1.280868
N	-0.428998	1.246189	0.640327
H	-1.328128	1.127528	1.088142
H	0.247266	1.482476	1.354595
Br	3.49027	0.0	0.0
