15

C	-0.415516	0.031148	-1.461863
C	0.0	0.0	0.0
F	-1.820874	0.101176	-1.528934
H	1.095474	0.0	0.0
H	-0.130005	-0.914299	-1.933685
C	0.18147	1.205796	-2.193392
H	-0.126375	1.191691	-3.24154
H	1.270545	1.146842	-2.127133
H	-0.148602	2.131793	-1.724336
C	-0.484046	-1.237237	0.638488
N	-0.883023	-2.195455	1.189562
N	-0.450062	1.20585	0.688484
H	-1.427372	1.11871	0.938009
H	0.094858	1.322277	1.533833
Br	3.51643	0.0	0.0
