16
Coordinates from ORCA-job run
  C   1.05797633455926      0.37494549582852      0.20690282361259
  C   -0.38332050392682      0.15624238923770     -0.24389799505685
  Cl  1.32451677807649     -0.24793363555497      1.87327239869019
  H   -0.41266593986993      0.55564357793280     -1.26964704222758
  H   1.23983863312220      1.45369214527144      0.29962794582756
  N   1.98149825703496     -0.30968621783768     -0.66960461331001
  H   2.93660442676408     -0.10985128401731     -0.39766143667005
  H   1.84388404178690      0.02373560759884     -1.61754100821752
  C   -1.36356894463992      0.96888593670753      0.59536933996104
  H   -2.37104630934104      0.89497317648203      0.17891234178883
  H   -1.08828770310539      2.02719897047529      0.62474814891661
  H   -1.39463979959707      0.59778345123038      1.62177986289328
  C   -0.76651740563129     -1.31874075904707     -0.29432747064552
  H   -1.74581610655084     -1.43493145778511     -0.76591182758179
  H   -0.03388880454429     -1.89763269032966     -0.85660352435898
  H   -0.82556695413730     -1.73432470619275      0.71358205637821
