16
Coordinates from ORCA-job run
  C   1.08823656000396      0.48903328027910      0.02670089490748
  C   -0.30994362738589     -0.03330260094326      0.37493626730138
  Cl  1.61140143729920      1.65514928017590      1.30267354189276
  H   -0.24287480501119     -0.48586401876216      1.37344698533377
  H   1.03567694631731      1.07198579270166     -0.89800734468122
  N   2.13084612639942     -0.48989437435453     -0.12579211633049
  H   2.11267979243889     -1.15866204743956      0.63477806765939
  H   2.03251518580441     -0.97887527136434     -1.00547582075346
  C   -0.72377818440922     -1.10790282332844     -0.63099094834530
  H   -0.71152652425183     -0.70935195813152     -1.65147135775833
  H   -1.74096936737946     -1.44855513948126     -0.42439485297162
  H   -0.07085987962546     -1.98145163034738     -0.59685137371203
  C   -1.35020653772412      1.08350873769680      0.40559645452560
  H   -1.40612373094561      1.57893870012945     -0.56948673781726
  H   -1.11737322386901      1.83779568228298      1.15640121843156
  H   -2.33970016766140      0.67644839088655      0.62793712231778
