16
Coordinates from ORCA-job run
  C   1.08460774315607      0.47730611024151      0.25874973929923
  C   -0.34110885861322      0.19759049841946     -0.23368356142367
  Cl  1.28519244704236     -0.12326296465126      1.94227556876496
  H   -0.35706153460241      0.62495776909098     -1.24773579029580
  H   1.22284250947759      1.56027583782178      0.32091041706353
  N   2.17031469944788     -0.05341870779342     -0.53021174063545
  H   2.09150393133985     -1.05880305557498     -0.61737680201196
  H   2.14842496255308      0.35868416942095     -1.45600312277641
  C   -1.38529068694661      0.93583094557595      0.59895204125123
  H   -2.36572969008231      0.87844811667554      0.11950311035404
  H   -1.12858497871984      1.99298073339426      0.71388775960765
  H   -1.46874281720106      0.49937542720566      1.59591005899410
  C   -0.66823901279580     -1.28757332120620     -0.34327944260596
  H   -1.66887202022145     -1.41917217761750     -0.76190028719511
  H   -0.64826235028692     -1.76539407312970      0.63822106701702
  H   0.02800565645278     -1.81682530787303     -0.99821901540739
