16
Coordinates from ORCA-job run
  C   1.12494448954435      0.34020951654711      0.49853662857321
  C   -0.36688587014883     -0.01694374333033      0.54745442115968
  Cl  2.01544957804998     -0.72382350475225      1.65390487896601
  H   -0.65979915463619      0.01793809758819      1.60310982805017
  H   1.25535910713947      1.35134605221257      0.89215958370867
  N   1.78324783058263      0.28469592114647     -0.77726533337291
  H   1.59716858892272     -0.58523075308676     -1.25794258868039
  H   1.50855902184162      1.06527268465764     -1.35819053554451
  C   -0.67065532530921     -1.41140198515886      0.01019879012485
  H   -0.08978326794705     -2.17904841765966      0.52338851323444
  H   -0.46571691275376     -1.47817979827896     -1.06239173366428
  H   -1.72968600000536     -1.64203149406189      0.14804430968898
  C   -1.16634999005571      1.04309815592831     -0.20914160437737
  H   -0.94058508404492      1.01970707229617     -1.27898165210175
  H   -0.95578747606809      2.04971281107810      0.16418306750217
  H   -2.23847953511164      0.86467938487415     -0.09706657326698
