15
Coordinates from ORCA-job run
  C   -0.50648533334098      0.27682432265680     -0.49554245010854
  C   0.55793297159403     -0.37673243400568      0.41085066372572
  Cl  0.26698155544922      0.94680875455018     -1.92389535079576
  H   0.00847067985898     -0.73886250104659      1.28556437961411
  N   -1.60413120781859     -0.54075798606275     -0.88855940439571
  H   -2.02735576470655     -0.98305475662493     -0.08169386525981
  H   -1.32312181515321     -1.22980433213263     -1.57359484276168
  N   -1.10630220875871      1.39911655621177      0.36989893461450
  O   -1.69712506624375      0.96337844067077      1.35462404671552
  O   -0.97514723426104      2.56421106873277      0.04883437250604
  N   1.51205114103251      0.60909621309247      0.86201185208225
  H   2.15522570215171      0.86173820124348      0.12233035784311
  H   2.04156398945305      0.26349843646559      1.65146759899842
  C   1.11272512900333     -1.54731243719318     -0.29403212021362
  N   1.58471746174000     -2.46914754655804     -0.84926417256454
