15
Coordinates from ORCA-job run
  C   -0.61925701222257      0.14994138096957     -0.33539791040393
  C   0.87049585402057     -0.16925350667949     -0.13986974550195
  Cl  -1.06837650522017     -0.49632826227704     -2.00540070803623
  H   1.41778079823394      0.22700601115527     -1.00060002008297
  N   -1.37459571198020     -0.32187025234640      0.71955549226821
  H   -1.13497282616325     -1.28171724612289      0.93322010303351
  H   -2.36615694378138     -0.15729555113362      0.62252370405810
  N   -0.84123179521888      1.64946863369184     -0.47901165858977
  O   -1.96883135230726      2.05208211454980     -0.23053030734838
  O   0.11270182126068      2.31647044790432     -0.86170047955440
  N   0.98326492293098     -1.61622522910541      0.04322217907232
  H   0.99081329333828     -2.06876827044628     -0.86298143260970
  H   1.84706979569088     -1.84218270202290      0.51987163493467
  C   1.35749811080917      0.51199039581167      1.06361453919849
  N   1.79379755060922      1.04568203605154      2.01348460956203
