15
Coordinates from ORCA-job run
  C   -0.58129873113197      0.02395585368835     -0.48013700472668
  C   0.90409587330693     -0.25302676025365     -0.20327516979378
  Cl  -1.06487313169305     -0.65594070703330     -2.03225875303215
  H   1.48316655501071      0.17063737260422     -1.02518746329948
  N   -1.39044545366700     -0.48701693515936      0.55291093847690
  H   -2.37217936186754     -0.43278339310797      0.31398087481214
  H   -1.23419538792083      0.02260231836340      1.41640466209607
  N   -0.72821440790293      1.57180086545464     -0.65580763306402
  O   0.14026423608621      2.13944018656400     -1.30545569350886
  O   -1.71080868667112      2.08559646514220     -0.13615566488845
  N   1.11542758380707     -1.67964053199991     -0.14534255352971
  H   0.57842983256188     -2.08108632347277      0.61315053845455
  H   2.09656689035747     -1.88828620828474     -0.01461417785024
  C   1.25520688319717      0.47409730715440      1.03826028167409
  N   1.50785730652701      0.99265049034048      2.06252681817961
