15
Coordinates from ORCA-job run
  C   -0.47267134951949      0.20690389827154     -0.32104839483686
  C   0.69209672455259     -0.47045453241455      0.45232066788059
  Cl  0.22410421603471      1.23574817731190     -1.64898337197458
  H   0.22486849118247     -0.89469985525240      1.34689422059752
  N   -1.44067793054142     -0.72105651531392     -0.72429442044125
  H   -2.23756643384638     -0.26381406351279     -1.15069774628164
  H   -1.06144913787154     -1.42751357421252     -1.34212831927196
  N   -1.20970339035081      1.19151824939756      0.59085185574230
  O   -2.24759537695606      1.65540626777777      0.14123976312020
  O   -0.72547542280305      1.42915613598141      1.69245711292978
  N   1.82101896502182      0.32291901129225      0.85893160313962
  H   2.27062296436384      0.75554568480520      0.06293192596047
  H   1.52062674228443      1.03573029963127      1.50892265165133
  C   1.15188934611709     -1.58797582976329     -0.38381930126978
  N   1.48891159233180     -2.46741335399944     -1.08457824694575
