15
Coordinates from ORCA-job run
  C   -0.45327072750231      0.09615056707257     -0.50152209538933
  C   0.70647907840054     -0.45370332760134      0.36981551684034
  Cl  0.15507665041357      0.84224193463338     -1.96750157710439
  H   0.22619455149917     -0.94451848525573      1.22431397266225
  N   -1.37586097854288     -0.92189896320989     -0.81098691625662
  H   -1.81675677332986     -1.27666882636755      0.02886909247825
  H   -2.07358263942826     -0.62311665076186     -1.48043928332352
  N   -1.08000733660635      1.21054387489299      0.40230758677696
  O   -0.93912409330479      2.39351192364675      0.13677538549030
  O   -1.65390086768979      0.74670354834751      1.38702515792271
  N   1.64084950106613      0.51471293093458      0.88292716444592
  H   2.02305365679393      1.09386602285964      0.14652674417787
  H   1.22443788895645      1.09545414049447      1.59787578684770
  C   1.41053488703663     -1.48247757506434     -0.40508745448245
  N   2.00487720223782     -2.29280111462119     -1.01089908108599
