15
Coordinates from ORCA-job run
  C   -0.60395807334423      0.15925513171257     -0.36283962936900
  C   0.86763397196066     -0.20046870338447     -0.10779541201763
  Cl  -1.02309681569872     -0.53001997401783     -2.02139298859552
  H   1.45410289855317      0.14678267971908     -0.96373179054873
  N   -1.40721624042651     -0.25096162418195      0.68353828598109
  H   -1.20869250656679     -1.21287160630581      0.92979737290840
  H   -2.38918320776082     -0.05870459511208      0.54608774849624
  N   -0.76930164092543      1.65957654225507     -0.56318282058131
  O   0.21592167754138      2.27814395991077     -0.94864128471506
  O   -1.88601726879861      2.11132085812590     -0.35305883520498
  N   0.92714339590058     -1.64283058676586      0.12912159698443
  H   1.75741947379671     -1.87707819942956      0.65829260215880
  H   0.96685370111651     -2.12735631206390     -0.75943069144390
  C   1.33817876937217      0.50711369648170      1.08704089751164
  N   1.75821186527992      1.03909873305635      2.04519494843556
