15
Coordinates from ORCA-job run
  C   -0.57311422647155      0.08260111195218     -0.60950228562124
  C   0.78588671548096     -0.48748153047788     -0.18026709356080
  Cl  -0.52404456303586      0.61233233949944     -2.29746932749923
  H   0.87476777658259     -1.40407220625247     -0.77182277418194
  N   -1.56729191094418     -0.89032177074747     -0.42100407908439
  H   -2.48881604179959     -0.51252497715009     -0.60203628614935
  H   -1.49462515724710     -1.25157915254358      0.52444455280374
  N   -0.87088242553552      1.37398660557687      0.21026848488776
  O   0.05846411691888      1.90356197002354      0.81259614750451
  O   -2.03533433351560      1.74904213362592      0.19874416260473
  N   0.70744859928973     -0.85470959671569      1.22609106690942
  H   1.35053407114116     -1.60914755553354      1.42828442119239
  H   0.95056983814887     -0.05962787045935      1.80448924808072
  C   1.92662036700294      0.37096412686596     -0.53488041577072
  N   2.89981717398428      0.97697637233614     -0.78893582211559
