15
Coordinates from ORCA-job run
  C   -0.48915607416970      0.35090742079388     -0.46384702347606
  C   0.52520296127760     -0.45274663194151      0.37688659163371
  Cl  0.29983071743503      0.96733579240592     -1.90782728062469
  H   -0.02634940833079     -0.77234241693388      1.26664965505603
  N   -1.69248928773207     -0.31798387874451     -0.82874198457712
  H   -2.13096605372958     -0.73272661850547     -0.01538433064416
  H   -1.52322935225481     -1.01490840223853     -1.54216961683454
  N   -0.91453938207747      1.50936577922026      0.45484741251689
  O   -1.50986741607049      1.11712569504227      1.45511753836568
  O   -0.66339231073919      2.66027309788539      0.15453027853598
  N   1.61044383842844      0.39678554695735      0.80797147800074
  H   2.12781458215378     -0.03362412235313      1.56305433488078
  H   2.24649393005943      0.59426973291160      0.04563749900710
  C   0.90336003883930     -1.65939501402565     -0.38242476069617
  N   1.23584321691051     -2.61233598047399     -0.98429979114416
