15
Coordinates from ORCA-job run
  C   -0.48642451255034      0.19505184129820     -0.49396861914878
  C   0.64617830828249     -0.41462946435094      0.34409511358711
  Cl  0.15647963067492      1.18398457508630     -1.79480484508179
  H   0.15326846935990     -1.01915011754049      1.11263225342201
  N   -1.32319162700727     -0.81603916191826     -1.01603529780944
  H   -1.98323251809468     -0.45201323771781     -1.69156804255340
  H   -1.81315277998035     -1.28927826406119     -0.26581424765496
  N   -1.24376787522969      1.11689710887974      0.51816959193569
  O   -1.79410088138243      0.47131443132815      1.40720753891968
  O   -1.25926070470637      2.32536158082231      0.37646943051648
  N   1.38229110177487      0.63641456393867      1.01195120302929
  H   1.94829112415523      0.25370348387243      1.75787436131973
  H   1.99160454186547      1.11746323477779      0.36132762839978
  C   1.45073892375354     -1.31102493594150     -0.50374925426412
  N   2.17327879908472     -1.99805563847339     -1.12478681461728
