15
Coordinates from ORCA-job run
  C   -0.62519717091531      0.10845307498107     -0.41796840302163
  C   0.89956416838370     -0.18170866426083     -0.21980749586620
  Cl  -1.10687251236106     -0.60458246730212     -1.96747228975611
  H   1.42401536381012      0.25802922031802     -1.07294426578786
  N   -1.51847357792114     -0.31907078253941      0.58783131570257
  H   -1.55073714782600     -1.32507220004337      0.66479264452477
  H   -1.34867823996487      0.13265148601911      1.47691766621984
  N   -0.72993499517026      1.63733096103501     -0.53735168236680
  O   -0.13286067230244      2.14111250431319     -1.48035326770977
  O   -1.32564923351901      2.22508426183495      0.35611705880735
  N   1.26515584932134     -1.57238626916038     -0.11216241416127
  H   0.81928981743120     -2.01816297633277      0.67927585130121
  H   1.04118489633657     -2.07258723566664     -0.96223403469047
  C   1.31308541525037      0.52129984999340      1.00087770188030
  N   1.57610803944680      1.07160923681077      2.00448161492405
