15
Coordinates from ORCA-job run
  C   -0.57570332631596      0.14507718434134     -0.47507810022577
  C   0.79878699059021     -0.46219248457253     -0.16029894113185
  Cl  -0.64519424426551      0.63992949712119     -2.20719711654809
  H   0.81890668044319     -1.41446114476372     -0.71683718285768
  N   -1.57777881046805     -0.76856548087159     -0.08190661212606
  H   -1.69985497219110     -1.48698968731726     -0.78418770530126
  H   -2.45432986423400     -0.29086611285901      0.08937043001871
  N   -0.75229096622463      1.43277766290491      0.33576457153605
  O   -1.82007486361197      1.58021608537429      0.91794987295969
  O   0.18038036357333      2.21648405493807      0.30624632867699
  N   0.86558010933421     -0.60079854256828      1.28413725625721
  H   0.20953605493790     -1.31216879711459      1.58003675524642
  H   1.80031286951821     -0.84803016583356      1.58151628789227
  C   1.93601595811755      0.32253028451718     -0.64695520636381
  N   2.91670802079661      0.84705764670356     -1.02156063803282
