15
Coordinates from ORCA-job run
  C   -0.59826176350734      0.17700363579006     -0.36305172311139
  C   0.86194740290221     -0.22556598572578     -0.10635614128082
  Cl  -1.03444891089714     -0.49977946040061     -2.02333817357394
  H   1.45884106232921      0.10446652246007     -0.96198244013293
  N   -1.41447974096103     -0.20960423589779      0.68145634126812
  H   -2.39099717663146      0.00762352265078      0.54391549243169
  H   -1.23874507723171     -1.17325443919808      0.93628458185049
  N   -0.72077254371009      1.68134219702187     -0.56391912192131
  O   -1.82921478331396      2.16069471461706     -0.37157078600851
  O   0.28593972494705      2.27519356195301     -0.93205229738277
  N   0.87882120451753     -1.66895619756822      0.13065330345414
  H   0.89229712158552     -2.15427548307915     -0.75829161804479
  H   1.70827985243706     -1.92892845493992      0.64906281758586
  C   1.35259101023639      0.46684153823411      1.08927089162654
  N   1.78820261729775      0.98519856408258      2.04791887323961
