15
Coordinates from ORCA-job run
  C   -0.50480589325972      0.33030014155726     -0.29288694821720
  C   0.61384033286031     -0.48429810418832      0.36829302008039
  Cl  0.21901251415396      1.33957307669314     -1.60537451889644
  H   0.16770233995017     -0.91193383868282      1.26887169687993
  N   -1.58627614802848     -0.47577637710028     -0.69475411401509
  H   -2.32436773665385      0.08847803919437     -1.10020228808552
  H   -1.30132323512316     -1.19043873136586     -1.35349909450811
  N   -1.10455825254533      1.29486487583305      0.74011383447491
  O   -1.85669326862521      2.14818102263240      0.28944464112794
  O   -0.86459374963265      1.07963213913180      1.91947163710490
  N   1.71768898329739      0.36409625438331      0.75417267678995
  H   2.35434681584108      0.51711008102932     -0.01690354589597
  H   2.22340063579248     -0.04636942449978      1.52736623723317
  C   0.96910593979135     -1.59327701723776     -0.53662966968413
  N   1.27752072218167     -2.46014213737984     -1.26748356438872
