15
Coordinates from ORCA-job run
  C   -0.58174617253034      0.11130533098044     -0.59644664397953
  C   0.75025902076166     -0.53625956133614     -0.19275401308681
  Cl  -0.54147170344826      0.62258647047572     -2.29038432021108
  H   0.76892206397773     -1.46306319625253     -0.77471450576420
  N   -1.62807237623278     -0.79782610536455     -0.37453929557155
  H   -1.55398557215045     -1.15361885033916      0.57295051375822
  H   -2.52926600328572     -0.36610017703646     -0.53654579766074
  N   -0.78033120461834      1.42576935670594      0.21657042781093
  O   -1.92090797712807      1.86812259306573      0.23300368190785
  O   0.19590717015239      1.90706189178153      0.78420670651763
  N   0.68419572707071     -0.88258750928200      1.21926125371597
  H   0.98941545166187     -0.09843452981584      1.78283836286835
  H   1.28246090542399     -1.67427579926558      1.41615856782389
  C   1.93198215741375      0.24685936841837     -0.58553813799227
  N   2.93263851293188      0.78946071726453     -0.87406680013666
