15
Coordinates from ORCA-job run
  C   -0.51065125195895      0.16971805337562     -0.64576030497882
  C   0.74894474275156     -0.55184320799212     -0.14710905216839
  Cl  -0.27327008086741      0.77989149804595     -2.28992992375736
  H   0.80045436966190     -1.44194370911800     -0.78198162194883
  N   -1.60338758718549     -0.70971697391927     -0.59310867894660
  H   -2.46748263587995     -0.23492588314604     -0.82246256432141
  H   -1.64352268096345     -1.12397996178334      0.33234634770578
  N   -0.75272507388768      1.43997993931784      0.22455826483257
  O   0.17126837183420      1.84713249841728      0.92256496819535
  O   -1.87366635012684      1.92434360650027      0.14976810210566
  N   0.52051104750701     -0.97993915451446      1.22527026722036
  H   1.07053297953050     -1.80336005131659      1.43255979906518
  H   0.78822131005090     -0.24270579640276      1.86602098748805
  C   1.99070376927079      0.20676007978892     -0.36241923835010
  N   3.03506907026293      0.72258906274673     -0.51131735214143
