15
Coordinates from ORCA-job run
  C   -0.47815010138959      0.15547242176256     -0.50396928360732
  C   0.85682387795117     -0.52356472426464     -0.12144330672035
  Cl  -0.34963070499972      0.83175485537898     -2.17666532072613
  H   0.91287111256246     -1.39418648226559     -0.78924331309882
  N   -1.54205588063591     -0.74977622087785     -0.31536331012838
  H   -1.49117537045304     -1.50771440932406     -0.98494493015434
  H   -2.43518892037436     -0.27791212196833     -0.39690814668686
  N   -0.76721842618924      1.35805749811095      0.39133960244485
  O   -1.93584437350934      1.71891781844271      0.44848256360145
  O   0.18469888563479      1.87606653345068      0.96147390947101
  N   0.92295644319842     -0.99398956287342      1.24366014894353
  H   0.07500898108923     -1.50070853330327      1.46677483780305
  H   1.02243555377382     -0.21307068900621      1.87936517398164
  C   2.02636752736159      0.30542882790613     -0.42933570335252
  N   2.99810139597972      0.91622478883135     -0.67222292177080
