15
Coordinates from ORCA-job run
  C   -0.44650727902009      0.20811699283845     -0.47273485410538
  C   0.65952043570170     -0.56840866122467      0.28890149401300
  Cl  0.21886708266524      1.07598166857043     -1.84378602960919
  H   0.14086121960618     -1.11633948516636      1.08422148087171
  N   -1.47457249425172     -0.66011551717161     -0.88866522739961
  H   -1.94087335733190     -1.07467947136091     -0.09090945538232
  H   -2.14471528670462     -0.20510274224466     -1.49534876563629
  N   -0.94210360944218      1.25096395964484      0.58492282830082
  O   -0.68011602517751      2.43780338696356      0.47280689149527
  O   -1.55017227022654      0.72228260213936      1.51482091065396
  N   1.69707099378855      0.22209320662877      0.89927719102285
  H   1.35336036338441      0.74213450676394      1.69500592766192
  H   2.12855322228532      0.85178782404193      0.23503697687750
  C   1.24156946921537     -1.55253037788130     -0.63169759142406
  N   1.73925753550779     -2.33298789254174     -1.35285177734019
