15
Coordinates from ORCA-job run
  C   -0.56063724707507      0.17616463678551     -0.41787575882295
  C   0.87994621469070     -0.17410371402350     -0.01532176449035
  Cl  -0.75755947679970     -0.38159413850924     -2.16521307366184
  H   1.55419599118234      0.25573956536331     -0.76227613114684
  N   -1.47058720309213     -0.33554545293602      0.48666294143970
  H   -1.27045280891567     -1.30788696978080      0.68454571879318
  H   -2.43468112846210     -0.15659228175520      0.24517266787368
  N   -0.74649927492197      1.68395528963693     -0.51659660658139
  O   -1.89534326585643      2.09176118139841     -0.42051353837531
  O   0.25968655469702      2.35415906943576     -0.71684273988573
  N   0.95371850305815     -1.62988383022832      0.10925507556327
  H   1.09662204491009     -2.03731729255999     -0.80709317315241
  H   1.73358443702320     -1.89093444933413      0.69926629543906
  C   1.18306054817351      0.43949080832564      1.28132127146952
  N   1.47494611138807      0.91358757818164      2.31450881553841
