15
Coordinates from ORCA-job run
  C   -0.49597073762879      0.14488569909730     -0.66382424253637
  C   0.78005806845279     -0.51414600167337     -0.12204827071816
  Cl  -0.23174127941285      0.76765359688909     -2.29929444031826
  H   0.89728382734297     -1.39909110483717     -0.75537862482005
  N   -1.54492417689019     -0.78778468118002     -0.64855271370554
  H   -1.59564036828457     -1.20543790786609      0.27488168419960
  H   -2.42324534730894     -0.35580018419769     -0.90678668444546
  N   -0.83131629561982      1.40035692875883      0.19657252222394
  O   0.04459165989655      1.84959894962485      0.92985546067936
  O   -1.97076808361418      1.83011722173055      0.07956671351450
  N   0.52646415192134     -0.95585355661611      1.24158624955587
  H   0.73538399709027     -0.20744766510310      1.89126977698266
  H   1.11017509011069     -1.75084979372258      1.46720628456806
  C   1.98900110411391      0.30624067185794     -0.29324621479781
  N   3.00964838983082      0.87855782723757     -0.39180750038232
