15
Coordinates from ORCA-job run
  C   -0.53476308378034      0.19332848523095     -0.35529413085872
  C   0.65858687185789     -0.31012151086057      0.46628409530130
  Cl  0.08076166585682      0.83033194114713     -1.93049115785412
  H   0.26428092991664     -0.48941441374615      1.46897756901072
  N   -1.55340255282986     -0.77154933158343     -0.46489134935127
  H   -1.22338110627998     -1.62259977110892     -0.90388779620434
  H   -2.34306031228371     -0.40341737172511     -0.98307237939366
  N   -1.19374884601246      1.36869703901128      0.38077917082980
  O   -0.91312538946112      1.52500000390466      1.56051776202633
  O   -2.02360628120923      1.99519158774073     -0.26407126532772
  N   1.69595390960552      0.69181616645818      0.54592394573239
  H   2.30822540728640      0.65646108457346     -0.25827078276035
  H   2.24264953373727      0.56697829781074      1.38676458476527
  C   1.08569528645029     -1.60567547498922     -0.09364895161602
  N   1.44793396714587     -2.62402673186371     -0.55461931429960
