15
Coordinates from ORCA-job run
  C   -0.45928074311760      0.26925207692037     -0.29296095152688
  C   0.65263697709786     -0.55999314725398      0.40715061354014
  Cl  0.29210463171465      1.25143195210213     -1.62615965397063
  H   0.17959064391887     -0.95498964242006      1.31197268715263
  N   -1.54508753025449     -0.52917275543089     -0.67233970453310
  H   -2.30317114747351      0.02885309202977     -1.04653434299990
  H   -1.27848012013681     -1.25536189771271     -1.32525267086766
  N   -1.03615905098858      1.30361103135259      0.67758479128437
  O   -2.03307018755503      1.89576249483715      0.29018287139887
  O   -0.47840681170045      1.45168675852359      1.75992508790803
  N   1.88264854854872      0.08635975162179      0.77892004071447
  H   1.69609443245200      0.80922567848754      1.45973411253045
  H   2.34400642968385      0.48764791464171     -0.02662090640015
  C   0.94246879722774     -1.69668609602695     -0.47805777037419
  N   1.14410513058279     -2.58662721167206     -1.21654420385645
