15
Coordinates from ORCA-job run
  C   -0.64436383791945      0.13360626661321     -0.50091223813076
  C   0.74438811270966     -0.46819229216037     -0.21063664440636
  Cl  -0.75434188706404      0.44543334599067     -2.25560879130042
  H   0.83174251306704     -1.28795763830999     -0.93099038280614
  N   -1.66163864862258     -0.67425885597134      0.00579710218717
  H   -2.48902548845117     -0.75261443477249     -0.56079818076627
  H   -1.33206390814711     -1.51683293768743      0.45221485038848
  N   -0.77961214441429      1.51754113640610      0.19093860924314
  O   -0.04686571628715      1.69292889331653      1.16213076812850
  O   -1.66902923195431      2.25744099581226     -0.19167638868026
  N   0.79358407033039     -1.05308679074235      1.11518977585037
  H   1.60196439049160     -1.65666861742409      1.19720305848581
  H   0.85635633927541     -0.32029324075429      1.81092503817965
  C   1.81935453769860      0.48970197205634     -0.52543403988817
  N   2.73055089928739      1.19325219762723     -0.75834253648471
