15
Coordinates from ORCA-job run
  C   -0.57996973784133      0.21938745564909     -0.54723263647918
  C   0.70882885071062     -0.53551709980373     -0.16756610442002
  Cl  -0.50041032507340      0.60321325017030     -2.28933707943230
  H   0.77788593789385     -1.33161135939248     -0.91584759794258
  N   -1.71630065643329     -0.49383250859433     -0.16369531273204
  H   -1.51249445125911     -1.38709034884853      0.25885789085945
  H   -2.49107808102557     -0.46383726519682     -0.80484723746065
  N   -0.63580422926833      1.58350582664079      0.19179504028992
  O   -1.40769057565447      2.42594100047431     -0.23156213352319
  O   0.02146753173895      1.64644288805163      1.22866296297578
  N   0.57879812748227     -1.17252648130872      1.12842830387647
  H   0.64999316976049     -0.47683592234652      1.86064756333145
  H   1.31311421902377     -1.85822563494154      1.25161206464435
  C   1.89968207965009      0.31552938918507     -0.34207684069120
  N   2.89597814029546      0.92645681026146     -0.45783888329627
