15
Coordinates from ORCA-job run
  C   -0.53958990900303     -0.00796497571737     -0.39992847595476
  C   0.97619330298629     -0.18903853027798     -0.13657771637882
  Cl  -0.98378280724226     -0.81279577127808     -1.91271602037180
  H   1.51046810753989      0.25716085615402     -0.97761368298664
  N   -1.30588375966919     -0.52056669677335      0.66083790316998
  H   -2.29572334535177     -0.49823788075754      0.45085980733402
  H   -1.13801362588911      0.00538695230099      1.51227805961863
  N   -0.78590372635827      1.51114038785288     -0.66285755835577
  O   -1.73823063312782      2.01859807527583     -0.08350177127485
  O   -0.00298949872619      2.06959136295154     -1.42059308441254
  N   1.40060013999574     -1.55652964779895      0.03643543421232
  H   1.39981844826160     -2.03176681911710     -0.85669926302342
  H   0.75957548199353     -2.03620009029782      0.65821939636349
  C   1.28665496354005      0.58902332085551      1.07299656431226
  N   1.45780686105054      1.20219945662742      2.05986040774790
