15
Coordinates from ORCA-job run
  C   -0.54204459054254      0.19598227251775     -0.49571209267331
  C   0.58800574213590     -0.30822815506705      0.42639417177303
  Cl  0.12150221968479      0.61392333286345     -2.06780889794636
  H   0.10530353254224     -0.51485009474569      1.38680501450437
  N   -1.66291062870304     -0.66568606118222     -0.66659350560065
  H   -1.43127503263430     -1.45895766414845     -1.24988682346937
  H   -2.02116352186690     -0.96857774845746      0.23104437806368
  N   -1.08105072125092      1.45095336308228      0.21363235965613
  O   -0.98459770544447      2.54490823750698     -0.30781370941897
  O   -1.59125103618537      1.18976056333734      1.29993878999502
  N   1.57000912159665      0.72967111071765      0.63655036916202
  H   2.15615885280400      0.84952459562480     -0.18011609412317
  H   2.15707559862634      0.51460399437055      1.43154681011018
  C   1.09266313470894     -1.58459276579290     -0.11321168033529
  N   1.52357503452867     -2.58943498062703     -0.54376908969729
