15
Coordinates from ORCA-job run
  C   -0.57800149924590      0.20376909194952     -0.27142099853410
  C   0.71998779325377     -0.32774615985929      0.34956086855960
  Cl  -0.15958768265625      1.15664234386994     -1.74791585066089
  H   0.43491077999207     -0.71557245859340      1.33000064550725
  N   -1.52927384839175     -0.81416260033262     -0.47351163408516
  H   -1.17875313455617     -1.54237251433285     -1.08431356429241
  H   -2.38750627105998     -0.43266819918562     -0.85519876739294
  N   -1.24975852464922      1.16973442325218      0.71515663404615
  O   -0.87639745404186      1.13740860547213      1.87900068267012
  O   -2.17593144686380      1.82768851680906      0.26094662583413
  N   1.68301791901706      0.73368180078694      0.53011054432270
  H   2.31023136960191      0.51505003713830      1.29178949618066
  H   2.22180937232207      0.89303737938006     -0.31086454903026
  C   1.18797733336871     -1.46014462972730     -0.47107161512873
  N   1.57727529390935     -2.34334563662705     -1.14126851799611
