15
Coordinates from ORCA-job run
  C   -0.58221310517492      0.21193267998294     -0.54848209482362
  C   0.70539094056456     -0.54194918363637     -0.16361634123357
  Cl  -0.51239812309574      0.56521381160290     -2.29720891706261
  H   0.76569215033819     -1.35224181309797     -0.89735642937324
  N   -1.71906805678167     -0.48952806056894     -0.14659334979947
  H   -2.49786138076941     -0.46847610629891     -0.78308315932701
  H   -1.51844751430481     -1.37321216710496      0.29713645130086
  N   -0.62713629808095      1.58949137090308      0.16729057888867
  O   -1.39665629404691      2.42860045132122     -0.26682400153339
  O   0.03513113171688      1.66651268356870      1.20002431315303
  N   0.58037872991772     -1.15506560696190      1.14477407378868
  H   1.31304208552748     -1.84118041815474      1.27586183405554
  H   0.65895981110413     -0.44640131721271      1.86369767794393
  C   1.89912077336308      0.30022368515277     -0.35901700051303
  N   2.89706514972236      0.90607999050487     -0.48660363546479
