15
Coordinates from ORCA-job run
  C   -0.59255834337894      0.16099643235354     -0.44767823016997
  C   0.79325394645734     -0.45436526348718     -0.20667043627728
  Cl  -0.72777656480453      0.71727719856580     -2.15676123938795
  H   0.79358057239814     -1.38583686910920     -0.79771894940171
  N   -1.57882421418015     -0.76761927120759     -0.04977379752343
  H   -2.44738469318813     -0.29760687049584      0.17496099289692
  H   -1.72944505974837     -1.45974254720868     -0.77254536882019
  N   -0.73815681366051      1.41880306705308      0.41561488263123
  O   0.19079608790603      2.20634467105142      0.37482133438073
  O   -1.78047379670604      1.54087332786099      1.04765278888134
  N   0.91370738969246     -0.64447951069600      1.22851642791072
  H   1.85661217905584     -0.91076276370535      1.48040717766329
  H   0.26296975539417     -1.36158610584336      1.52272253208210
  C   1.91073611912506      0.34983491545510     -0.70713363508501
  N   2.87396343563765      0.88686958941327     -1.10841447978079
