15
Coordinates from ORCA-job run
  C   -0.58371710600590      0.14248297214890     -0.46694488379316
  C   0.80139456356090     -0.45205874478574     -0.17503136604489
  Cl  -0.68123480975604      0.65033650047772     -2.19386979188460
  H   0.82480304330208     -1.39917839908554     -0.74014444796764
  N   -1.57036922399869     -0.78555485059056     -0.06820414639226
  H   -2.44983897895689     -0.31902700922132      0.11822026600126
  H   -1.69389307224713     -1.49939975996162     -0.77487744925070
  N   -0.76309444308829      1.42131088821617      0.35683216867557
  O   0.15925031625198      2.21683510849546      0.31784187848161
  O   -1.82304631151910      1.55122071738378      0.95726638778337
  N   0.88822453415431     -0.60149849236312      1.26712915810103
  H   1.82914660476496     -0.84103284348026      1.55082603584456
  H   0.24316923320936     -1.32142431218851      1.56638518204653
  C   1.92375532855293      0.34941423510893     -0.66884945720340
  N   2.89545032177550      0.88757398984572     -1.04757953439727
