15
Coordinates from ORCA-job run
  C   -0.52089206588235      0.19296342581930     -0.63181951050943
  C   0.74953183088964     -0.54122879168548     -0.18114057195655
  Cl  -0.30799093382168      0.87060608765423     -2.25324346614732
  H   0.79672282183938     -1.40279912050533     -0.85454807408431
  N   -1.60786531814201     -0.69406310293994     -0.60060918143482
  H   -2.47797634437964     -0.21651687068040     -0.79890836704282
  H   -1.63220366764154     -1.14846845571532      0.30628461879361
  N   -0.75792177991387      1.42542680739800      0.29214432152001
  O   0.17132094161816      1.80621603105272      0.99797933842000
  O   -1.88097505177117      1.90853513061857      0.24785055788686
  N   0.54302472099461     -1.02878008227258      1.17467476774709
  H   0.81607017218004     -0.31781507027473      1.84241176673470
  H   1.10158468602343     -1.85616752126463      1.33887881483898
  C   1.98422880315243      0.23349178147463     -0.38012389934038
  N   3.02334118485458      0.76659975132097     -0.50283111542562
