15
Coordinates from ORCA-job run
  C   -0.47200578715318      0.12639126025702     -0.40155323332389
  C   0.77643480898497     -0.39532875821910      0.35312191722824
  Cl  0.01090516333559      1.07368897242382     -1.81381019167652
  H   0.40123365870326     -0.86823006327117      1.26849647176154
  N   -1.31399805483991     -0.92725591992603     -0.80077067021429
  H   -1.57435485918051     -1.52301489013698     -0.02349008106091
  H   -2.13490861490342     -0.59153871334927     -1.28928391922101
  N   -1.24673072035783      1.11866079015757      0.52537688098477
  O   -2.26036175623808      1.60682448901897      0.04631738534875
  O   -0.84751917464357      1.26768156406014      1.67881866169975
  N   1.78674004320475      0.55728441637419      0.73731321517979
  H   2.16406705974133      1.03511382973962     -0.07043938782356
  H   1.40507709284272      1.22691502144665      1.38998297029413
  C   1.38839656683046     -1.44219572489265     -0.47689108676514
  N   1.91802457367344     -2.26599627368277     -1.12318893241164
