15
Coordinates from ORCA-job run
  C   -0.59343714575934      0.17096841409259     -0.37274961310611
  C   0.87376073976056     -0.18412487826369     -0.08878525401343
  Cl  -0.94894427448711     -0.43452557082266     -2.07910588288608
  H   1.48282261700941      0.21421330494676     -0.90588715595177
  N   -1.42458947538393     -0.30297107205636      0.62291341159714
  H   -2.40456161291497     -0.11875092677121      0.46320326750641
  H   -1.21653790549261     -1.27083348519826      0.83359465829482
  N   -0.77405150020104      1.67758601847273     -0.50061859469280
  O   0.21713077037554      2.33054781140928     -0.80522358147521
  O   -1.90717395363921      2.10036041542136     -0.31999150179397
  N   0.94480702248087     -1.63618217780739      0.07464913653673
  H   1.00611398461801     -2.07312319138774     -0.83719711319917
  H   1.76869751714818     -1.88859528619326      0.60555656248145
  C   1.29736259099724      0.46450238949730      1.15608829164877
  N   1.68060062548839      0.94992823466055      2.15355336905320
