14
Coordinates from ORCA-job run
  C   0.87877776674067      0.38362914433419     -0.72101868819954
  C   -0.13597485907915      0.05767962124984      0.37495197359804
  F   0.76715937350415      1.70987847516888     -1.11029262021443
  H   0.15971509242789      0.62508394108974      1.26364023349473
  H   0.68294478212480     -0.24067770800669     -1.59925653871210
  C   2.25119472089574      0.14187854444447     -0.25409301508726
  N   3.35003281078208     -0.01228317950893      0.12681520790546
  N   0.02366718134267     -1.36486951090289      0.65508117936301
  H   -0.09017554325563     -1.56339370382612      1.63855901481426
  H   -0.65724684770478     -1.91007656347668      0.14136297977658
  C   -1.53945091159814      0.47150833490311     -0.04852770050775
  H   -1.59648595480215      1.53904829124625     -0.26474091298092
  H   -1.84006074742138     -0.07474663449288     -0.94896493595102
  H   -2.25209686395676      0.23734094777770      0.74548382270094
