14
Coordinates from ORCA-job run
  C   1.14807248538022     -0.03584308762036     -0.16178515204017
  C   -0.22682818544639      0.18837522141326      0.48444553175312
  F   1.18648139686855     -1.30736413833866     -0.71929911711085
  H   -0.20857506972177      1.19434068893266      0.92042438838031
  H   1.93333736431276      0.00336407017597      0.60011132958980
  C   1.44364755445208      0.95433687224079     -1.20626028187836
  N   1.65399800700717      1.77765823022183     -2.01583041061246
  N   -0.48931232753606     -0.75870629365989      1.55745204772923
  H   -0.42483345271202     -1.70412247143889      1.19746911316766
  H   0.18969760357321     -0.66285116470946      2.30362178579165
  C   -1.33969937490739      0.10767228481383     -0.55067419227469
  H   -2.29729800539597      0.25746254307885     -0.05264682032258
  H   -1.22214642430642      0.86215451307060     -1.33062147812897
  H   -1.34754157156797     -0.87647726818052     -1.02440674404369
