14
Coordinates from ORCA-job run
  C   0.91019512903888      0.45869789568477     -0.63291643981931
  C   -0.15551945173887      0.01842687564101      0.37093570173212
  F   0.80347854926546      1.81625938464206     -0.89465864508744
  H   0.08902331542919      0.49358674753749      1.32675905133849
  H   0.76691746244213     -0.07663741014569     -1.57746539286635
  C   2.25933951938385      0.18090674577521     -0.12068936886880
  N   3.33851227322421     -0.00275124440134      0.30119039702738
  N   0.00466745330309     -1.42457394436914      0.51292018279274
  H   -0.15567892673658     -1.72282320807519      1.46431586798739
  H   -0.64505966750576     -1.91793101904879     -0.08655370621708
  C   -1.54004377125186      0.46576879816600     -0.07948488484456
  H   -1.59717085631559      1.54936256909325     -0.19004309983026
  H   -2.28887656681044      0.14917478362600      0.64992316943794
  H   -1.78978446172772      0.01153302587438     -1.04423283278226
