14
Coordinates from ORCA-job run
  C   1.03829921387605      0.77779513343492     -0.14138171906363
  C   -0.20118434488154      0.21660089135954      0.55282083247087
  F   2.02550044460656      1.05215217017010      0.77952016161900
  H   -0.41603813749505      0.92202253278490      1.36293263385183
  H   0.79908656469665      1.71419065473410     -0.65608184809183
  C   1.54817811118760     -0.18814565214604     -1.12899080187174
  N   1.89362144524271     -0.98047992434291     -1.92266314084978
  N   0.14605513740839     -1.05864323889772      1.16246481724559
  H   0.08433482044636     -1.80606291119690      0.47998533465608
  H   -0.49091784510174     -1.27480888919142      1.91772391772139
  C   -1.37946747743051      0.17228105737907     -0.41909180350613
  H   -1.61034626113770      1.15714193378054     -0.83530828364504
  H   -2.26928180659639     -0.19338055019733      0.09719984511516
  H   -1.16883986482139     -0.50966320767085     -1.24812994565176
