14
Coordinates from ORCA-job run
  C   0.88846581320829      0.55729559050556     -0.56475370624254
  C   -0.20960798870362      0.01799015678881      0.34895180615201
  F   0.85425931008792      1.94195129597293     -0.58743897569327
  H   -0.05722073622296      0.47770986559923      1.33746211739761
  H   0.72782308741855      0.18824118588320     -1.58135785143531
  C   2.21311469564790      0.12432117436647     -0.09347186054464
  N   3.24601940485219     -0.24456718723340      0.32422977923535
  N   -0.07481334107403     -1.43427172734683      0.34288589096501
  H   -0.93510299875213     -1.86541403443554      0.65623100135980
  H   0.66459851885765     -1.73163212226362      0.96872445121634
  C   -1.57224573366005      0.42085100340863     -0.18811143619201
  H   -1.75081719751453     -0.06820766474057     -1.14935523860691
  H   -1.63673463799878      1.50110875542827     -0.31832371023869
  H   -2.35973819614641      0.11462370806686      0.50532773262725
