14
Coordinates from ORCA-job run
  C   1.20436517340745      0.09532001739850     -0.27695246785546
  C   -0.09001646938638      0.07626392805347      0.52693746270749
  F   1.26008128553793     -1.04242071417767     -1.07442985116820
  H   -0.08179011592734      0.98315331696724      1.14314214074225
  H   2.05618409036014      0.05582161811084      0.40592323003599
  C   1.30578688744862      1.28174769627232     -1.13843784691339
  N   1.38906089381040      2.24667794909822     -1.80087529072401
  N   0.00684805722073     -1.06669405780477      1.43019336814325
  H   -0.06759649854213     -1.92291745541755      0.89246447234760
  H   -0.76570485977212     -1.05208884802588      2.08478959861807
  C   -1.31852545060674      0.08866085268213     -0.38116512729842
  H   -1.36164014169451      0.98773594957303     -1.00115991732738
  H   -1.31111664034067     -0.78364542593302     -1.03816844047411
  H   -2.22593621151538      0.05238517320313      0.22573866916630
