14
Coordinates from ORCA-job run
  C   0.98541980136569      0.72973317734279     -0.06636703246621
  C   -0.32176677126495      0.21635978138521      0.54712955415774
  F   1.94713376856160      0.81247625418836      0.93254230968507
  H   -0.57944750765600      0.94760301536316      1.32255001650135
  H   0.86442001398002      1.73288205762932     -0.48729349249946
  C   1.46960043829636     -0.18685177541903     -1.10901481456574
  N   1.80248867689634     -0.94820408291574     -1.93792240120212
  N   -0.18857793708846     -1.07534562522316      1.19326716322870
  H   -0.00186464222999     -1.79908029173284      0.50785775589803
  H   0.57692606635159     -1.06279526086933      1.85613268432822
  C   -1.42634803713082      0.17234451396709     -0.49613683264665
  H   -1.19649280574325     -0.55794300395771     -1.27738308404537
  H   -2.35856624010201     -0.12685619956249     -0.01631230408350
  H   -1.57292482423611      1.14567743980437     -0.97104952229005
