14
Coordinates from ORCA-job run
  C   0.91006695522021      0.45918004200303     -0.63318287640896
  C   -0.14996803104849      0.01176036187654      0.37341480936643
  F   0.82767606006466      1.82591710347424     -0.85378229890402
  H   0.11616298082791      0.45688247563392      1.33787780940851
  H   0.74190671622519     -0.04491259053337     -1.59068539130665
  C   2.26034275952996      0.13890973516317     -0.14937321847015
  N   3.34134372963493     -0.07942288205721      0.25064897295211
  N   -0.01557652261586     -1.43734529369849      0.47482743845952
  H   -0.68612945208428     -1.90214534411836     -0.12440284577217
  H   -0.16393267942423     -1.75723327558753      1.42106091252484
  C   -1.53172668943046      0.49633478550171     -0.04605714572207
  H   -1.56953459686560      1.58321746886826     -0.12879684955767
  H   -2.27664857007959      0.17577104141899      0.68565038875666
  H   -1.80298265995436      0.07108637205511     -1.01819970532639
