14
Coordinates from ORCA-job run
  C   0.99991444582158      0.74322515635583     -0.12694545629225
  C   -0.25420436705170      0.16800228788178      0.51124590563352
  F   2.00163519155099      0.81633889836330      0.83496030011469
  H   -0.52322784987458      0.87830275941014      1.31098027880983
  H   0.81807166852782      1.76241160442708     -0.48187698922787
  C   1.47533799898769     -0.08242058770940     -1.24643592508298
  N   1.82078207667843     -0.71477940470890     -2.17216293829723
  N   0.06822943967225     -1.16354455211744      0.99835763098247
  H   -0.75586043020032     -1.59990305081266      1.39268038134766
  H   0.77049498706946     -1.10767295967561      1.72576707579098
  C   -1.38711933775663      0.09400113587167     -0.49984198190151
  H   -1.59307347939877      1.07130838625653     -0.94369357693937
  H   -1.13867404814159     -0.61533374390047     -1.29146879855895
  H   -2.30330629588463     -0.24693592964184     -0.01156590637899
