14
Coordinates from ORCA-job run
  C   1.02286426811556      0.78079298161442     -0.18983851546725
  C   -0.18503094129954      0.22011364466593      0.55819301924543
  F   2.03968897845540      1.07870366980130      0.69071894252515
  H   -0.37564282589896      0.93550007340706      1.36563193525592
  H   0.75689886014878      1.70658206173052     -0.71087687798767
  C   1.50805221803902     -0.19269523214060     -1.18230980527777
  N   1.86060206243252     -0.95808383751763     -1.99894710237796
  N   0.19675828752067     -1.04356029003490      1.17145935820384
  H   0.10758254107787     -1.80233333952625      0.50479032074509
  H   -0.40262277904252     -1.25080412673454      1.95924559090564
  C   -1.39829961685083      0.15163918500874     -0.36809999717324
  H   -1.65486465054752      1.12914701008437     -0.78691202101978
  H   -2.26419959887498     -0.21692011438016      0.18571359868444
  H   -1.21178680327546     -0.53808168597828     -1.19676844626183
