14
Coordinates from ORCA-job run
  C   1.19739863172708      0.16033408535555     -0.23824301054356
  C   -0.18634644423998      0.12038836747513      0.41529473206794
  F   1.47658598904819     -1.03631240102999     -0.86537535681629
  H   -0.42387187337286      1.15881431078642      0.69781336725665
  H   1.96835944359001      0.31800711298073      0.52266734474175
  C   1.27424010865436      1.24453276486804     -1.23237436491193
  N   1.30540122810772      2.12359788703522     -2.00909975081813
  N   -0.10975530065294     -0.78282210810048      1.55787514524383
  H   -1.03063311876072     -1.13030720910643      1.79199125409232
  H   0.25340192786012     -0.30365284189407      2.37274870700278
  C   -1.23216447538885     -0.37363203805896     -0.57208962934630
  H   -2.22607359663356     -0.32108164500574     -0.12119091979470
  H   -1.02262940407403     -1.40932940874474     -0.84112231712281
  H   -1.24291311586453      0.23246312343932     -1.47989520105156
