14
Coordinates from ORCA-job run
  C   1.01825593199827      0.79300482047957     -0.19355107169358
  C   -0.19530124564389      0.23447797854715      0.54713062862619
  F   2.01625061366241      1.12563015265298      0.69612271980616
  H   -0.41005448755569      0.96825990348319      1.33176527359080
  H   0.74846289258645      1.70252478862145     -0.74035534481048
  C   1.53095100527040     -0.20098100105716     -1.15136203073978
  N   1.87932739426386     -1.01700378005727     -1.91930515417368
  N   0.19135906733340     -1.00680098426872      1.20156547745508
  H   0.13278190873331     -1.78286541509465      0.55159904027256
  H   -0.42641477893337     -1.20475106230452      1.97749744025109
  C   -1.39061754347807      0.12491290672187     -0.39844802501076
  H   -1.18125130487551     -0.58725920168095     -1.20220324566885
  H   -2.26250418433096     -0.23663377999890      0.15058361748154
  H   -1.65024526903063      1.08648467395597     -0.85103932538630
