16

C	0.0	0.0	0.0
C	-0.227765	-0.048065	-1.613986
Cl	1.846864	0.0	0.0
H	0.534077	-0.745583	-1.9817
N	-0.490676	1.062968	0.763029
H	-1.543423	1.022527	0.682941
H	-0.088822	1.962101	0.454956
C	-0.489257	-1.327782	0.53465
H	-0.131457	-1.458619	1.556948
H	-0.140424	-2.15221	-0.091564
H	-1.591334	-1.251029	0.50834
C	0.114825	1.251684	-2.170447
N	0.407647	2.322755	-2.565526
C	-1.487136	-0.545664	-2.220507
N	-2.356071	-0.939753	-2.911948
H	-2.997604	0.0	0.0
