16

C	0.0	0.0	0.0
C	-0.621273	0.069106	-1.399346
Cl	1.779807	0.0	0.0
H	-1.759765	0.057727	-1.076693
N	-0.485348	1.17632	0.67646
H	-0.194603	1.131881	1.64835
H	-1.515271	1.063163	0.651472
C	-0.415699	-1.31514	0.659245
H	-0.056542	-1.321739	1.691623
H	-1.510461	-1.343094	0.650368
H	0.001099	-2.180235	0.138952
C	-0.321094	-1.086147	-2.228651
N	-0.107761	-2.031814	-2.896465
C	-0.285673	1.296784	-2.103505
N	-0.022958	2.26297	-2.720501
H	-2.929957	0.0	0.0
