17
Coordinates from ORCA-job run
  C   -0.87805314261088      0.38160651275806     -0.10201858009716
  C   0.64311335511569      0.55364524593254     -0.10181884736018
  Cl  -1.70738675847861      1.93277706225087     -0.26172338128107
  H   0.89129213189453      1.11431784324816     -1.00640825186532
  N   -1.33543958890632     -0.28417964422812      1.05976780542052
  H   -2.33930838305757     -0.19737562554703      1.15558439939539
  H   -1.10835696901091     -1.26988916213501      1.00823436912394
  N   -1.21953536866048     -0.40741040854041     -1.40820614729416
  O   -1.78645040749121     -1.48752101807997     -1.26935717323791
  O   -0.84802005689157      0.08268690194532     -2.46528437884924
  C   1.34324791361325     -0.80876247247650     -0.14663743313428
  H   2.42261856162372     -0.64607564517066     -0.19073428412124
  H   1.06884552911938     -1.40816541864377     -1.01848637407374
  H   1.14009498525143     -1.38360602001721      0.76121762941552
  N   0.98507313498364      1.37416984131271      1.04538287813129
  H   1.97714033143012      1.57377769245882      1.04246308453519
  H   0.75112473207577      0.88000431493220      1.89802468529245
