17
Coordinates from ORCA-job run
  C   -0.74230765730023     -0.05056161399087     -0.44768387477415
  C   0.57446315084773      0.08440891199327      0.33233014407217
  Cl  -0.52344236094912     -0.85346846417669     -1.99362081729930
  H   0.32983054942380      0.74117985231244      1.17723319715661
  N   -1.35240712782484      1.21663662666925     -0.64809889778052
  H   -1.59080625784651      1.62794782515791      0.24688658532724
  H   -2.17958626956987      1.14617798196886     -1.22807395356201
  N   -1.65223697576266     -0.95733746568295      0.44164937914522
  O   -2.15085982990767     -1.98150402533817      0.00977149817343
  O   -1.81860408959492     -0.49045364980278      1.56999353751108
  C   1.64555271969859      0.75422287005621     -0.51216751936035
  H   1.25281447616589      1.64252770973888     -1.00611197290388
  H   2.01348715029105      0.06540605107951     -1.27478153417735
  H   2.48282922996670      1.04501946808091      0.12708480504589
  N   0.98604851998330     -1.23527430300262      0.78206370064738
  H   0.74428794277676     -1.38670328115423      1.75155027931545
  H   1.98093682960199     -1.36722449390892      0.66997544346310
