17
Coordinates from ORCA-job run
  C   -0.87231941260493      0.18031054464891     -0.16144348290201
  C   0.63068451266388      0.46178798962113     -0.08430646134045
  Cl  -1.73342282598448      1.81054183883965     -0.35567603075548
  H   0.88729655271892      1.08651324259474     -0.94517857679417
  N   -1.30381843345848     -0.57890792108983      0.91444296289005
  H   -2.30168816004193     -0.73213828553930      0.93128355309633
  H   -0.94245769897754     -0.17652913762331      1.77109070472680
  N   -1.24662645233472     -0.52804784821324     -1.45737668767476
  O   -2.22966047274681     -1.25731707167258     -1.41861259692004
  O   -0.56105555275501     -0.28425737797010     -2.44344659389320
  C   1.43575549718797     -0.82950752171893     -0.12890166579826
  H   1.24236801220775     -1.39106628169722     -1.04214793695795
  H   1.19907274794141     -1.45439982923707      0.73247300756087
  H   2.50254032693848     -0.58900621943133     -0.11157795558548
  N   0.85124363691981      1.12212164976085      1.20376402099159
  H   1.82935039150884      1.05549407372112      1.45529805527321
  H   0.61273733081684      2.10440815500653      1.13931568408296
