17
Coordinates from ORCA-job run
  C   -0.75507206185680     -0.08189209880092     -0.40243796637495
  C   0.56143818454348      0.07518063354021      0.36380757006761
  Cl  -0.56497608040170     -1.11724369094548     -1.81944870058458
  H   0.31184915788723      0.73777566462093      1.20037731162076
  N   -1.28083086112556      1.17415249924976     -0.80282860994979
  H   -1.51852275949585      1.71320780267862      0.02215362737085
  H   -2.10431978419236      1.06046114968769     -1.38176502611388
  N   -1.71953940791166     -0.80111998046006      0.59554408850809
  O   -2.09985226014153     -1.94059617191934      0.39899528050525
  O   -2.02228951301366     -0.08393584201458      1.54700360637861
  C   1.64038858455044      0.72944542515988     -0.49146559757731
  H   1.28844241964397      1.66079094149342     -0.93638589326388
  H   2.51270625294294      0.94135734533010      0.13204180227378
  H   1.95257342740406      0.05858233581116     -1.29447983461618
  N   0.90307842592344     -1.21498088361453      0.94145305559053
  H   1.31839026221581     -1.81590400943510      0.23875038784128
  H   1.57653601302776     -1.09528112038177      1.68668489832381
