17
Coordinates from ORCA-job run
  C   -0.78561223744716     -0.04971765087291     -0.46605739398482
  C   0.50521632937398     -0.00702888202457      0.37086017728928
  Cl  -0.46023384294664     -0.44832949336213     -2.14407760863780
  H   0.18574942606705      0.40231923044678      1.33991714518072
  N   -1.60745340031666      1.12064334660387     -0.39987242558412
  H   -1.42072732660123      1.75491260718602     -1.16145586319574
  H   -1.51326733826716      1.58539957874512      0.49371458621554
  N   -1.64705210019045     -1.17339300326198      0.15764738787113
  O   -1.83052248690172     -1.00835382370441      1.36334418594424
  O   -2.09453715370562     -2.07783327155668     -0.52284693895555
  C   1.53478168298533      0.92829498658156     -0.24085197323400
  H   1.09498196623687      1.88980879327669     -0.50999790928329
  H   2.33448427990443      1.11384599498174      0.48044252739759
  H   1.96864487836641      0.48104734584849     -1.13616207551821
  N   1.03954723757937     -1.35270547106052      0.49032874785587
  H   0.64967674292476     -1.82432127629771      1.29633624048130
  H   2.04532334293844     -1.33458901152937      0.58973119015787
