17

C	-0.533324	-0.000411	-1.433543
C	0.0	0.0	0.0
Cl	0.174133	1.332733	-2.369497
H	1.092308	0.0	0.0
N	-0.017867	-1.285423	-2.16703
O	1.066386	-1.735646	-1.835134
O	-0.757463	-1.725128	-3.048395
N	-1.944256	0.07841	-1.495943
H	-2.241243	-0.031358	-2.458374
H	-2.33967	-0.68259	-0.952268
C	-0.480656	-1.22755	0.635164
N	-0.944093	-2.194284	1.116903
C	-0.471856	1.224067	0.788411
H	-0.066835	1.161157	1.799671
H	-1.559919	1.286291	0.829292
H	-0.07509	2.126247	0.323434
Br	3.492968	0.0	0.0
