17

C	-0.375252	-0.042674	-1.49213
C	0.0	0.0	0.0
Cl	-2.13014	-0.249325	-1.714978
H	1.096595	0.0	0.0
N	0.018689	1.324401	-2.084164
O	-0.784948	2.247245	-2.002543
O	1.153331	1.387643	-2.537241
N	0.31275	-1.035726	-2.251376
H	1.307398	-0.963936	-2.032654
H	-0.020626	-1.948749	-1.963609
C	-0.434751	-1.259411	0.595293
N	-0.80345	-2.266167	1.076349
C	-0.500019	1.198241	0.801131
H	-1.588017	1.283367	0.769714
H	-0.174428	1.084649	1.836835
H	-0.05711	2.11574	0.41407
Br	3.415104	0.0	0.0
