17

C	-0.428526	0.002862	-1.465779
C	0.0	0.0	0.0
Cl	-2.260932	0.44352	-1.567548
H	1.094586	0.0	0.0
N	0.205862	1.143207	-2.268304
O	0.109588	1.041046	-3.487836
O	0.743124	2.055306	-1.658503
N	-0.103619	-1.164915	-2.130238
H	-0.34537	-1.147311	-3.109623
H	-0.38945	-2.006623	-1.655445
C	-0.445511	-1.268937	0.570725
N	-0.833774	-2.284365	1.017166
C	-0.490437	1.151348	0.88135
H	-1.564807	1.096228	1.058928
H	-0.239781	2.105158	0.425083
H	0.0372	1.083506	1.834565
Br	3.437158	0.0	0.0
