17

C	-0.310676	-0.050261	-1.503124
C	0.0	0.0	0.0
Cl	-2.034436	-0.396923	-1.86026
H	1.097009	0.0	0.0
N	-0.084154	1.406714	-2.070311
O	0.984885	1.583054	-2.643513
O	-0.945834	2.255205	-1.87172
N	0.51996	-0.996353	-2.106425
H	0.472328	-0.97487	-3.117284
H	1.482933	-0.889237	-1.780035
C	-0.455373	-1.246771	0.606222
N	-0.832882	-2.211013	1.160977
C	-0.517671	1.204629	0.779214
H	-0.00669	2.110893	0.455292
H	-1.594846	1.334219	0.657612
H	-0.289094	1.052908	1.835982
Br	3.40865	0.0	0.0
