17

C	-0.267321	0.009683	-1.503273
C	0.0	0.0	0.0
Cl	-0.047445	-1.675742	-2.189848
H	1.098245	0.0	0.0
N	-1.729383	0.306648	-1.858457
O	-1.943294	0.80396	-2.959142
O	-2.584037	-0.012685	-1.037124
N	0.534883	0.987192	-2.10438
H	1.50697	0.866335	-1.804325
H	0.454006	0.976157	-3.112508
C	-0.504223	-1.169915	0.700526
N	-0.872429	-2.093321	1.325342
C	-0.440803	1.296177	0.688796
H	-0.076684	2.149449	0.116652
H	0.013525	1.331134	1.680673
H	-1.525442	1.352119	0.790605
Br	3.441385	0.0	0.0
