17

C	-0.466216	0.035392	-1.453154
C	0.0	0.0	0.0
Cl	-2.328604	0.28547	-1.480214
H	1.093262	0.0	0.0
N	0.022504	1.265366	-2.22872
O	0.550414	2.178866	-1.613497
O	-0.166212	1.221429	-3.440282
N	-0.045279	-1.063471	-2.176998
H	-0.089817	-1.941999	-1.685935
H	-0.398252	-1.096001	-3.120847
C	-0.4279	-1.290253	0.54145
N	-0.7896	-2.321125	0.974444
C	-0.483975	1.113897	0.933117
H	0.002651	0.96519	1.898991
H	-0.178912	2.082519	0.54773
H	-1.565782	1.088161	1.068551
Br	3.414775	0.0	0.0
