17

C	-0.439196	-0.015924	-1.4663
C	0.0	0.0	0.0
Cl	0.253064	-1.395766	-2.309202
H	1.095382	0.0	0.0
N	-2.012189	-0.219309	-1.475738
O	-2.48432	-1.345897	-1.444936
O	-2.661072	0.82842	-1.447803
N	-0.089233	1.176756	-2.12891
H	-0.631576	1.951058	-1.773019
H	-0.223012	1.091379	-3.127497
C	-0.466597	-1.189887	0.705662
N	-0.840016	-2.117817	1.322041
C	-0.422171	1.266835	0.752388
H	-0.058287	1.187418	1.777646
H	-1.504204	1.413245	0.768963
H	0.071688	2.131133	0.306252
Br	3.436714	0.0	0.0
