17

C	-0.290146	-0.208351	-1.502191
C	0.0	0.0	0.0
Cl	-0.155813	-1.930325	-1.915924
H	1.10631	0.0	0.0
N	-1.741871	0.22437	-1.747284
O	-1.912526	1.321356	-2.275311
O	-2.624181	-0.494851	-1.296082
N	0.557411	0.533659	-2.371445
H	1.521652	0.37659	-2.071215
H	0.343461	1.520407	-2.303592
C	-0.537213	-1.032782	0.872354
N	-0.978722	-1.812644	1.632353
C	-0.438284	1.383313	0.487801
H	-0.030122	1.542268	1.486797
H	-0.031079	2.160939	-0.159722
H	-1.526251	1.47982	0.531669
Br	3.418967	0.0	0.0
