17

C	-0.538784	0.008655	-1.427668
C	0.0	0.0	0.0
Cl	0.20308	1.321244	-2.368967
H	1.107511	0.0	0.0
N	-0.081241	-1.28843	-2.1712
O	-0.694337	-1.535603	-3.209123
O	0.821129	-1.952814	-1.685628
N	-1.949243	0.131343	-1.482122
H	-2.258862	0.002311	-2.437386
H	-2.370194	-0.585275	-0.897909
C	-0.524411	-1.187107	0.67089
N	-1.052401	-2.094106	1.20118
C	-0.425344	1.25611	0.77136
H	-0.01042	1.196883	1.779384
H	-1.510453	1.359765	0.823518
H	0.000201	2.13569	0.287128
Br	3.467465	0.0	0.0
