17

C	-0.53547	0.060748	-1.425303
C	0.0	0.0	0.0
Cl	0.379056	1.346561	-2.330776
H	1.101916	0.0	0.0
N	-0.216911	-1.222056	-2.200989
O	0.614472	-1.983159	-1.732721
O	-0.828901	-1.364536	-3.256922
N	-1.937265	0.205714	-1.489724
H	-2.243015	0.187985	-2.455073
H	-2.222505	1.070225	-1.050166
C	-0.514534	-1.192363	0.669474
N	-0.972875	-2.099167	1.257778
C	-0.405656	1.240444	0.810132
H	-1.479812	1.27701	1.012209
H	-0.0859	2.145263	0.292272
H	0.1216	1.203968	1.764307
Br	3.456228	0.0	0.0
