17

C	-0.335764	-0.116557	-1.502876
C	0.0	0.0	0.0
Cl	-2.032564	-0.581867	-1.769273
H	1.094739	0.0	0.0
N	-0.139914	1.293197	-2.095199
O	-1.083764	2.07492	-2.069927
O	0.995133	1.540087	-2.480457
N	0.516725	-0.997211	-2.23219
H	0.310305	-1.948993	-1.951866
H	1.482906	-0.789726	-1.969044
C	-0.410178	-1.241532	0.648891
N	-0.750232	-2.237988	1.170522
C	-0.5444	1.220623	0.732587
H	-0.07359	2.125603	0.347825
H	-0.291313	1.139671	1.790874
H	-1.627477	1.304935	0.625495
Br	3.425908	0.0	0.0
