17

C	-0.575815	-0.266406	-1.392809
C	0.0	0.0	0.0
Cl	0.033465	0.900738	-2.572407
H	1.105856	0.0	0.0
N	-0.031958	-1.666417	-1.856468
O	-0.838492	-2.59264	-1.757351
O	1.125509	-1.74763	-2.227312
N	-1.991555	-0.23938	-1.392629
H	-2.336635	-0.954787	-0.76211
H	-2.345527	-0.435835	-2.321214
C	-0.468683	-1.053798	0.898899
N	-0.894465	-1.864294	1.637509
C	-0.430933	1.366624	0.547642
H	-0.027437	2.152277	-0.090986
H	0.002385	1.488751	1.541919
H	-1.516391	1.458371	0.600832
Br	3.45397	0.0	0.0
