17

C	-0.541181	0.027186	-1.426869
C	0.0	0.0	0.0
Cl	0.21178	1.341714	-2.354251
H	1.092715	0.0	0.0
N	-0.097136	-1.267445	-2.183003
O	0.794458	-1.949548	-1.702566
O	-0.709099	-1.494319	-3.225527
N	-1.951176	0.164807	-1.478283
H	-2.263063	0.065683	-2.437218
H	-2.380045	-0.560017	-0.91097
C	-0.52406	-1.19425	0.658589
N	-1.037732	-2.126366	1.157726
C	-0.42241	1.249183	0.785186
H	0.010236	1.185861	1.785071
H	-0.011157	2.133777	0.299692
H	-1.506542	1.345083	0.855802
Br	3.458842	0.0	0.0
