16

C	0.0	0.0	0.0
C	-0.599738	-0.240911	-1.36601
Cl	1.761179	0.0	0.0
H	-1.676909	-0.440402	-1.241381
H	-0.473632	0.648146	-1.982076
C	-0.554153	1.288733	0.5683
H	-0.255821	2.125271	-0.065185
H	-1.647459	1.205919	0.586281
H	-0.166188	1.439027	1.574734
N	-0.422514	-1.117294	0.97985
O	0.066043	-1.049204	2.103768
O	-1.236351	-1.940064	0.588867
N	0.003323	-1.356521	-2.148274
O	0.493539	-2.308538	-1.549571
O	-0.066839	-1.247682	-3.37152
Br	-3.975678	0.0	0.0
