16
Coordinates from ORCA-job run
  C   -0.74673678792288     -0.06998541098911     -0.42613005992554
  C   0.68185343121640     -0.51318780688365     -0.74671892451923
  H   -1.41019422243586     -0.41006127999810     -1.22522505184270
  H   0.99702139783031      0.03372058915175     -1.64169514603321
  H   0.65274288246858     -1.57291506143532     -1.01451604335290
  C   -0.92205810770217      1.41369475506243     -0.17888802643063
  H   -0.31443184967467      1.75997405274606      0.65480380987134
  H   -0.63221558707469      1.95812685168785     -1.08101230750167
  H   -1.96334775078899      1.65004065624267      0.04538658525671
  N   -1.19231967277596     -0.86790229265593      0.77176652695770
  O   -1.23574502995030     -0.30881553297099      1.86585836513817
  O   -1.43191218970451     -2.05701850954552      0.57179427551691
  C   1.68009957041920     -0.29172613137699      0.38592022025425
  H   1.40378261317591     -0.85475370453629      1.27972347335890
  H   2.67165678139795     -0.63002012569540      0.07795299716957
  H   1.76180452152168      0.76082895119653      0.66197930608233
