16
Coordinates from ORCA-job run
  C   -0.55345904567784      0.06498195002266     -0.33349038696052
  C   0.93860678609527      0.28469299180345     -0.12255639410808
  H   -0.72864355411004     -0.56501102201010     -1.20799019564425
  H   1.07139977839271      0.92446975968299      0.75486574898984
  H   1.30708562701767      0.84304942102301     -0.98974372374417
  C   -1.35159753145410      1.35350939181966     -0.41168902436866
  H   -2.41804009059633      1.14945927034502     -0.53058655067537
  H   -1.01651272679797      1.93679909725629     -1.27206692488923
  H   -1.20578494651608      1.94367491550839      0.49356347889481
  N   -1.06210432017834     -0.75419998131051      0.81661195857450
  O   -1.45302099981882     -1.89553875056625      0.57751923121707
  O   -1.02481818301453     -0.23183885969697      1.92899700367983
  C   1.72111665712399     -1.01425426208182      0.04143555687247
  H   2.79233981679924     -0.81238929894110      0.10346335878212
  H   1.55189644464609     -1.68861325383019     -0.80183865191884
  H   1.43153628808906     -1.53879136902453      0.95450551529849
