15

C	-0.554879	-0.009454	-1.395643
C	0.0	0.0	0.0
F	0.128873	0.788211	-2.264241
H	1.085835	0.0	0.0
H	-0.377527	-0.862122	0.546977
N	-0.323226	-1.428129	-2.004145
O	-0.878563	-1.622758	-3.08733
O	0.36718	-2.24145	-1.404886
N	-1.920358	0.331196	-1.481915
H	-2.460131	-0.086361	-0.737933
H	-2.294298	0.102197	-2.393667
N	-0.530655	1.192085	0.681333
O	-1.367068	1.019235	1.580161
O	-0.123852	2.292864	0.32218
F	2.521592	0.0	0.0
