15

C	-0.1476	-0.007251	-1.501211
C	0.0	0.0	0.0
F	-0.084499	-1.304349	-1.990396
H	1.089139	0.0	0.0
H	-0.378697	0.923422	0.430354
N	-1.487942	0.507014	-2.042302
O	-2.224591	1.124433	-1.279675
O	-1.698194	0.320805	-3.240223
N	0.860097	0.824536	-2.004427
H	1.732366	0.627006	-1.466693
H	0.972689	0.684183	-2.999627
N	-0.660658	-1.117017	0.687733
O	-1.648868	-1.635351	0.162724
O	-0.219363	-1.426377	1.793369
F	2.63027	0.0	0.0
