15

C	-0.628441	0.04271	-1.3606
C	0.0	0.0	0.0
F	-0.135101	1.194008	-1.986234
H	1.087783	0.0	0.0
H	-0.303579	0.907536	0.526904
N	-0.164762	-1.058767	-2.315658
O	0.925152	-1.567642	-2.12269
O	-0.908783	-1.277083	-3.274907
N	-2.036488	0.014763	-1.344695
H	-2.382354	0.77425	-0.773473
H	-2.40754	0.062	-2.283901
N	-0.502242	-1.127027	0.785883
O	-0.675225	-2.207943	0.218421
O	-0.66568	-0.946768	1.996254
F	2.507621	0.0	0.0
