15

C	-0.173246	-0.227095	-1.491308
C	0.0	0.0	0.0
F	-1.339972	-0.886398	-1.854863
H	1.090352	0.0	0.0
H	-0.471594	0.905534	0.357835
N	-0.474719	1.179858	-2.179793
O	-0.145452	1.268561	-3.360531
O	-1.053408	2.060272	-1.548202
N	0.949491	-0.817426	-2.018779
H	1.788804	-0.585971	-1.449675
H	1.038185	-0.693394	-3.016489
N	-0.502108	-1.122795	0.803008
O	-0.273707	-2.269728	0.428119
O	-1.094779	-0.836274	1.848569
F	2.618693	0.0	0.0
