15
Coordinates from ORCA-job run
  C   0.88546570812364     -0.20253178910458     -0.24084661325171
  C   -0.64681085669384     -0.39258270074335     -0.27874702737363
  Cl  1.58106428685180     -1.10719402341912     -1.67701384108430
  H   -0.82102024508985     -1.47259815754955     -0.19146982962923
  N   1.39706761364004     -0.65839913602749      1.00449016896047
  H   1.23568932513422     -1.65370380280287      1.11182992414822
  H   2.38951803241356     -0.47405356822247      1.08741939839693
  C   1.23256389693501      1.20914852270212     -0.42586326000815
  N   1.49922718545102      2.34675114928084     -0.54734462843261
  C   -1.18868387912161      0.04092402885291     -1.56707450357648
  N   -1.67146550727274      0.41586404420006     -2.56946309471849
  C   -1.34261030545338      0.35005442717622      0.86618741908732
  H   -0.95281389410013      0.01220280463903      1.82485353331338
  H   -1.18059410521082      1.42600662429472      0.77802835306128
  H   -2.41659725560691      0.16111157672355      0.82401400110700
