15
Coordinates from ORCA-job run
  C   0.85157996218562      0.01794456995444     -0.21470684557115
  C   -0.63104171225180     -0.27925826057213      0.09379780893610
  Cl  0.98629382556710      1.01360127548031     -1.69308721285329
  H   -0.62514076494463     -0.92124569371828      0.98576119761733
  N   1.54341059747759     -1.22194620918759     -0.45818922828502
  H   2.50577640410949     -1.04811991448169     -0.72566172214380
  H   1.53517453807602     -1.79610311455062      0.37870880899564
  C   1.41780994441114      0.80682045584008      0.89688721609886
  N   1.88541402910196      1.36285042071576      1.82161577471978
  C   -1.21096478877362     -1.05623683285759     -1.00310820569949
  N   -1.74781038685315     -1.65154553518313     -1.86057056387786
  C   -1.46829448246880      0.96636300411823      0.38841832719251
  H   -1.04741604844126      1.52085532901295      1.22913627901690
  H   -2.48574676636534      0.66849824813828      0.64555564489361
  H   -1.51004435083033      1.61752225729099     -0.48455727904010
