11
Coordinates from ORCA-job run
  C   0.96468312102943     -0.03420212392690     -0.22987022251418
  C   -0.51984667464820      0.03460246617630     -0.59487906347285
  Br  2.04086985946579      0.92820232250663     -1.54186009455911
  H   -0.63766162644317     -0.41544504433822     -1.58291385580812
  H   1.29445326919487     -1.07326389506422     -0.24891181829234
  H   -0.81666615878451      1.08890874046649     -0.66778956286818
  C   1.19446064511970      0.52390234333706      1.09611418356271
  N   1.31446327026206      0.97761241122904      2.17298983348103
  N   -1.25138687269164     -0.75302550282589      0.38552788550372
  H   -1.45529290543744     -0.20070111140234      1.20880257881424
  H   -2.12807592706686     -1.07859060615796      0.00179013615308
