11
Coordinates from ORCA-job run
  C   0.85383365255009      0.11449507296326     -0.20316985744911
  C   -0.55308440718516     -0.26186332880918      0.25420206954208
  Br  0.98665300926241      2.04374741875183     -0.50637863121637
  H   -0.76786149347894      0.26159086535003      1.19593066335748
  H   1.05431709159101     -0.34952872011716     -1.17012144894184
  H   -0.53770006050344     -1.33591680030383      0.46532390601589
  C   1.86278348493299     -0.28066327240915      0.76949103802145
  N   2.66963968882878     -0.63505195724952      1.54608682745635
  N   -1.49658178114971     -0.01823057807656     -0.82469865842363
  H   -2.36248209677633     -0.50820475790911     -0.64186970231813
  H   -1.70851708807170      0.96962605780938     -0.88579620604416
