11
Coordinates from ORCA-job run
  C   0.91520064164607      0.23017990467305     -0.32809303108825
  C   -0.47723884584647     -0.35766083452880     -0.54355256199728
  Br  0.84390190238928      2.18726300428632     -0.37362949040782
  H   -0.35647351761170     -1.44540337611307     -0.57988451137897
  H   1.57914111419621     -0.04833493445471     -1.14933559715434
  H   -0.82777806193664     -0.02612656001058     -1.53131661909692
  C   1.49992012474790     -0.20233801938717      0.93402861523907
  N   1.99556138766239     -0.59438487245072      1.92363408058695
  N   -1.34558086536513     -0.02544945811760      0.56879086303513
  H   -1.68070596297774      0.92545129448589      0.48721841655786
  H   -2.14594791690416     -0.64219614838260      0.59213983570456
