11
Coordinates from ORCA-job run
  C   0.92653411550727      0.16502735616544     -0.34008315278460
  C   -0.50393316345280     -0.33243128314510     -0.53441068861979
  Br  0.98274334315006      2.12188523735020     -0.41099378460246
  H   -0.45576274423548     -1.42614891764324     -0.55687633224905
  H   1.56197033092978     -0.16630718401259     -1.16423887562546
  H   -0.84124934735270      0.00841873794818     -1.52358174249494
  C   1.49405784561968     -0.28866581151867      0.92241680330925
  N   1.96435440302650     -0.69471100101528      1.91869632560269
  N   -1.33783158608920      0.07181215112351      0.58026600317397
  H   -2.17205907341469     -0.49680931380619      0.62579945568364
  H   -1.61782412368844      1.03893002855371      0.48400598860674
