11
Coordinates from ORCA-job run
  C   0.89019569158189     -0.05191534114488     -0.23574289961149
  C   -0.58846412732221      0.06080716491489     -0.65621045281572
  Br  2.05294441209490      0.74864724643627     -1.58520298001938
  H   -0.70024688134641     -0.43831048741626     -1.62167756908016
  H   1.18838545347289     -1.10084087622763     -0.17007712893802
  H   -0.82527891723325      1.11689342542504     -0.80360797886576
  C   1.11423238446867      0.59006345191054      1.05236168848310
  N   1.22931315154801      1.10129180894010      2.10390390786660
  N   -1.52122375923522     -0.50667239981497      0.29110985770708
  H   -1.35347763693740     -1.49245069154339      0.44250844330125
  H   -1.48837977109189     -0.02751330147971      1.18163511197250
