11
Coordinates from ORCA-job run
  C   0.92142221275394      0.13649504393958     -0.33822489480407
  C   -0.59303517797081      0.34815545891549     -0.39215150074451
  Br  1.85976174790794      1.70913796254206     -1.01093288851950
  H   -0.84426281774681      1.24675062535516      0.18606464122431
  H   1.19414910820353     -0.69732728140565     -0.98569748080814
  H   -0.86297122265764      0.53398525429953     -1.43381614853947
  C   1.35450160626002     -0.14660674375788      1.02365344258259
  N   1.64821498658091     -0.38656391709079      2.13545270734545
  N   -1.22622631991235     -0.88157422128437      0.05924521554364
  H   -1.28768383894986     -0.90290543442167      1.06929253748157
  H   -2.16287028446886     -0.95954674709146     -0.31288563076187
