11
Coordinates from ORCA-job run
  C   0.80192809221160      0.06167453858681     -0.12060831905869
  C   -0.65260184064662     -0.19206854626346      0.32932226622033
  Br  1.03294335212232      1.91186194787087     -0.70871680668015
  H   -0.86989599452651      0.47241931353522      1.16886245685892
  H   1.04287371619596     -0.55120509530811     -0.99249593126831
  H   -0.69086151062494     -1.21942374007728      0.70649873308563
  C   1.74706870216091     -0.22468196866630      0.94913486115269
  N   2.46937575793666     -0.48802440510172      1.83757602247325
  N   -1.67140970053203     -0.02831685764162     -0.67916138176484
  H   -1.52939108065332     -0.66266284464742     -1.45442574553835
  H   -1.68002949364401      0.91842765771300     -1.03498615548050
