16
Coordinates from ORCA-job run
  C   0.71750361209204      0.13816140281900      0.40907795386500
  C   -0.81023928858867      0.18455281981685      0.27532039465878
  F   1.02625958483557      0.85831338540029      1.55188530902604
  H   -1.28926713200960      0.27483700750849      1.24755633135896
  N   1.11469549456854     -1.29132119491867      0.78941226771139
  O   2.18447563269259     -1.71403158050734      0.37628323492001
  O   0.34813992189261     -1.84491392257129      1.56779578508538
  N   1.40575747925812      0.52810576653491     -0.72981056346908
  H   1.42116605635377      1.53430454607024     -0.83103462749182
  H   2.33704300357128      0.13314989083549     -0.75227408730336
  N   -1.38999430140460     -1.01278380837448     -0.40528467487307
  O   -0.68889500639642     -1.59123855358165     -1.22628366201790
  O   -2.54529327771926     -1.27571146723946     -0.09135161730559
  N   -1.19083811303624      1.39474890813251     -0.54298609554593
  O   -0.72083570767784      2.44849023415089     -0.12942035862876
  O   -1.92067795843191      1.23533656592423     -1.50888558999003
