16
Coordinates from ORCA-job run
  C   0.75841356280149      0.29122505586659      0.13499521652831
  C   -0.66790648869927     -0.24701273626253     -0.08820571958949
  F   0.72452315233658      1.63333182060245      0.09633721485486
  H   -0.76189917392414     -1.26794576147107      0.27736587037295
  N   1.16238263964743     -0.14300650243767      1.55312277924550
  O   1.45518988191603      0.72612975587376      2.35171180360242
  O   1.18475861806498     -1.35928386101534      1.71349895324983
  N   1.77752582852951     -0.19325098747398     -0.70748986763220
  H   1.62855387724218      0.08386539659855     -1.66783363225910
  H   1.92236055072179     -1.18849707903916     -0.60970260608329
  N   -1.06224195954908     -0.24137231291727     -1.52720129443380
  O   -1.89241964601856     -1.08743906522945     -1.84444727508168
  O   -0.56099500208159      0.61173006051829     -2.25351377566457
  N   -1.66371202919637      0.59623328598231      0.66517193658304
  O   -1.52866376966178      0.54001297618680      1.88084467041915
  O   -2.47587004212918      1.24727995421772      0.02634572588807
