16
Coordinates from ORCA-job run
  C   0.71490676184171      0.17763215293848      0.15013134658008
  C   -0.72753394184975     -0.25804141985859     -0.09548637845774
  F   0.77748628294012      1.53877914689917      0.20022922904713
  H   -0.89491807630798     -1.26157204551233      0.28799341090742
  N   1.13372757660130     -0.32729336433854      1.54536602516303
  O   0.72383221784150     -1.43006889354437      1.87644637394479
  O   1.90232334253326      0.39779620138693      2.15795691527249
  N   1.60365741575368     -0.42594813268530     -0.75090366180279
  H   1.47248822925120     -0.05070925003190     -1.68223504380919
  H   2.56337535734114     -0.28386840319310     -0.45780526278836
  N   -1.09814654270707     -0.25177738897786     -1.53975943121617
  O   -0.58166062394894      0.60547829866345     -2.25207715009665
  O   -1.92563041955295     -1.09125230835476     -1.87642764579016
  N   -1.66834346255723      0.67352313398931      0.62722775145246
  O   -2.55297400489461      1.21587157407388     -0.01714547402667
  O   -1.44259011228538      0.77045069854554      1.82548899562035
