16
Coordinates from ORCA-job run
  C   0.64432440872081      0.13564666319106      0.51757584962151
  C   -0.82812956938167      0.05986802655478      0.10533334635883
  F   0.62214129762945      1.00004917117367      1.61423423248411
  H   -1.42414373835734     -0.38383464238765      0.90063936264192
  N   1.03817615727404     -1.21145146509174      1.15805409672517
  O   0.25412822131998     -1.63905000864926      1.99250056623277
  O   2.10721119078530     -1.70506864083086      0.82967637163206
  N   1.53995240351121      0.45955323207754     -0.45400946355573
  H   2.38300336591501     -0.07978765292328     -0.53454540238281
  H   1.28592940779227      1.12141843777332     -1.16354261871316
  N   -0.99062633408875     -0.78647667867343     -1.12397553656286
  O   -1.66749860078116     -0.34836778106274     -2.04362224218580
  O   -0.43515873225881     -1.87573468839061     -1.05835579219804
  N   -1.37345076828571      1.42099565475618     -0.17358250325479
  O   -2.45041537611685      1.68949081569316      0.34551424207267
  O   -0.70744333367778      2.14274955678986     -0.90989450891586
