16
Coordinates from ORCA-job run
  C   0.68248152652896      0.07499023523150      0.41483215448800
  C   -0.81930132117682      0.12534489228531      0.14983402834081
  F   0.91544882169638      1.06508026374249      1.36544275350881
  H   -1.37627483470927     -0.18971605871220      1.02922440538031
  N   1.01016006410441     -1.21140606103014      1.19138013846932
  O   2.06699117057657     -1.76482703241336      0.92310104866202
  O   0.21963348679306     -1.51611635119049      2.07310286900037
  N   1.45291903553219      0.12646901637275     -0.72752405259834
  H   1.32552454577403      0.99271867243613     -1.23224721334511
  H   2.42155350880365     -0.10758091156178     -0.56125619589765
  N   -1.16320943644424     -0.80325597599902     -0.98103264949775
  O   -1.68049504244986     -0.32931712900512     -1.98183764694840
  O   -0.88005905168212     -1.97245464579925     -0.76266567959937
  N   -1.27068575295225      1.50413854652083     -0.20728395880233
  O   -0.53371972779188      2.17692634224978     -0.92120520374859
  O   -2.36996699260280      1.82800619687257      0.22813520258787
