16
Coordinates from ORCA-job run
  C   0.68760338044967      0.28835099045337      0.13284092173701
  C   -0.70669260220379     -0.25070581865757     -0.18249352081343
  F   0.68382636833647      1.62085718307235      0.27855479586352
  H   -0.73793622398696     -1.33591033951705     -0.10678545642880
  N   1.12395264659585     -0.30735590889584      1.49762979931291
  O   0.93883836435099     -1.51693549722548      1.60060561964718
  O   1.69213226206001      0.42884858073544      2.28423535644798
  N   1.58266425694407     -0.06402303888858     -0.89406010797431
  H   1.67887166703988     -1.06484472642587     -1.00742004158929
  H   2.48430974627366      0.37630417102925     -0.75600808217460
  N   -1.05795163954438      0.12804354139086     -1.58580750088046
  O   -1.28888638522578      1.31125683373448     -1.79112866142965
  O   -1.04275102944236     -0.78955767820090     -2.39933631195651
  N   -1.75762136208951      0.28656709379444      0.74658066400231
  O   -1.37972829072098      0.60025375631590      1.86864697011629
  O   -2.90163115883685      0.29185085728520      0.31594555611986
