16
Coordinates from ORCA-job run
  C   0.72032560961088      0.22285554451412      0.05710959711557
  C   -0.73977587793728     -0.19419321847788     -0.11173431006262
  F   0.88100610227162      1.54398977459789     -0.10215382263819
  H   -0.89784890734658     -1.21913280860073      0.21877631303295
  N   1.13698209070519     -0.10420012580426      1.51633705718496
  O   1.80545978740488      0.71827156165021      2.11629261014414
  O   0.82643602155586     -1.23353345092061      1.88529688484288
  N   1.52593770649586     -0.45948782432789     -0.87375318492589
  H   2.47552083288614     -0.10730386397659     -0.85634861855973
  H   1.50816469199938     -1.46323223113850     -0.74614899399886
  N   -1.09518950185729     -0.11146505547928     -1.56163861559300
  O   -1.17426665780536      1.01074036887655     -2.04108318953589
  O   -1.23675027874939     -1.18741332470706     -2.13298886942601
  N   -1.68077038546296      0.67313959968175      0.67546080753141
  O   -2.82435573062702      0.75207434220337      0.25157095611890
  O   -1.22987550314393      1.15789071190893      1.70600537876937
