16
Coordinates from ORCA-job run
  C   0.65633821404466      0.36370609258912      0.10463861479166
  C   -0.68021024363984     -0.32929291567736     -0.15491056183365
  F   0.51300347621778      1.69072396006985      0.22779837046944
  H   -0.59004106710931     -1.40966581981080     -0.05947309101775
  N   1.19663667870613     -0.15337275324723      1.46499207586962
  O   1.70537556358157      0.65594521676849      2.21981286812001
  O   1.14756143637027     -1.37350619293645      1.59467642557009
  N   1.55207078076780      0.08843657457742     -0.94469153026532
  H   1.75135312900752     -0.89846740775840     -1.04485933432240
  H   2.40517675682144      0.62512565507305     -0.84458833540094
  N   -1.11445406717799     -0.01973602713086     -1.55193948697493
  O   -1.02432370577886     -0.94638347699938     -2.35020246749744
  O   -1.47975398137362      1.12701189800912     -1.76901813948859
  N   -1.75444111238668      0.10982447848224      0.79911434825887
  O   -2.90481409895868     -0.01952696730111      0.40661983814480
  O   -1.37847775909218      0.48717768529231      1.90203040557654
