16
Coordinates from ORCA-job run
  C   0.76238115864581      0.02923782700544      0.08791282556425
  C   -0.72262677749260     -0.19568431635878     -0.19460282639969
  F   1.08190694504037      1.32698893558651     -0.20325702481156
  H   -0.97989973431341     -1.25138113281553     -0.18094526492053
  N   1.00713852007299     -0.16083492899381      1.58467574967734
  O   0.24306782649218     -0.92420343750054      2.16073670790795
  O   1.99330943667375      0.39779938072747      2.03859493135416
  N   1.56384325067333     -0.92503708608022     -0.54786452217941
  H   2.54527459643526     -0.72773001232039     -0.38848565179879
  H   1.36174275449427     -0.98494819587915     -1.53776772828155
  N   -1.02378916606858      0.33836874037711     -1.57561788059665
  O   -1.72948746720202      1.32894849023885     -1.67415371956250
  O   -0.50091046644253     -0.29639707060478     -2.48631186263080
  N   -1.63497243024040      0.51073070937651      0.75709682242096
  O   -1.19681663790579      1.48411315731227      1.35543311653387
  O   -2.76916180886264      0.04902893992904      0.80555632772295
