16
Coordinates from ORCA-job run
  C   0.79492080446086      0.30465027193166      0.21913556162835
  C   -0.59528220038949      0.55794491423782     -0.37501855871747
  F   1.14401235366190      1.39783279264992      0.94193930158417
  H   -0.54010603178112      1.48259556426807     -0.94743874953655
  N   0.76987671601270     -0.84339263926518      1.26614230372362
  O   1.64188813775053     -1.69528552378399      1.17412481125413
  O   -0.09447649836139     -0.75063631849379      2.12815129907168
  N   1.72519286792947      0.11291214586490     -0.81284473810956
  H   2.65623713642600      0.31847162644198     -0.47070842305987
  H   1.69894734873065     -0.84035894666825     -1.15203286699142
  N   -1.70699778238394      0.73599167544438      0.63171065333536
  O   -1.66302287268002      1.79237662601916      1.24389114699805
  O   -2.53394745781602     -0.15866389086446      0.72549364004743
  N   -0.99221284843728     -0.53617283173321     -1.30234343765328
  O   -0.52316590057089     -1.65070992545197     -1.07926458911399
  O   -1.78086377255196     -0.22855554059704     -2.18693735446064
