16
Coordinates from ORCA-job run
  C   0.71929683291685      0.14605571369788      0.16188254002956
  C   -0.73708637868731     -0.22497217497232     -0.10593685097838
  F   0.84536960220778      1.50359030735147      0.19291743926969
  H   -0.95960809011369     -1.21266446298625      0.29040457140273
  N   1.08675494642154     -0.35535367019774      1.57332927344244
  O   1.87782515190799      0.34198057575700      2.18944087214919
  O   0.61763760295065     -1.43151665306773      1.91327199577819
  N   1.59588706042273     -0.51296910355244     -0.71132150899536
  H   1.50029477458675     -0.14941922413753     -1.65152247728872
  H   2.55549674652749     -0.41123859867997     -0.40168889269152
  N   -1.07875343012030     -0.22533643221689     -1.55734105150494
  O   -0.50871203926895      0.59488850013435     -2.27237947221561
  O   -1.93862149193039     -1.03033155002552     -1.89722163673313
  N   -1.64640444094192      0.76242991200857      0.58278810092284
  O   -1.44038404829706      0.86819280443998      1.78382393369740
  O   -2.48999279858217      1.33666405644714     -0.08844683628438
