16
Coordinates from ORCA-job run
  C   0.65255268782460      0.14688902641760      0.53484564969906
  C   -0.83702399096050      0.14092632303115      0.19354341083184
  F   0.80974837411405      0.79884161193502      1.72076896742593
  H   -1.43463454162236     -0.06735160963973      1.07628571379248
  N   1.02899146398024     -1.32211917072747      0.91043178943510
  O   0.13789895138179     -2.00767804789472      1.40062080882518
  O   2.19893708092040     -1.63544020972739      0.74276324251364
  N   1.45721185495826      0.73026423089952     -0.42933024061716
  H   1.32833223714119      0.30164271481000     -1.33634163078891
  H   2.43127621670869      0.70886291121875     -0.15423759845117
  N   -1.19684744317184     -0.85903079835849     -0.85337118741687
  O   -2.38059745360571     -1.16761415879681     -0.89670128875312
  O   -0.30062150280647     -1.25730840079013     -1.59286241476491
  N   -1.21737460735077      1.50212981960401     -0.32313370710685
  O   -1.24813305858588      1.65044140107513     -1.53715955840438
  O   -1.42671626892569      2.33754435694356      0.54487804378014
