16
Coordinates from ORCA-job run
  C   0.81316449247439      0.18648704326041      0.05943726351833
  C   -0.65863267635782     -0.20627753060937     -0.19799352861939
  F   0.96443924812004      1.49248950051136     -0.21951988788369
  H   -0.78364053822654     -1.28532245684153     -0.23350405210962
  N   1.07143569020777     -0.04881273143377      1.54527806581853
  O   0.72440953158783     -1.16477641308237      1.92859943582829
  O   1.62122040383034      0.82842005660916      2.18113874595344
  N   1.79752379815878     -0.55900714287706     -0.62301400526350
  H   1.79312893310725     -1.52990480649676     -0.33771307693835
  H   1.67298188444210     -0.48672331197216     -1.62528199580228
  N   -1.05419627580819      0.34928114109852     -1.54096848221343
  O   -1.86431421007485      1.26203641017403     -1.57559281175713
  O   -0.48228578630593     -0.17691913445129     -2.49061005063246
  N   -1.62889382475332      0.31991171335166      0.80932373281671
  O   -1.29049306337067      1.29951963280794      1.46407670478752
  O   -2.69684760703118     -0.28040197004878      0.85634394249703
