16
Coordinates from ORCA-job run
  C   0.80702222553444      0.30532586694193      0.22793717549034
  C   -0.59184788623239      0.54156932193509     -0.34823155417634
  F   1.06820748456184      1.35525789308153      1.04371737234326
  H   -0.53844043104859      1.40385348219896     -1.01260597030607
  N   0.82056196017131     -0.94371650521359      1.13637150658945
  O   1.43900302980496     -0.87697509410165      2.18487514582694
  O   0.28427833730377     -1.92915952897475      0.64184226006386
  N   1.78041245986847      0.23771329853799     -0.77530173546543
  H   2.70115138061130      0.06587568550711     -0.39025852781200
  H   1.54301228940301     -0.42125784206341     -1.50461543526754
  N   -1.57702529527947      0.86856578868558      0.72510321900441
  O   -1.47743656447573      0.25764957743159      1.78240149813008
  O   -2.41675572650666      1.71010156736089      0.42455831733580
  N   -1.14887743937796     -0.59881801764203     -1.16644044756498
  O   -0.47362218490595     -0.90194140671098     -2.14185754308367
  O   -2.21864363943234     -1.07504408697426     -0.82749528110810
