16
Coordinates from ORCA-job run
  C   0.62426898656306      0.09116789399879      0.49473931863789
  C   -0.83868041139430      0.05003371890538      0.06294018156867
  F   0.66797112140664      1.01559626368132      1.53537372158792
  H   -1.45920659711364     -0.37836332724898      0.84665169579835
  N   0.97272643230182     -1.22519915428368      1.20902094614630
  O   2.09771824600200     -1.66941696988378      1.02900400973058
  O   0.11795018745930     -1.66269213283066      1.96605722693585
  N   1.50775615972833      0.29410178013266     -0.54408532405780
  H   1.36175611635049      1.18547486820359     -0.99740325886701
  H   2.46903359508329      0.12298797893422     -0.28467975605138
  N   -0.97805874856737     -0.80512127802136     -1.16578836937314
  O   -0.61984478782445     -1.96288809157016     -1.00409705599700
  O   -1.42537889450185     -0.29114066471990     -2.18042086305302
  N   -1.36241955167855      1.41589862768349     -0.24022901926899
  O   -0.61275220743641      2.19677204842603     -0.81804660450068
  O   -2.52383964637837      1.62178843859303      0.09396315076345
