16
Coordinates from ORCA-job run
  C   0.84061941918875      0.28687079100333      0.26744999208414
  C   -0.56366400505113      0.49512322748089     -0.33998572205087
  F   1.09026952826801      1.42848620024873      0.94696458204811
  H   -0.51212978640718      1.32770312455209     -1.04175008534151
  N   0.83139641234529     -0.87935905020496      1.24843551658461
  O   1.21999994261560     -0.68090143822124      2.38217123661812
  O   0.47392241045874     -1.93636796606433      0.73805916675954
  N   1.90435785129409      0.03261737231818     -0.62042727990265
  H   2.05535994088524      0.81748623989978     -1.24153327943161
  H   1.74893123375251     -0.81067558780187     -1.15741646981810
  N   -1.58758015309344      0.85286731107423      0.68566580511489
  O   -2.41710106910918      1.68573559425208      0.33507331816721
  O   -1.52143860072371      0.27199716476349      1.76276720011200
  N   -1.07128618539295     -0.68938276926730     -1.12105888224174
  O   -2.07342497234871     -1.25750853618924     -0.71792011274138
  O   -0.41923196668193     -0.94669167784387     -2.12549498596074
