16
Coordinates from ORCA-job run
  C   0.77777714278978      0.16741018985143      0.21135092789002
  C   -0.68580618809678     -0.14597234820643     -0.15420788431749
  F   0.88566501187442      1.48026965742234      0.47341194565914
  H   -0.90192601356643     -1.20521111328344     -0.02733390939783
  N   1.07169533501864     -0.61111984708113      1.50372399664373
  O   1.41946801824311      0.02232009321048      2.48184262479042
  O   0.95938510910338     -1.82746967303927      1.38838022307465
  N   1.77726400813609     -0.22944626556973     -0.69788420641324
  H   1.81147319627858     -1.23130273515325     -0.82545671515145
  H   1.70125717995149      0.26922507575827     -1.57362524270525
  N   -1.01422026254273      0.21970073775990     -1.56269678861315
  O   -1.91301970974685     -0.43831931053988     -2.07729173286590
  O   -0.39589494347971      1.15075190512599     -2.07009927483234
  N   -1.61920898554949      0.61741024832973      0.74928186573635
  O   -1.54466585640390      0.28056192775510      1.92403368382293
  O   -2.32824304200961      1.48119145765989      0.25657048667940
