16
Coordinates from ORCA-job run
  C   0.82966616303226      0.22572167515268      0.18045399490234
  C   -0.55735352569597      0.61475234111474     -0.34398371682333
  F   1.31632115306860      1.27535656350912      0.88821099066990
  H   -0.44176882976188      1.53340628810395     -0.91700411229826
  N   0.74639248464515     -0.92245882536673      1.22349474629985
  O   -0.06376421736048     -0.75524533064592      2.12593624756262
  O   1.52931896540141     -1.85153166578107      1.08785595852867
  N   1.68589818001024     -0.04562300557572     -0.89705043488141
  H   1.55790747794407     -0.99203465133132     -1.23241352841030
  H   2.64758551146676      0.07524879201732     -0.60255253772594
  N   -1.59695829215674      0.89122973767464      0.71593205723740
  O   -1.42219103085196      1.93415143076294      1.32790581967902
  O   -2.50069173742493      0.07949613846257      0.84756469678550
  N   -1.10116844491735     -0.43088881097953     -1.25267624623595
  O   -0.72984286391880     -1.58625220903511     -1.05492876694569
  O   -1.89935099348038     -0.04432846808257     -2.09674516834444
