16
Coordinates from ORCA-job run
  C   0.75813747649722      0.23244309029272      0.22115315903474
  C   -0.66933492680366     -0.20231195858449     -0.16283537483852
  F   0.76339096032907      1.55899153168704      0.43148195365596
  H   -0.81077549774239     -1.26895907576283      0.00154765245510
  N   1.07592460728499     -0.47083641380173      1.55029420516112
  O   1.05569929850487     -1.69582674809831      1.48227605033022
  O   1.35149654384657      0.22430222560869      2.50938467678846
  N   1.80588716527192     -0.12485794780471     -0.64928503569330
  H   1.91643714962072     -1.12565200594573     -0.73466258335618
  H   1.71513829749433      0.33207751101644     -1.54612198844536
  N   -0.98897462554438      0.08361804751162     -1.59200569599665
  O   -1.82527464910444     -0.65778664350418     -2.09852155831142
  O   -0.42694126356246      1.03669821721059     -2.12336872175640
  N   -1.67764548722976      0.52428369541122      0.68868586921219
  O   -1.60873166572534      0.23777767698055      1.87718002706265
  O   -2.43443338313725      1.31503879778310      0.14679736469739
