16
Coordinates from ORCA-job run
  C   0.71863513048412      0.20959180663707      0.11060288691879
  C   -0.73551713303645     -0.17205954380999     -0.16094707662309
  F   0.87461152451890      1.53785900407093      0.20117638889275
  H   -0.89384235710634     -1.24164937387287     -0.03710291598851
  N   1.10978762573909     -0.37999715528541      1.49124883701348
  O   1.77611168632619      0.31439001850591      2.23786894171938
  O   0.78690782393174     -1.55450402377299      1.64664188818040
  N   1.54523953859862     -0.28608439527195     -0.91494662055517
  H   2.49452296712985      0.05105547914172     -0.80899812149922
  H   1.52294306438542     -1.29527392919438     -0.98533778374936
  N   -1.06668101033911      0.18670481026419     -1.57421062756096
  O   -1.15702198730870      1.37937650991491     -1.82868490692327
  O   -1.17804266125462     -0.75955466729991     -2.34644584572112
  N   -1.69669589024266      0.52525133932708      0.75940464259515
  O   -2.83854962485670      0.65682387774035      0.34370662514881
  O   -1.26340869696935      0.82907024290533      1.86402368815196
