16
Coordinates from ORCA-job run
  C   0.75845358044393      0.23492657230703      0.21635845965118
  C   -0.67055050986172     -0.20374794822103     -0.15718956148244
  F   0.76581922920625      1.56382224319571      0.41019814971125
  H   -0.81202452180414     -1.26810534833328      0.02130374427657
  N   1.08175621591976     -0.45234832307875      1.55251815090680
  O   1.36427092937762      0.25383625008028      2.50138126620912
  O   1.05920931444186     -1.67804849257994      1.49924944826465
  N   1.80215742353695     -0.13387323789819     -0.65420206608755
  H   1.91104934451557     -1.13558643515368     -0.72965220500724
  H   1.71062069442244      0.31477818070326     -1.55508741614625
  N   -0.99300674488376      0.06336575906851     -1.58936338415047
  O   -1.82507884702195     -0.68902384260752     -2.08672016968587
  O   -0.43670509416135      1.01325510925833     -2.13225995806215
  N   -1.67636824269316      0.53451877888587      0.68703812653573
  O   -1.59955074257532      0.26942051724305      1.87999289846770
  O   -2.44005202886297      1.31181021713032      0.13543451659896
