16
Coordinates from ORCA-job run
  C   0.74262169811406      0.16627977540422      0.10144244315873
  C   -0.67286296481097     -0.30226957026858     -0.23263331690580
  F   0.79227787143887      1.53119271206128      0.02551871549272
  H   -0.71555776911840     -1.37673108814701     -0.38958088714707
  N   1.04897473959316     -0.20633859894348      1.55202983339072
  O   0.45989385371099     -1.18495176539581      1.99193390078577
  O   1.91706674203190      0.45520403759653      2.09935177672174
  N   1.70588807291190     -0.49551576759692     -0.66731025324127
  H   2.63109545108514     -0.13396059353315     -0.46535224752178
  H   1.50113843882518     -0.43773369491322     -1.65676291664602
  N   -1.10053183848090      0.37232179133889     -1.51569725452089
  O   -0.47823973799622      0.00767036416234     -2.50830997524647
  O   -1.99240373489004      1.20348922394750     -1.46550778064665
  N   -1.68947419006002      0.04882534972771      0.80686796347073
  O   -1.44383437100877      0.98452989470486      1.55616011893545
  O   -2.70705226134589     -0.63301207014516      0.76784987992010
