16
Coordinates from ORCA-job run
  C   0.82435734002467      0.18179434603789      0.15496569035329
  C   -0.57541197473757      0.53300606518708     -0.35541948905273
  F   1.30493570361913      1.27534779119067      0.83828155807718
  H   -0.48900277096326      1.36201441824637     -1.05798523684073
  N   0.78918833806193     -0.92383804018249      1.21108737318033
  O   1.63253170626736     -1.80591411689966      1.13772019176206
  O   -0.04559846437669     -0.76389141065254      2.08913249727304
  N   1.61152592011242     -0.22596626760692     -0.92104564226866
  H   2.36771885923330     -0.83052978311843     -0.62619723984885
  H   1.94637129189559      0.56103740943270     -1.46063939427089
  N   -1.56418843150775      0.98436701296195      0.69606383425374
  O   -1.31073611561629      2.07337214216528      1.18907795388772
  O   -2.51980292548526      0.25863720664382      0.92380775926836
  N   -1.16867745289223     -0.61843103313568     -1.09441674568577
  O   -1.81285393109493     -0.32596190158043     -2.09677333636016
  O   -0.98835709254042     -1.73504383868962     -0.62565977372794
