16
Coordinates from ORCA-job run
  C   0.83851549826295      0.17111742458946      0.01600480841725
  C   -0.60854903924671      0.54255824912723     -0.30556624955964
  F   1.64813787141668      1.11504211914422     -0.54068773117132
  H   -0.76734096311487      1.61089363255075     -0.19080568412919
  N   1.03442509836421      0.42483292974646      1.54497635308438
  O   0.33749273462195      1.29852391894241      2.05030999525974
  O   1.91541218085715     -0.22744373836817      2.08688704715181
  N   1.21715089623580     -1.08640103219388     -0.42296846095128
  H   0.60457791872569     -1.80893812791480     -0.06859229822494
  H   2.18206127569126     -1.28084472486057     -0.18626321726677
  N   -1.60299105239618     -0.16649675714768      0.55137784408076
  O   -1.24404703703889     -1.20430360208909      1.10157781875592
  O   -2.71331100632299      0.34681012137203      0.59734990153858
  N   -0.89303019696933      0.17418589216458     -1.73658810805369
  O   -1.43504353733021     -0.90401499478522     -1.93827768626900
  O   -0.51446064175652      0.99447868972227     -2.56073433266261
