16
Coordinates from ORCA-job run
  C   0.75666533587987      0.22855723037837      0.23040675243813
  C   -0.66843213741082     -0.19864060615696     -0.17100556509979
  F   0.76386712656079      1.55290332650968      0.45300616904452
  H   -0.81418143955040     -1.26631737197007     -0.01740392911669
  N   1.05991961068947     -0.48810738503372      1.55603478002308
  O   1.32857032102020      0.19737139027620      2.52395449500535
  O   1.03694673828335     -1.71227002521996      1.47647251828605
  N   1.81164979316724     -0.12411471862547     -0.63334734800278
  H   1.91860529654270     -1.12457972270844     -0.72729796079819
  H   1.73063798008113      0.34133266364302     -1.52676341440930
  N   -0.97336232751240      0.10087771715755     -1.60049279852470
  O   -1.80517033413377     -0.63480219424743     -2.12248635347269
  O   -0.40480886182556      1.05804677402038     -2.11732702549493
  N   -1.68285404282667      0.52298881896913      0.67729058667390
  O   -1.62554928023992      0.22648543433416      1.86390072256407
  O   -2.43250377872521      1.32026866867355      0.13505837088398
