16
Coordinates from ORCA-job run
  C   0.71620944672923      0.21207139009271      0.12549029719798
  C   -0.73097544459938     -0.17369016873876     -0.17557761808881
  F   0.86185108976078      1.53903156599715      0.24624756144715
  H   -0.88315364210407     -1.24685562928069     -0.07769847585270
  N   1.09099244224915     -0.40374863973459      1.49922694640148
  O   0.77319593882944     -1.58316093859687      1.62557052814826
  O   1.74112633135166      0.27901713058218      2.27045905733111
  N   1.56090833358821     -0.25677794360830     -0.89791106163774
  H   2.50693442039677      0.08203205843390     -0.77051629275543
  H   1.54431079684240     -1.26419177915371     -0.99136392112291
  N   -1.04483586170615      0.21442856255312     -1.58509901935062
  O   -1.13889078949537     -0.71475726756288     -2.37994738729255
  O   -1.14103847821065      1.41198279282399     -1.81343669696165
  N   -1.71082888137367      0.49611886790984      0.74538180317173
  O   -2.84847018781344      0.62390967212920      0.31700738454280
  O   -1.29533551444491      0.78359032615371      1.86116689482190
