16
Coordinates from ORCA-job run
  C   0.81259929598477      0.18274322601683      0.22532079145005
  C   -0.56227616990469      0.50476851576940     -0.35560264714272
  F   1.15761401278484      1.31269263435212      0.93463902685100
  H   -0.46169739941128      1.37498280829947     -1.00431467525582
  N   0.76293722144651     -0.96133817922991      1.24014414344783
  O   1.46122400019680     -0.84754299388496      2.23412678682071
  O   0.08035665461518     -1.91581393562215      0.90058935943033
  N   1.73053249368221     -0.20331280911149     -0.74546296506673
  H   2.66841759855724     -0.27258437558716     -0.37132225281462
  H   1.70117952389577      0.34235326393925     -1.59378314328703
  N   -1.55635427472717      0.89005722706276      0.69633613649997
  O   -1.40933793295929      0.44148949349231      1.82564106780735
  O   -2.45495908775529      1.62151893593059      0.29501400393865
  N   -1.16855525170447     -0.57900669178699     -1.20929784234712
  O   -2.14160662005007     -1.17512000662714     -0.77694183994854
  O   -0.62007406465106     -0.71688711301293     -2.29508595038330
