16
Coordinates from ORCA-job run
  C   0.83997187174069      0.27497016426441      0.28032013871331
  C   -0.55737091838596      0.50417558415652     -0.33596318978568
  F   1.09161930493689      1.40123695854777      0.98369154231424
  H   -0.49363827293791      1.34945036350184     -1.02134967318409
  N   0.81305077753906     -0.90982836090299      1.23851880431882
  O   1.19508014109269     -0.73701400608952      2.37863564219684
  O   0.45047311056860     -1.95348350308982      0.70488027380537
  N   1.91036266672070      0.03024257383943     -0.60248749499514
  H   1.74836255337552     -0.79383922271331     -1.16668744608623
  H   2.08067066389126      0.83139052431773     -1.19729319196605
  N   -1.58735168497765      0.85058408240543      0.68736314673699
  O   -1.53559093191613      0.24920284122998      1.75391589848506
  O   -2.40598917548861      1.69799116371293      0.34599024410413
  N   -1.06640519065722     -0.66152591568215     -1.14334814628884
  O   -2.07827623815780     -1.22720398189287     -0.76173722168003
  O   -0.40596867734414     -0.90634926560539     -2.14544932668870
