16
Coordinates from ORCA-job run
  C   0.69759387651155      0.13409120711877      0.47751074643175
  C   -0.81743449709725      0.11341012855055      0.27757880912437
  F   0.95604831271819      0.73383226762593      1.67304640929082
  H   -1.32557160289000     -0.14948791835262      1.20084604087302
  N   1.13182162458263     -1.34252398634205      0.74512596461998
  O   0.29974335898551     -2.07212485439437      1.27398076058730
  O   2.28893060023545     -1.61941068155369      0.46289913396621
  N   1.39794029224943      0.77796474682780     -0.52871789848162
  H   1.19283258888992      0.38822457242021     -1.43914185034140
  H   2.39355374150519      0.76731757731898     -0.34568475757751
  N   -1.25905540311596     -0.84134529484677     -0.78019250228563
  O   -0.42995089861926     -1.18821030790826     -1.61739432862716
  O   -2.43773518685779     -1.16784870016548     -0.73032755903124
  N   -1.26657876047045      1.49037238250023     -0.13237455738672
  O   -1.41582542228183      1.69599192004578     -1.32911780798018
  O   -1.40531262434532      2.27874694115499      0.79196339681804
