16
Coordinates from ORCA-job run
  C   0.69721690064253      0.29035137894538      0.05579011587450
  C   -0.71741632718013     -0.26209881926027     -0.11132137057215
  F   0.72274966134191      1.62727129965114     -0.03739610275681
  H   -0.76511162973144     -1.31547424117401      0.15792793646971
  N   1.17414300150524     -0.06519699354302      1.48905249138124
  O   1.78273777840745      0.78508271911269      2.11365867596541
  O   0.97253662854729     -1.23304799432931      1.81075254164702
  N   1.54658152265595     -0.25984616338179     -0.92205841449597
  H   2.46056896812681      0.17588313327898     -0.89470711642877
  H   1.62109748008337     -1.26687156463344     -0.85682240004855
  N   -1.11402025060146     -0.13005687495785     -1.54682864157694
  O   -1.33064303341212      1.00327140982117     -1.95198070197811
  O   -1.14616737908033     -1.17754889399283     -2.18393104809280
  N   -1.72291373587916      0.45738460437144      0.74189266765552
  O   -2.88183656939275      0.41553794990371      0.35555375067814
  O   -1.29752301603315      0.95435905018803      1.77741761627857
