16
Coordinates from ORCA-job run
  C   0.80960528815255      0.28930580738933      0.23813923153665
  C   -0.58661857756722      0.55868334080039     -0.33016788939811
  F   1.08037795538315      1.30745500456304      1.08996411700283
  H   -0.52473311256937      1.44257418638451     -0.96473544331778
  N   0.81020874349976     -0.99068403150780      1.10291100444530
  O   1.42776257455300     -0.96602974157115      2.15372369924618
  O   0.26516793687760     -1.95326800850760      0.57426342801122
  N   1.78301141389378      0.24709676962300     -0.76661513991793
  H   1.53995888114432     -0.38498928548400     -1.51757949603528
  H   2.70178328125858      0.05369512245648     -0.38705239997018
  N   -1.56852675260176      0.85932080042840      0.75393114274588
  O   -1.47670098935582      0.21021794113445      1.78886647694025
  O   -2.39741611199062      1.72155622087951      0.48359795788767
  N   -1.15436727707578     -0.54770971732069     -1.18593870338301
  O   -0.48208056365305     -0.82393880978571     -2.17135327568777
  O   -2.22843268994914     -1.02528559948217     -0.86295471010591
