16
Coordinates from ORCA-job run
  C   0.82719618414610      0.25021818278552      0.15602599068855
  C   -0.57946739075762      0.59015791167223     -0.34986449713077
  F   1.30368637844692      1.33195779175814      0.82114665885788
  H   -0.49679775727426      1.49211906623845     -0.95425584355316
  N   0.79381413783112     -0.86735288350904      1.23391818586256
  O   -0.00868447010957     -0.69772764271221      2.14270739302370
  O   1.60336978583693     -1.77560834760440      1.11492077934280
  N   1.66649662646026     -0.03380325365060     -0.93171674563618
  H   2.63043888429231      0.12585646671621     -0.66448916099726
  H   1.55947736315348     -0.99457525666625     -1.23155726780289
  N   -1.60399781880079      0.87637780300381      0.72235163147444
  O   -2.49071733486407      0.05295028441888      0.89142793931101
  O   -1.43722141659789      1.93824495204514      1.30294593373279
  N   -1.11549253277611     -0.49691241609093     -1.21353618236807
  O   -0.71278805129411     -1.63614813865952     -0.98611890292888
  O   -1.93831258769270     -0.15675451974541     -2.05390591187652
