16
Coordinates from ORCA-job run
  C   0.76763406746350      0.13302916106548      0.07481606987958
  C   -0.71196342149020     -0.08996689487595     -0.23139133543346
  F   1.12407178374217      1.41999001678302      0.06957297471887
  H   -0.96245108944636     -1.14435627751260     -0.16018753615887
  N   0.94093435041222     -0.36787873693345      1.54433806282093
  O   1.27463924231425      0.43485024134595      2.40184820230517
  O   0.72761948275754     -1.57001539843527      1.68118034886903
  N   1.55386712698265     -0.58155911282972     -0.84291481827819
  H   1.42347288012313     -1.58158565395602     -0.76603530778696
  H   2.53205889615570     -0.33494925302068     -0.75446096338254
  N   -1.00455619030014      0.34164400084227     -1.63958466500833
  O   -1.27928845033283     -0.57550262365706     -2.40788411117284
  O   -0.92294484846584      1.53411698235675     -1.89735132047473
  N   -1.60353271436436      0.63064444982731      0.73676936590677
  O   -1.48363666656733      1.84614512340156      0.82690412840946
  O   -2.37592444898411     -0.09360602440160      1.36338090478611
