16

C	0.0	0.0	0.0
C	-0.572409	-0.467691	-1.326551
Cl	1.774175	0.0	0.0
H	-1.660987	-0.36673	-1.215437
H	-0.335986	-1.534758	-1.377139
N	-0.377692	1.463486	0.260745
O	-0.76114	2.137353	-0.688942
O	-0.231807	1.876225	1.405512
C	-0.53699	-0.826756	1.145547
H	-0.136589	-0.46955	2.092369
H	-1.628926	-0.745609	1.138025
H	-0.243037	-1.867562	0.997265
N	-0.007299	0.181172	-2.506292
H	-0.189841	-0.415558	-3.303758
H	-0.508411	1.047939	-2.653214
Cl	-3.870597	0.0	0.0
