16

C	0.0	0.0	0.0
C	-0.57814	-0.342685	-1.360794
Cl	1.772551	0.0	0.0
H	-1.666654	-0.250025	-1.242111
H	-0.34102	-1.399289	-1.517903
N	-0.376282	1.435983	0.392836
O	-0.913251	2.144954	-0.452806
O	-0.097676	1.788144	1.533944
C	-0.539532	-0.915098	1.076675
H	-1.631605	-0.829853	1.080311
H	-0.250955	-1.942013	0.845637
H	-0.131903	-0.633987	2.045934
N	-0.012963	0.422287	-2.472055
H	-0.312381	-0.027304	-3.329504
H	-0.449429	1.335309	-2.454776
Cl	-3.924047	0.0	0.0
