16

C	0.0	0.0	0.0
C	-0.538375	-0.422216	-1.372537
Cl	1.772496	0.0	0.0
H	-0.353421	-1.499444	-1.432513
H	-1.622751	-0.278726	-1.316655
N	-0.37481	1.449376	0.321222
O	-0.259989	1.805007	1.488707
O	-0.716121	2.175118	-0.607052
C	-0.532385	-0.883373	1.100651
H	-0.143505	-0.570931	2.067961
H	-0.228083	-1.912796	0.901739
H	-1.625086	-0.811263	1.085473
N	-0.009564	0.203352	-2.570124
H	1.003452	0.178757	-2.554526
H	-0.29193	1.173837	-2.569833
Cl	-3.820058	0.0	0.0
