16

C	0.0	0.0	0.0
C	-0.376762	-0.26895	-1.482009
Cl	1.783357	0.0	0.0
H	-0.065294	-1.306279	-1.653088
H	0.277497	0.360097	-2.089136
N	-0.362242	1.432983	0.383335
O	-0.460324	1.688594	1.578562
O	-0.469473	2.248369	-0.528362
C	-0.609346	-0.951837	0.987258
H	-1.698486	-0.842456	0.926272
H	-0.326465	-1.972121	0.722009
H	-0.284393	-0.733518	2.002199
N	-1.726786	-0.079442	-1.9254
H	-1.955928	0.9045	-1.911626
H	-2.432255	-0.517085	-1.338308
Cl	-4.276709	0.0	0.0
