16

C	0.0	0.0	0.0
C	-0.556419	-0.023577	-1.426578
Cl	1.787511	0.0	0.0
H	-1.664863	0.005561	-1.197733
N	-0.546409	1.145095	0.651924
H	-0.312362	1.113404	1.640705
H	-1.584122	0.96978	0.564352
C	-0.341582	-1.287669	0.665294
N	-0.514088	-2.318751	1.20435
C	-0.216549	-1.273095	-2.232186
H	-0.656146	-1.195631	-3.22881
H	0.86287	-1.405893	-2.338093
H	-0.638956	-2.151759	-1.740771
C	-0.1713	1.18743	-2.134764
N	0.110157	2.119885	-2.793644
H	-2.90332	0.0	0.0
