16

C	0.0	0.0	0.0
C	-0.545502	-0.128859	-1.420191
Cl	1.838036	0.0	0.0
H	-1.655467	-0.091847	-1.194158
N	-0.537706	1.184834	0.570429
H	-1.578393	1.008723	0.491694
H	-0.305699	1.221253	1.559057
C	-0.314258	-1.236558	0.761008
N	-0.47461	-2.201029	1.415465
C	-0.195339	-1.430257	-2.132234
H	-0.59024	-2.277137	-1.5662
H	-0.657224	-1.438278	-3.12269
H	0.884576	-1.54999	-2.249085
C	-0.170684	1.031266	-2.213903
N	0.114693	1.910431	-2.940716
H	-2.896173	0.0	0.0
