16

C	0.0	0.0	0.0
C	-0.463759	-0.043411	-1.459517
Cl	1.791425	0.0	0.0
H	0.094631	-0.86296	-1.934387
N	-0.444097	1.202352	0.656482
H	-0.205978	1.140657	1.643465
H	-1.474022	1.103736	0.578725
C	-0.385667	-1.257482	0.693868
N	-0.466922	-2.235743	1.34314
C	-0.148627	1.262115	-2.193698
H	-0.726638	2.084918	-1.772265
H	-0.413714	1.139786	-3.243601
H	0.91263	1.518232	-2.117594
C	-1.936064	-0.393608	-1.590136
N	-2.610686	-0.83817	-2.479884
H	-2.500417	0.0	0.0
