16

C	0.0	0.0	0.0
C	-0.589314	0.027692	-1.392388
Cl	1.838394	0.0	0.0
H	-1.85429	0.025667	-0.886652
N	-0.438661	1.161358	0.716564
H	0.196365	1.923832	0.601273
H	-0.662419	1.007618	1.692208
C	-0.354004	-1.21923	0.729166
N	-0.527004	-2.224436	1.348088
C	-0.284012	-1.200164	-2.22308
H	-0.702908	-1.081668	-3.227293
H	-0.744612	-2.1027	-1.776992
H	0.785414	-1.408837	-2.326774
C	-0.2669	1.254636	-2.054782
N	-0.032634	2.26423	-2.622663
H	-2.784816	0.0	0.0
