16

C	0.0	0.0	0.0
C	-0.541875	0.045091	-1.442869
Cl	1.792986	0.0	0.0
H	-1.651952	0.045689	-1.203691
N	-0.516681	1.04051	0.837736
H	-1.551102	0.873382	0.773788
H	-0.317031	1.930819	0.386688
C	-0.372503	-1.303356	0.595424
N	-0.560005	-2.348927	1.097008
C	-0.175249	-1.139528	-2.328458
H	-0.544705	-2.060324	-1.871244
H	0.905198	-1.221064	-2.471637
H	-0.651379	-1.032178	-3.306055
C	-0.189887	1.314183	-2.055942
N	0.073776	2.339018	-2.57063
H	-2.892944	0.0	0.0
