19

C	0.0	0.0	0.0
C	-0.445774	0.182281	-1.451938
F	1.364854	0.0	0.0
H	-0.082826	1.170787	-1.742757
C	-0.577406	1.024776	0.933193
H	-0.188746	0.85679	1.939858
H	-1.665286	0.9456	0.951189
H	-0.277416	2.019639	0.597128
N	-0.373899	-1.402413	0.501943
O	0.482481	-2.273501	0.390021
O	-1.497094	-1.536534	0.970531
C	-1.917157	0.004328	-1.736049
H	-2.087832	0.137989	-2.806535
H	-2.53757	0.712924	-1.189325
H	-2.27519	-0.978535	-1.441688
N	0.368123	-0.749675	-2.314661
O	-0.009395	-1.91409	-2.402353
O	1.347908	-0.271234	-2.885578
Cl	-4.769274	0.0	0.0
