19

C	0.0	0.0	0.0
C	-0.464956	0.203951	-1.448466
F	1.36476	0.0	0.0
H	-0.363296	1.272053	-1.654819
C	-0.595702	0.99818	0.951352
H	-1.686479	0.932857	0.916178
H	-0.272274	2.001467	0.666788
H	-0.253132	0.787057	1.966423
N	-0.36191	-1.408033	0.502271
O	0.554726	-2.203442	0.674247
O	-1.550548	-1.602906	0.717541
C	-1.839221	-0.307383	-1.825852
H	-2.634446	0.031156	-1.152623
H	-2.069244	0.037719	-2.837125
H	-1.85523	-1.396199	-1.809771
N	0.556656	-0.432189	-2.350783
O	0.65579	-1.654998	-2.306018
O	1.207564	0.312285	-3.082778
Cl	-4.733823	0.0	0.0
