10
Coordinates from ORCA-job run
  C   -0.34397587245987     -0.20356790007478     -0.16094081072737
  C   1.16721716357561      0.01684164899630     -0.07545076684087
  Cl  -0.68688297970931     -1.50970386210285     -1.34607582784798
  H   1.64857288754747     -0.90747580037434      0.24422553415198
  H   1.54534718227969      0.30360082079346     -1.05680298778623
  H   1.38093966385765      0.80869155416617      0.64468066088328
  C   -1.02093697115557      1.01637188901545     -0.61141240218608
  N   -1.52469418869470      2.01285795508714     -0.97634321880485
  C   -0.88413141498146     -0.60842819757151      1.14040745900260
  N   -1.28145547025950     -0.92818810793505      2.19871236015552
