10
Coordinates from ORCA-job run
  C   -0.32943421789484     -0.23264592917619     -0.15785358598921
  C   1.16537434384220      0.07238418807683     -0.04653255330125
  Cl  -0.56955409587301     -1.63016166393046     -1.26100790123204
  H   1.31594579458927      0.92431769497204      0.61910804253277
  H   1.55953144369825      0.30713674219528     -1.03536942104528
  H   1.68215788816958     -0.79995351644415      0.35390732413761
  C   -1.05328428001555      0.91841852015820     -0.70602101577206
  N   -1.59372531161887      1.86454202953134     -1.14500410821267
  C   -0.88593914588637     -0.57840566934833      1.15379353345071
  N   -1.29007241901066     -0.84563239603456      2.22397968543142
