10
Coordinates from ORCA-job run
  C   -0.34772944661540     -0.21528313682442     -0.13883148112236
  C   1.16331332805594      0.02038579699743     -0.11587263395327
  Cl  -0.71760609607741     -1.58922482933491     -1.23615437696459
  H   1.39318213713400      0.85468274186109      0.54970838102598
  H   1.50688759860159      0.25188183448261     -1.12430288588176
  H   1.66281496592733     -0.88048055970199      0.24120292246878
  C   -1.05045166974714      0.97220740176551     -0.63394886892110
  N   -1.57401207186096      1.94588014445373     -1.03112766805442
  C   -0.84131080723318     -0.54934443063169      1.20050922369782
  N   -1.19608793818479     -0.80970496306737      2.28981738770492
