17

C	-0.266123	-0.03824	-1.495094
C	0.0	0.0	0.0
Cl	-2.072045	-0.206228	-1.840144
H	1.097969	0.0	0.0
C	0.191516	1.257253	-2.138168
H	1.254826	1.372513	-1.896885
H	-0.359904	2.109732	-1.744606
H	0.061946	1.197337	-3.223399
N	0.397561	-1.218177	-1.983059
H	1.353155	-1.175921	-1.614667
H	0.445668	-1.189431	-2.995771
C	-0.460247	-1.214271	0.673099
N	-0.8399	-2.125955	1.311771
N	-0.446862	1.22218	0.64723
H	0.227611	1.449113	1.368896
H	-1.353969	1.091013	1.077847
H	2.731461	0.0	0.0
