17

C	-0.269087	-0.008221	-1.50288
C	0.0	0.0	0.0
Cl	-2.073457	-0.098531	-1.815226
H	1.097173	0.0	0.0
C	0.268082	1.260296	-2.125256
H	1.335362	1.313096	-1.880266
H	-0.232195	2.131201	-1.706586
H	0.130786	1.215142	-3.206903
N	0.347436	-1.153462	-2.138498
H	-0.007656	-2.001818	-1.70585
H	1.339661	-1.089238	-1.889854
C	-0.44703	-1.245325	0.626723
N	-0.818342	-2.22344	1.165536
N	-0.450057	1.197411	0.68736
H	0.217383	1.404611	1.422355
H	-1.365302	1.063211	1.097271
H	2.736392	0.0	0.0
