17

C	-0.282634	-0.032665	-1.492282
C	0.0	0.0	0.0
Cl	-2.093421	-0.191682	-1.814091
H	1.100264	0.0	0.0
C	0.165061	1.267371	-2.134259
H	-0.38596	2.115511	-1.732884
H	1.229322	1.384238	-1.902671
H	0.024005	1.211545	-3.217924
N	0.372038	-1.210281	-1.996803
H	0.433839	-1.156122	-3.006495
H	1.325986	-1.188632	-1.620201
C	-0.4514	-1.216418	0.674223
N	-0.796553	-2.153438	1.295901
N	-0.438074	1.221994	0.654415
H	-1.3285	1.084819	1.114836
H	0.257443	1.461903	1.353274
H	2.726391	0.0	0.0
