17

C	-0.427734	-0.122678	-1.474547
C	0.0	0.0	0.0
Cl	-0.055863	-1.806433	-2.008721
H	1.088681	0.0	0.0
C	-1.906931	0.122358	-1.69157
H	-2.134211	0.035935	-2.755389
H	-2.149497	1.132861	-1.352906
H	-2.504684	-0.599466	-1.130975
N	0.36036	0.776491	-2.292498
H	1.338841	0.567344	-2.081684
H	0.196903	1.698286	-1.893746
C	-0.555326	-1.027714	0.868772
N	-1.036798	-1.804607	1.610611
N	-0.323949	1.358958	0.466925
H	-1.106627	1.355954	1.106687
H	0.497021	1.692677	0.96548
H	2.738758	0.0	0.0
