17

C	-0.527342	-0.01846	-1.448606
C	0.0	0.0	0.0
Cl	0.104611	1.484372	-2.23218
H	1.098885	0.0	0.0
C	0.038795	-1.206843	-2.196692
H	1.125803	-1.208105	-2.087185
H	-0.35926	-2.135801	-1.774548
H	-0.241963	-1.146619	-3.249511
N	-1.971715	0.044205	-1.556783
H	-2.339281	-0.833336	-1.197686
H	-2.267538	0.782122	-0.919678
C	-0.472065	-1.203194	0.66685
N	-0.87167	-2.170687	1.205602
N	-0.493494	1.197478	0.709619
H	0.307598	1.820669	0.765851
H	-0.733282	0.949834	1.660396
H	2.756004	0.0	0.0
