17

C	-0.265527	-0.02537	-1.495853
C	0.0	0.0	0.0
Cl	-2.073856	-0.170755	-1.842019
H	1.098418	0.0	0.0
C	0.205077	1.270098	-2.130401
H	1.267744	1.374184	-1.882803
H	0.079962	1.216643	-3.21647
H	-0.3415	2.124789	-1.7356
N	0.386324	-1.209179	-1.99025
H	0.438994	-1.172196	-3.002562
H	1.341459	-1.186073	-1.616326
C	-0.463214	-1.219554	0.662591
N	-0.849202	-2.135216	1.291834
N	-0.445727	1.218056	0.654746
H	0.218499	1.43229	1.390723
H	-1.360927	1.089196	1.067837
H	2.733044	0.0	0.0
