17

C	-0.266822	-0.048429	-1.501498
C	0.0	0.0	0.0
Cl	-2.072904	-0.149608	-1.813535
H	1.108295	0.0	0.0
C	0.266611	1.204203	-2.157579
H	0.133826	1.127083	-3.237951
H	-0.240125	2.083573	-1.76544
H	1.33222	1.268849	-1.910145
N	0.350614	-1.208396	-2.108626
H	-4e-06	-2.04572	-1.650877
H	1.343546	-1.135064	-1.864529
C	-0.442502	-1.230334	0.656961
N	-0.778331	-2.218737	1.200594
N	-0.448675	1.216029	0.654541
H	0.212082	1.435951	1.39109
H	-1.368459	1.095703	1.059707
H	2.722594	0.0	0.0
