19
Coordinates from ORCA-job run
  C   -0.67615197995983     -0.26169021531927     -0.02229257669270
  C   0.82927591261096      0.04968083746752      0.03095579951815
  Br  -1.20064650303773     -0.56303078067354     -1.91542779208258
  H   1.04369045980359      0.12082925388122      1.10779181921335
  C   -1.52091491284426      0.89498399019193      0.49055389516166
  H   -1.20347815857569      1.14768902603088      1.50887506761502
  H   -1.43055932410764      1.78303412304901     -0.13414462782316
  H   -2.57392274392500      0.60860675088223      0.52123747546013
  C   -0.99174197267040     -1.54263783295236      0.73471066987932
  H   -2.05394154161529     -1.78336219523093      0.65894596491747
  H   -0.74491409411348     -1.39463071457467      1.79239646707283
  H   -0.39780861246341     -2.37156273371059      0.35635110402299
  C   1.22399102333194      1.37834046264766     -0.61483587613399
  H   0.95117591969644      1.38943481859218     -1.67283637475443
  H   2.30792693018874      1.50322431343855     -0.54334086408495
  H   0.76177104544937      2.23877805872106     -0.12620218740160
  N   1.59254113912796     -1.09603218542640     -0.46009758132565
  H   1.51073903246324     -1.14025940193508     -1.47053580705642
  H   2.57296838064051     -0.96039557507939     -0.24210457550544
