19
Coordinates from ORCA-job run
  C   -0.50750011514507     -0.31731453285141      0.53427863267562
  C   0.91849782137597      0.13141506146265      0.16715821301674
  Br  -0.33341000379025     -1.46612002328832      2.15466865629031
  H   1.32003349883516      0.63233842846626      1.06371771191900
  C   -1.16959259646888     -1.16071641995861     -0.54189814761869
  H   -2.13857199399964     -1.52608278497780     -0.19605846438217
  H   -0.53994999064745     -2.00424709361266     -0.81858596183970
  H   -1.33598737424122     -0.54667470755914     -1.43223739712400
  C   -1.38355015301379      0.85600660393362      0.94600565867476
  H   -2.32360440920916      0.49969371207251      1.37056710866904
  H   -1.61990817727663      1.46787473821649      0.07128617799053
  H   -0.88563381387765      1.48162420302574      1.69078015849341
  C   0.92984001350573      1.13919694461665     -0.97973292159224
  H   0.52392959212065      0.69742681181529     -1.89130908812440
  H   1.96314604156993      1.43285383668411     -1.18743999396244
  H   0.37925584593914      2.04868023592347     -0.73785663175127
  N   1.72004936019437     -1.01993462746764     -0.24055435339657
  H   2.64062963358338     -0.70148428975318     -0.52028597480768
  H   1.84232682054543     -1.64453609674805      0.54849661686974
