14
Coordinates from ORCA-job run
  C   0.81484172693915     -0.60327363684107      0.11926780981733
  C   -0.45437626319229      0.05879761981853     -0.39691285571369
  Cl  0.81201650907789     -0.42626711533637      1.96163170333101
  H   -0.50701185447865     -0.13537110050438     -1.47063794091787
  H   0.76856914438146     -1.67822493850734     -0.03693080365586
  N   1.92331752280084     -0.03256687455952     -0.52943163723167
  H   2.79910677359914     -0.43597803250689     -0.22819428990231
  H   1.93082354904468      0.97327016067649     -0.42005240849768
  N   -0.46812762819689      1.44771772036188     -0.13450939293243
  H   -1.21527019463601      1.91227416264027     -0.63113663028156
  H   -0.57649289416230      1.62332786941899      0.85642955177820
  N   -1.65328713058702     -0.71095119885820      0.17426117938432
  O   -2.48789144933995     -0.08035756245160      0.81289294083908
  O   -1.68521781125004     -1.91139707335079     -0.07667722601686
