14
Coordinates from ORCA-job run
  C   0.91723844595128      0.07118943881984     -0.12628884245380
  C   -0.59644756826776     -0.02718247846890     -0.27752324173988
  Cl  1.62996898373359     -0.07626074477778     -1.81938914464143
  H   -0.87697035275706     -1.02136777221063     -0.63599940198088
  H   1.17690202416519      1.07956323596645      0.19809437894552
  N   1.39948811231877     -0.87102217339208      0.79961274934050
  H   1.22420588048330     -1.82613827167823      0.51612333799256
  H   2.38002458630154     -0.74580460552088      1.00620819682279
  N   -1.17421244617602      1.03922470220105     -1.01365973655908
  H   -0.49446240000430      1.62980995622836     -1.46645000541152
  H   -1.85344798120496      0.72058802617888     -1.68612211325975
  N   -1.12269573537476      0.00499270183149      1.15616567424831
  O   -1.62056805038339     -1.03330377015146      1.58296071918662
  O   -0.98802349878543      1.05571175497389      1.76726742951003
