15

C	-0.421273	-0.011146	-1.46221
C	0.0	0.0	0.0
Br	-0.260833	1.85715	-2.232871
H	1.094653	0.0	0.0
H	-0.302441	-0.996999	0.366507
N	0.423523	-0.929062	-2.143651
H	0.305235	-0.870532	-3.14734
H	1.400311	-0.765476	-1.903156
N	-1.838256	-0.322155	-1.602907
H	-2.150486	-0.078895	-2.535321
H	-1.904912	-1.332472	-1.507333
N	-0.546608	1.095532	0.771731
H	0.031974	1.236178	1.589275
H	-1.491303	0.881789	1.063565
Cl	3.514497	0.0	0.0
