15

C	-0.41752	0.112955	-1.466345
C	0.0	0.0	0.0
Br	-0.270311	-1.82119	-2.239923
H	1.100313	0.0	0.0
H	-0.408601	-0.900451	0.456901
N	-1.788099	0.483344	-1.740813
H	-1.975264	1.234121	-1.077953
H	-2.384258	-0.293471	-1.481888
N	0.442391	1.0139	-2.091302
H	0.241475	1.123137	-3.074792
H	1.422049	0.81631	-1.902607
N	-0.530922	1.192026	0.696651
H	0.094912	1.958613	0.468304
H	-0.424111	1.034831	1.692601
Cl	3.503839	0.0	0.0
