16

C	0.0	0.0	0.0
C	-0.513621	0.082117	-1.42728
Br	2.01647	0.0	0.0
H	-1.580239	0.30712	-1.320382
H	-0.449166	-0.947116	-1.791583
N	-0.263137	1.323273	0.79458
O	-0.342108	2.374663	0.17378
O	-0.340392	1.210128	2.012408
N	-0.521137	-1.105795	0.67
H	-1.537396	-1.093347	0.495161
H	-0.368223	-1.005855	1.667166
C	0.146337	1.020265	-2.429127
H	-0.38454	0.927611	-3.381209
H	0.088334	2.057001	-2.107378
H	1.192703	0.762873	-2.601894
Cl	-3.608581	0.0	0.0
