16

C	0.0	0.0	0.0
C	-0.509194	-0.259868	-1.40426
Br	1.954384	0.0	0.0
H	-1.566663	0.022882	-1.390726
H	0.015775	0.40126	-2.093124
N	-0.269356	1.515462	0.351322
O	-0.261164	2.329719	-0.562113
O	-0.424979	1.772393	1.539471
N	-0.545256	-0.856178	0.953327
H	-0.334522	-0.522434	1.886393
H	-1.567147	-0.828725	0.816676
C	-0.369672	-1.720451	-1.811105
H	-0.98356	-2.355457	-1.171972
H	0.667705	-2.061118	-1.747503
H	-0.710104	-1.844694	-2.843051
Cl	-3.603708	0.0	0.0
