16

C	0.0	0.0	0.0
C	-0.496276	-0.135013	-1.436028
Br	1.944206	0.0	0.0
H	0.032821	0.580761	-2.066628
H	-1.555275	0.140471	-1.396044
N	-0.343725	1.434506	0.476953
O	-0.179573	2.328872	-0.347737
O	-0.715145	1.580545	1.63091
N	-0.503333	-0.896883	0.97021
H	-1.524747	-0.767865	0.976099
H	-0.299608	-1.844102	0.671864
C	-0.369577	-1.555453	-1.970499
H	-0.640648	-1.572643	-3.029101
H	-1.062548	-2.222124	-1.452803
H	0.648694	-1.945043	-1.876403
Cl	-3.603688	0.0	0.0
