16

C	0.0	0.0	0.0
C	-0.514063	-0.366188	-1.379274
Br	1.946072	0.0	0.0
H	0.001734	0.245805	-2.11846
H	-1.573849	-0.091362	-1.379289
N	-0.280418	1.532619	0.242006
O	-0.416557	1.875706	1.410887
O	-0.298839	2.277063	-0.729284
N	-0.540692	-0.790718	1.013645
H	-0.329394	-0.391038	1.920569
H	-1.562631	-0.7759	0.878287
C	-0.365808	-1.85182	-1.678802
H	0.671915	-2.182591	-1.587088
H	-0.979502	-2.441053	-0.998336
H	-0.701874	-2.052095	-2.699847
Cl	-3.613777	0.0	0.0
