16

C	0.0	0.0	0.0
C	-0.486799	-0.015612	-1.428798
Br	2.032348	0.0	0.0
H	0.023218	0.772259	-1.981694
H	-1.551364	0.235817	-1.369609
N	-0.235266	1.425555	0.611884
O	-0.378845	1.472487	1.82814
O	-0.224162	2.38691	-0.144974
N	-0.530298	-1.008335	0.790646
H	-1.551085	-0.980645	0.642315
H	-0.338707	-0.826176	1.768791
C	-0.310451	-1.374899	-2.092122
H	0.737464	-1.683605	-2.101982
H	-0.665659	-1.323926	-3.124909
H	-0.891793	-2.134305	-1.57047
Cl	-3.578852	0.0	0.0
