16

C	0.0	0.0	0.0
C	-0.431877	-0.156443	-1.453384
Br	1.95001	0.0	0.0
H	-0.148999	-1.178225	-1.725487
H	0.178538	0.521709	-2.050027
N	-0.303811	1.467607	0.467245
O	-0.150709	2.366305	-0.349036
O	-0.6403	1.607374	1.637759
N	-0.54906	-0.952573	0.862154
H	-0.427274	-0.677366	1.828868
H	-1.546896	-1.033772	0.674052
C	-1.90649	0.099079	-1.730143
H	-2.184262	1.130246	-1.514562
H	-2.604918	-0.519003	-1.169321
H	-2.094284	-0.077002	-2.792566
Cl	-4.790301	0.0	0.0
