16

C	0.0	0.0	0.0
C	-0.418218	0.02805	-1.467953
Br	1.955604	0.0	0.0
H	0.137933	0.825616	-1.962741
H	-0.072017	-0.920013	-1.896706
N	-0.366932	1.359426	0.627242
O	-0.023622	2.354464	0.00354
O	-0.971379	1.352638	1.691716
N	-0.542976	-1.025089	0.79962
H	-0.795992	-1.81948	0.225943
H	-1.360393	-0.689698	1.299817
C	-1.917339	0.205912	-1.663844
H	-2.136761	0.210836	-2.735173
H	-2.281589	1.146179	-1.250878
H	-2.527941	-0.566439	-1.198647
Cl	-4.857409	0.0	0.0
