17
Coordinates from ORCA-job run
  C   -0.86283142138044     -0.00411121255471     -0.03976732142648
  C   0.59967486594344      0.32269815097438     -0.35770785568457
  Br  -1.60553990506523     -0.47800965335372     -2.05938629662074
  H   0.62237760767693      1.05375971276148     -1.16461582613869
  N   -1.02572588790674     -1.12696273485248      0.76478540287639
  H   -0.70716469007202     -1.97694106827665      0.32294249354307
  H   -1.97273146927525     -1.24230239560954      1.10030093154318
  N   -1.55415400393997      1.10239583742543      0.43837345526042
  H   -1.36841327688811      1.94533908448878     -0.08660561020903
  H   -2.55027449674972      0.94954677870437      0.51947152000018
  C   1.47978921294737     -0.87150326389330     -0.64985711046158
  H   2.49037905252855     -0.53274981853633     -0.88487759231662
  H   1.53817194673181     -1.52341963407667      0.22074861241758
  H   1.09102378259735     -1.41658334231304     -1.50987285362030
  N   1.14586310417103      1.07375348985628      0.83710902222996
  O   1.11137789323259      2.30168917751855      0.76300260818472
  O   1.56917768544842      0.42240089173716      1.78495642042251
