17
Coordinates from ORCA-job run
  C   -0.83185616645540     -0.14452790547578      0.15080285562276
  C   0.60131761164168      0.14225616402585     -0.31961113868114
  Br  -0.83125293315692     -0.63618692746388      2.11128213601194
  H   0.53419748242907      0.17039115047627     -1.41122648389461
  N   -1.68975895002692      0.94641895897422     -0.13920628187283
  H   -2.65013660396551      0.70591803586455      0.07408224126351
  H   -1.42758247337280      1.77559453207443      0.37959797796961
  N   -1.24039138158453     -1.35459871313173     -0.53396959124696
  H   -1.64482963987174     -1.08722012467802     -1.42594204591628
  H   -1.92772237740674     -1.86334151523620      0.00554800225448
  C   1.65258349792803     -0.86609554813934      0.10626514758476
  H   1.26743605425024     -1.86807326184356     -0.07640716837913
  H   2.56045788762312     -0.71050526969570     -0.47743140988409
  H   1.88547227167605     -0.75933793397140      1.16567069826135
  N   1.10245359134668      1.51369151504313      0.03936367511566
  O   2.03993168270457      1.92464251748312     -0.63775619569009
  O   0.59968044624112      2.11197432569402      0.98993758148105
