17
Coordinates from ORCA-job run
  C   -0.86124604642559     -0.02443484897212     -0.32627744775977
  C   0.63677319537566      0.31516186143416     -0.40123049590544
  Br  -1.40628075432005     -0.42581027220653     -2.17932362391311
  H   0.76647879812784      1.06857979852716     -1.17692125010700
  N   -1.08824778328734     -1.22748045512736      0.43103699605968
  H   -2.07357731617415     -1.46360043384138      0.42510058671515
  H   -0.78933969003188     -1.06192995646264      1.38670119900315
  N   -1.57989751360632      1.18886118567302      0.02943399752726
  H   -2.55616098532847      1.10893555038571     -0.22809222964290
  H   -1.52455255952897      1.31085611277104      1.03592428731898
  C   1.56712427521069     -0.86866411972094     -0.59239487595910
  H   2.59540930998166     -0.51440280256889     -0.68949001680906
  H   1.29036932899914     -1.40513720943404     -1.49944765761928
  H   1.49264715301694     -1.55791718360865      0.24781329349199
  N   1.05740782055473      1.01970617735063      0.86011231867752
  O   1.89571519803450      1.90565714873690      0.74800841984340
  O   0.57637756940161      0.62961944706392      1.92804649907853
