17
Coordinates from ORCA-job run
  C   -0.90084652875226     -0.07192950619988     -0.35463005356281
  C   0.60298138766753      0.29311858683778     -0.36461430164569
  Br  -1.34655879673854     -0.36975939572034     -2.27780629587026
  H   0.75365286823162      1.09537168217051     -1.08653374494629
  N   -1.12768856212901     -1.28276705520994      0.35472912813356
  H   -2.12339685330722     -1.41755195673561      0.48242895246818
  H   -0.65661830280963     -1.25851006752054      1.25220387275501
  N   -1.78003775939864      0.98880918454525      0.06882890137666
  H   -1.62960907732342      1.84900552240755     -0.44516708959405
  H   -1.67068902165982      1.15476889123781      1.06356908546968
  C   1.56160476262015     -0.85795239347823     -0.59448761249910
  H   2.58933732769859     -0.48767972779561     -0.61399630043917
  H   1.46493756719033     -1.60904293813677      0.18691766563400
  H   1.33823463700050     -1.32434528052375     -1.55339982212786
  N   0.90809994970910      0.93659582786706      0.95838569981267
  O   1.20022230525236      2.12991741699855      0.95795651001136
  O   0.81637409674835      0.23095120925617      1.96561540502409
