17
Coordinates from ORCA-job run
  C   -0.86738691504896     -0.08911976422101     -0.12057415682834
  C   0.61254984888157      0.13313046335431     -0.44779634433350
  Br  -1.86862355674092      1.41686079905832     -1.27395628900671
  H   0.75245593836715     -0.03284296968407     -1.51608057820689
  N   -1.25672818112393     -1.34894564072988     -0.62552670360264
  H   -2.14648764413935     -1.64761414493725     -0.24688880244959
  H   -1.31081872351965     -1.34219745531992     -1.63528896356078
  N   -1.17267677214116      0.04410366512544      1.23304894467771
  H   -0.79514006746023      0.90262463986324      1.61273290205122
  H   -2.16679953452172     -0.01394972392313      1.41142098099797
  C   1.51948403397565     -0.76413071755221      0.38163477355994
  H   2.55566426633544     -0.63817286878928      0.05960873046810
  H   1.43652741331799     -0.51958725006694      1.43969879175038
  H   1.21851992646580     -1.80040697825284      0.23455256699088
  N   1.03863200463685      1.55163494467942     -0.23165236334746
  O   1.64266089723614      2.10051926217846     -1.14603612464435
  O   0.81016706547933      2.04809373921734      0.87210263548405
