17
Coordinates from ORCA-job run
  C   -0.90806214828939      0.00393767418355      0.11251461384812
  C   0.58038836135705      0.16532916568922     -0.30125180539949
  Br  -0.93134252160320      0.16613230610668      2.15594840166356
  H   0.55670688425728      0.34174363572076     -1.38225596435681
  N   -1.71455775680234      0.94452375917245     -0.54302208247267
  H   -1.36741835868053      1.89007632301398     -0.45753385157235
  H   -2.67524082481910      0.86367836616021     -0.23658424952618
  N   -1.47473642105157     -1.28643441083075     -0.13852116074187
  H   -1.00044128622432     -2.02719438889499      0.35755754670872
  H   -1.49638639568501     -1.46270504966674     -1.13646726924033
  C   1.47036743182388     -1.00793394299218      0.03987042073957
  H   1.14785158481747     -1.88493615011328     -0.52210407312719
  H   1.44744320591779     -1.22518986860577      1.10734747200025
  H   2.50053952684491     -0.78944558759227     -0.23990791035894
  N   1.15145749106585      1.44364393292886      0.26052928927506
  O   2.09497535232092      1.37316495237656      1.03870092098274
  O   0.62045587475032      2.49060928334371     -0.11382029842219
