17
Coordinates from ORCA-job run
  C   -0.90541509111377     -0.03920701395416      0.02939458029216
  C   0.61292446580331      0.19224880630592     -0.20039134382299
  Br  -1.16966272093392     -0.26312711921862      2.02871861134655
  H   0.68735200356138      0.55421939481529     -1.23051674346138
  N   -1.79101054033139      1.01962886012732     -0.35111736333821
  H   -1.70314604718582      1.16240919442704     -1.35267535788482
  H   -1.55125956860583      1.88145711137770      0.12093126546532
  N   -1.29062706996621     -1.18348945414718     -0.70902297634127
  H   -0.85601236238877     -2.03116511884945     -0.37120925404962
  H   -2.29846890969546     -1.27710387150019     -0.65729113601391
  C   1.49748811344804     -1.01658032370817      0.01318976514841
  H   1.28644771195329     -1.75809015750624     -0.75856303252931
  H   1.34314407605463     -1.44857059734033      1.00172456220297
  H   2.54703076082321     -0.73475256930563     -0.07128045588922
  N   1.08540444256587      1.35130818840199      0.63155322219580
  O   1.87075947429717      1.13441601538596      1.54810625614636
  O   0.63405126171429      2.45739865468873      0.32944940053316
