17
Coordinates from ORCA-job run
  C   -0.90607791590767     -0.02422431301339      0.02469579028796
  C   0.61699759615104      0.17550816829994     -0.20366837735769
  Br  -1.18468511032340     -0.16115901228172      2.03080601920072
  H   0.70358041135513      0.49547728047255     -1.24669089003547
  N   -1.77367047145969      1.03022003221405     -0.40528686099975
  H   -1.51898439397077      1.90899689419023      0.02596116229278
  H   -1.68389008775874      1.12406366552740     -1.41245327222088
  N   -1.30384238962366     -1.19313975657914     -0.66705922817526
  H   -0.88444597165395     -2.03162241341575     -0.28933217628749
  H   -2.31326784239515     -1.26969176269572     -0.61786364042290
  C   1.48197632806645     -1.03664503806604      0.06353980236431
  H   1.31772302922903     -1.42492148175903      1.06846849485224
  H   2.53598451135321     -0.77421389645824     -0.02807579114568
  H   1.26320697218935     -1.80631675295752     -0.67785754893258
  N   1.10186441229771      1.35966271140727      0.58520100979567
  O   1.88150023431532      1.16780712884393      1.51203312244386
  O   0.66703068813578      2.45919854627118      0.23858238434016
