17
Coordinates from ORCA-job run
  C   -0.92771587382698      0.05434876864542     -0.34158895183347
  C   0.60957196320959      0.17485235084751     -0.47874693248215
  Br  -1.69671242389330      1.40841400703225     -1.55531128583062
  H   0.86104868997269      0.02108003425447     -1.52692841287545
  N   -1.28046908067670     -1.23672620634259     -0.88484864981298
  H   -1.00334532858136     -1.96229675817851     -0.23009524845016
  H   -2.29005264762756     -1.27751415524766     -0.97447351996308
  N   -1.51315936147238      0.28351058377759      0.95027625871237
  H   -1.28773273595236     -0.48610000268046      1.57067086736076
  H   -1.17505683636874      1.14596709011800      1.36081155764003
  C   1.36875980871033     -0.78266645984555      0.42604176281461
  H   1.10253317718709     -0.62910437432078      1.47228146521695
  H   2.44282618054457     -0.61612682049110      0.31990767254072
  H   1.16980848517616     -1.81585155593691      0.13758700925020
  N   1.07892795026909      1.56136709836486     -0.16667081098695
  O   0.84323398858611      1.99703448408191      0.96158003645937
  O   1.69753404474378      2.15781191592155     -1.04249281776013
