17
Coordinates from ORCA-job run
  C   -0.84990664167691     -0.07817624230247     -0.21376698316587
  C   0.66398798363516      0.08443129261689     -0.38207757021293
  Br  -1.66519594743735      1.36226462847280     -1.57910430353405
  H   0.91968895480561     -0.16292428152523     -1.41249017284653
  N   -1.21931325058801     -1.36235832586871     -0.67038512198160
  H   -1.15667439838728     -1.42777135614178     -1.67763112965465
  H   -2.15692298865195     -1.60908689280787     -0.37986243928795
  N   -1.30338098185063      0.16210712361707      1.08223652778646
  H   -2.31273839791993      0.14127593062460      1.14738267254906
  H   -0.94451868585984      1.03716139069406      1.44176012894012
  C   1.44140053491556     -0.76951231319180      0.60879163964727
  H   1.12851315295954     -1.80698849426112      0.49983684805522
  H   2.51127214725672     -0.68986885820256      0.40321581907135
  H   1.24367159005741     -0.44690097416252      1.63000806253828
  N   1.10658345662064      1.50522123571150     -0.21899791453208
  O   0.77210686151874      2.08547138054612      0.81464723141472
  O   1.82442661060253      1.97265475618102     -1.09556329478680
