17
Coordinates from ORCA-job run
  C   -0.84776576761796     -0.05390429411788     -0.26172669706116
  C   0.64781225666974      0.29599991119109     -0.35007405901535
  Br  -1.36552245903580     -0.59994940007016     -2.15337924643143
  H   0.78755152968471      1.05196577732088     -1.12381118661473
  N   -1.07747699806591     -1.21884887939342      0.53567064892623
  H   -2.04424649013795     -1.51370713081319      0.47777113543846
  H   -0.83744059918567     -1.00150122149685      1.49801495305754
  N   -1.56419382771818      1.09560232601643      0.15824860898488
  H   -1.41449256386933      1.89682820871792     -0.44421194818404
  H   -2.55655778075206      0.91161400427981      0.23473220140533
  C   1.57645751481208     -0.88408214099822     -0.53988769534378
  H   1.35103483703202     -1.37900057747545     -1.48368307198204
  H   2.61175111643240     -0.53639406264703     -0.56341154143241
  H   1.44902467137994     -1.59916562743910      0.26947416018986
  N   1.00611623513885      1.00318486323418      0.93012652382800
  O   0.98618936698998      0.33684424500659      1.96319353544173
  O   1.29275895824311      2.19451399868441      0.85395367879291
