17
Coordinates from ORCA-job run
  C   -0.91622330282766     -0.03259478266840     -0.22154285720411
  C   0.59260212043606      0.31057314301614     -0.31565897347462
  Br  -1.39263966625888     -0.58424180720116     -2.15220858067155
  H   0.69467585719922      1.13920320189935     -1.01753170327839
  N   -1.14458048760716     -1.02520475980180      0.73399082268578
  H   -2.13171634261487     -1.22946012447209      0.81493978219744
  H   -0.60255347199070     -1.86661288836096      0.60567272035716
  N   -1.81715224319208      1.04547576379108      0.04591160672794
  H   -1.61023801301200      1.44098388167031      0.95639179781667
  H   -1.74581357597005      1.76948500628082     -0.65653680305139
  C   1.53969921595497     -0.82272947232776     -0.65324764910013
  H   2.56622568449447     -0.45147429232660     -0.65702297620876
  H   1.49073163849901     -1.62272716515822      0.08444034363324
  H   1.30825636452358     -1.21634734666170     -1.64108122010688
  N   0.97351228648360      0.89763142837836      1.02266601533959
  O   1.50443780318352      0.16425147819938      1.85097675267751
  O   0.68977613269895      2.08378873574326      1.19884092166052
