17
Coordinates from ORCA-job run
  C   -0.91461772859957      0.00764566589876     -0.22924657771934
  C   0.61024993330202      0.27313698336140     -0.31659674405538
  Br  -1.40200451438234     -0.56352539643254     -2.15155437950791
  H   0.75980331548267      1.07826673083198     -1.03701634147998
  N   -1.20032409414097     -0.95038496176758      0.74581081286848
  H   -0.70074597108283     -1.82085101098477      0.64111783710084
  H   -2.19720916570369     -1.10207569714631      0.82270644134032
  N   -1.76307752287902      1.13525485722892      0.00538848114990
  H   -1.65382474570075      1.83513154858229     -0.71647109744918
  H   -1.53873110269624      1.54570720668994      0.90514500687340
  C   1.50165851646101     -0.91449210171003     -0.61736612847420
  H   2.54556930011351     -0.59535270286015     -0.62267793613643
  H   1.25743396154818     -1.32168290054307     -1.59658782218519
  H   1.40762888356575     -1.69104113741868      0.14070117521529
  N   1.00869200696503      0.87300071244709      1.01067540352370
  O   1.49683246471467      0.13556075900780      1.86131683479059
  O   0.78266646303258      2.07570144481497      1.15565503414509
