17
Coordinates from ORCA-job run
  C   -0.87335640698841     -0.18310594814401      0.15807512328182
  C   0.60411436818847      0.08357108506682     -0.23020934072432
  Br  -0.99757776281277     -0.74357979054566      2.03540892893594
  H   0.58859288471299      0.26085798167193     -1.31095548750189
  N   -1.76125291010551      0.95175240947088      0.03367549700968
  H   -1.63225250737892      1.38360863082474     -0.87679851610555
  H   -1.58084150421789      1.65416137907551      0.74123333347261
  N   -1.29234677965456     -1.30078343313081     -0.65042193082029
  H   -1.25772024143363     -1.02883482911586     -1.62951943919948
  H   -2.25979403303165     -1.50622677269064     -0.42292141090640
  C   1.59504903258378     -1.00091907791177      0.12659761495588
  H   1.21197234274553     -1.95644501537405     -0.23001118630431
  H   1.73733447947093     -1.05006933600739      1.20367137200299
  H   2.55866275711719     -0.79749739722512     -0.34622060191968
  N   1.02706560620641      1.40779437063087      0.32667713396234
  O   0.82437962235644      2.39360879328241     -0.38539732539070
  O   1.50597105224160      1.43310695012213      1.45711623525136
