17
Coordinates from ORCA-job run
  C   -0.84825389317433     -0.01642953752607     -0.35879226856357
  C   0.65830230058782      0.29137916544839     -0.38353540668935
  Br  -1.32708867989198     -0.46160795880222     -2.21980136515789
  H   0.83341805199726      1.02147959426378     -1.17257713245777
  N   -1.12964559410198     -1.19235549011058      0.42308895663556
  H   -2.11773225757038     -1.41240678501430      0.37979307282663
  H   -0.87056731835978     -1.00200554205757      1.38571254366021
  N   -1.55539549114161      1.22018687045963     -0.06711845192079
  H   -2.52218684046831      1.15175670481729     -0.36097164841792
  H   -1.53671748147649      1.37134598356746      0.93667950598569
  C   1.57098083841456     -0.91506541593174     -0.50650566154450
  H   2.60939541784041     -0.58387294834845     -0.57092713011739
  H   1.32009535266049     -1.47015552486848     -1.40986756111034
  H   1.44752737306532     -1.58002766238407      0.34739819802993
  N   1.04553764553109      1.02105593494183      0.87438272952302
  O   1.91668841814613      1.87620877715457      0.77385183682525
  O   0.50564215794180      0.68051383439052      1.93118978249321
