17
Coordinates from ORCA-job run
  C   -0.91240252604417      0.00082995888751      0.07172967876899
  C   0.59334261930068      0.18243258947483     -0.26326628369598
  Br  -1.02668981825434      0.02027526453927      2.11879200105634
  H   0.61845029281285      0.43401491801660     -1.32926685255831
  N   -1.68654107795543      0.98930918715259     -0.55148398136797
  H   -1.34068804961569      1.92461128010849     -0.38555434753157
  H   -2.65997127283896      0.89279542262196     -0.29365574465234
  N   -1.47049746666416     -1.26586639743710     -0.29346244309698
  H   -1.02090867609263     -2.04188711098009      0.17074813735958
  H   -1.44694292466117     -1.37248335912024     -1.30123581600218
  C   1.46485911599805     -1.01605164532962      0.03499536121402
  H   1.16524280291188     -1.85120555703549     -0.59884090788506
  H   1.39454907694508     -1.30514206078031      1.08320580434512
  H   2.50674226381259     -0.78446032465053     -0.18442307115279
  N   1.14151507509204      1.41600871284582      0.41078841825499
  O   0.63054487101619      2.48908813768743      0.08574531058494
  O   2.04839569423718      1.28673098399887      1.22418473635918
