17
Coordinates from ORCA-job run
  C   -0.94214811689204      0.07954338275769     -0.17296212915287
  C   0.57552522657698      0.12916171449091     -0.44387422561661
  Br  -1.70722184870067      1.59847416647611     -1.32312029066952
  H   0.72864467225544     -0.01267864950145     -1.51398212516667
  N   -1.58866484423139     -1.09394784332802     -0.68091456582969
  H   -1.44167431112574     -1.22013750310648     -1.67309150747283
  H   -1.29218475922351     -1.90747911086370     -0.15574887462657
  N   -1.24903916628058      0.17892261767726      1.18864533189771
  H   -2.25035902165327      0.15473626110518      1.32985283226716
  H   -0.82560591168697      0.98698258650452      1.62465618658958
  C   1.35780541475728     -0.88870231560198      0.37267492395467
  H   2.41709278547063     -0.83251476934217      0.11197838592405
  H   1.23403115250644     -0.70400755630403      1.43840690892186
  H   1.00883707217419     -1.89702943103864      0.14648384580562
  N   1.16359503658573      1.47911742312408     -0.16151284291943
  O   1.84295156411797      1.99153129252142     -1.04459821283135
  O   0.96741505534952      1.95802773442932      0.95610635892489
