17
Coordinates from ORCA-job run
  C   -0.92435849002780      0.05575624748355     -0.20843784224921
  C   0.59804572456133      0.29850316258073     -0.35938314302128
  Br  -1.51550771678625     -0.39908750353512     -2.12093136244063
  H   0.76456379588189      1.07381776597696     -1.10829234731640
  N   -1.35832670945508     -1.05085631640333      0.58536964034859
  H   -1.07220931874357     -1.93473650401262      0.18773206527151
  H   -0.97568310543692     -0.94906189887832      1.52015376850143
  N   -1.52916801151778      1.21255486362345      0.29874023123968
  H   -2.52519027274069      1.08172570800679      0.41376409993320
  H   -1.32043546341613      2.05301352686920     -0.22295351218292
  C   1.43021347082921     -0.93521324450848     -0.63642109254702
  H   2.48648742056223     -0.66384906579264     -0.69157714297819
  H   1.13799971515351     -1.37782273899711     -1.58790964138100
  H   1.30824226668120     -1.66652395562168      0.16183603851906
  N   1.05700911127517      0.91395589507859      0.93280792777806
  O   1.07751818901097      0.18491378380877      1.92338098079652
  O   1.36379939416872      2.10291027432127      0.91412133172861
