16

C	0.0	0.0	0.0
C	-0.492586	0.207953	-1.431693
F	1.353416	0.0	0.0
H	-1.227888	-0.54926	-1.664751
H	-0.385028	0.722288	0.702524
N	-0.371919	-1.359054	0.507811
O	-0.475706	-1.487348	1.722788
O	-0.36854	-2.285257	-0.302263
C	0.629893	0.291426	-2.461451
H	0.192179	0.404547	-3.455329
H	1.288183	1.139514	-2.25724
H	1.225311	-0.622284	-2.437009
N	-1.24598	1.494112	-1.533225
O	-2.053847	1.581767	-2.453167
O	-0.902874	2.432495	-0.817776
F	-2.35802	0.0	0.0
