16

C	0.0	0.0	0.0
C	-0.254801	0.027195	-1.521353
F	1.356701	0.0	0.0
H	0.218563	-0.879708	-1.902765
H	-0.406207	0.825363	0.563914
N	-0.397856	-1.258922	0.686486
O	-0.41315	-2.294588	0.027706
O	-0.505564	-1.189435	1.907794
C	0.404628	1.267127	-2.119193
H	0.262459	1.282123	-3.201268
H	1.472175	1.272052	-1.904987
H	-0.060288	2.166081	-1.712977
N	-1.649018	-0.046365	-2.090893
O	-2.202295	1.006669	-2.393336
O	-2.029163	-1.161206	-2.438288
F	-2.274317	0.0	0.0
