16

C	0.0	0.0	0.0
C	-0.253931	0.042292	-1.519645
F	1.356848	0.0	0.0
H	0.20364	-0.870658	-1.905789
H	-0.404786	0.819716	0.573078
N	-0.40443	-1.264999	0.67223
O	-0.51187	-1.210281	1.893846
O	-0.432528	-2.290723	0.001901
C	0.425694	1.272401	-2.115827
H	1.494758	1.259706	-1.9086
H	0.277396	1.292208	-3.197293
H	-0.019882	2.179365	-1.705382
N	-1.64741	-0.009498	-2.087772
O	-2.039545	-1.116254	-2.450551
O	-2.188858	1.053167	-2.377299
F	-2.277402	0.0	0.0
