16

C	0.0	0.0	0.0
C	-0.495595	-0.08313	-1.462099
F	1.354162	0.0	0.0
H	-1.240034	0.69855	-1.545305
H	-0.378195	0.888066	0.486536
N	-0.370501	-1.134958	0.907886
O	-0.234749	-2.28023	0.483005
O	-0.609771	-0.842289	2.073188
C	-1.084935	-1.370545	-1.996946
H	-1.966189	-1.536628	-1.383649
H	-0.391391	-2.203793	-1.951526
H	-1.383731	-1.206802	-3.03681
N	0.677225	0.339867	-2.321933
O	0.880234	1.551561	-2.431651
O	1.371009	-0.525064	-2.85443
F	-2.393792	0.0	0.0
