17

C	-0.372414	0.011666	-1.492176
C	0.0	0.0	0.0
Cl	-2.17482	0.133546	-1.700855
H	1.098199	0.0	0.0
C	0.291558	1.178045	-2.211411
H	0.068526	1.145933	-3.279226
H	1.371139	1.107873	-2.04415
H	-0.078518	2.116882	-1.7955
C	0.02063	-1.25808	-2.108755
N	0.308723	-2.282786	-2.60711
C	-0.488851	-1.221283	0.773744
H	-0.125393	-1.157693	1.80092
H	-0.0724	-2.126609	0.328257
H	-1.579258	-1.285787	0.782897
C	-0.458338	1.23644	0.626028
N	-0.842766	2.2158	1.14933
Br	3.434198	0.0	0.0
