17

C	-0.39995	-0.057126	-1.490203
C	0.0	0.0	0.0
Cl	0.015062	1.511378	-2.266979
H	1.096494	0.0	0.0
C	0.376441	-1.156161	-2.211795
H	0.187882	-1.102949	-3.285163
H	1.440583	-1.010436	-2.006806
H	0.066025	-2.138594	-1.851138
C	-1.845883	-0.246366	-1.642046
N	-2.998648	-0.450089	-1.749392
C	-0.446695	-1.24632	0.774057
H	0.046338	-2.133771	0.375981
H	-0.131172	-1.139858	1.813319
H	-1.53142	-1.381563	0.747658
C	-0.529645	1.19385	0.650145
N	-0.979415	2.114457	1.225157
Br	3.469606	0.0	0.0
