17

C	-0.366493	0.017055	-1.493865
C	0.0	0.0	0.0
Cl	-2.165732	0.17375	-1.710439
H	1.098163	0.0	0.0
C	0.324636	1.169263	-2.210718
H	-0.026985	2.115573	-1.795693
H	0.105287	1.141674	-3.279366
H	1.401918	1.077013	-2.038644
C	0.003626	-1.261148	-2.107467
N	0.27421	-2.292669	-2.602475
C	-0.496698	-1.220432	0.769425
H	-0.144206	-1.15702	1.800513
H	-1.587419	-1.283384	0.76728
H	-0.077129	-2.126406	0.328331
C	-0.455602	1.237461	0.626002
N	-0.837705	2.21718	1.150281
Br	3.440302	0.0	0.0
