17

C	-0.402318	-0.048847	-1.489151
C	0.0	0.0	0.0
Cl	0.063409	1.506279	-2.266174
H	1.096489	0.0	0.0
C	0.336894	-1.173252	-2.208405
H	0.157635	-1.109246	-3.282415
H	-0.013431	-2.144554	-1.852724
H	1.404251	-1.066807	-1.997644
C	-1.853862	-0.189975	-1.638957
N	-3.013995	-0.347071	-1.745384
C	-0.450944	-1.248597	0.767061
H	0.060972	-2.130695	0.381919
H	-1.533487	-1.395297	0.716257
H	-0.161373	-1.137664	1.813456
C	-0.527057	1.193618	0.652194
N	-0.969555	2.116193	1.229335
Br	3.470873	0.0	0.0
