17

C	-0.400898	-0.046226	-1.489714
C	0.0	0.0	0.0
Cl	0.074435	1.506302	-2.265242
H	1.096453	0.0	0.0
C	0.33121	-1.176022	-2.207553
H	1.398803	-1.077661	-1.994802
H	0.1547	-1.111278	-3.282204
H	-0.027271	-2.144085	-1.852974
C	-1.852876	-0.178158	-1.641098
N	-3.013403	-0.327852	-1.754007
C	-0.452707	-1.247861	0.767234
H	-0.165556	-1.136249	1.814227
H	0.059778	-2.130509	0.383912
H	-1.535317	-1.394202	0.714406
C	-0.524891	1.1947	0.652016
N	-0.969277	2.117402	1.227594
Br	3.472002	0.0	0.0
