17

C	-0.50501	0.013405	-1.460663
C	0.0	0.0	0.0
Cl	0.224116	-1.373951	-2.342455
H	1.095884	0.0	0.0
C	-2.023772	-0.093571	-1.575168
H	-2.323161	-0.041123	-2.623034
H	-2.360387	-1.045375	-1.163433
H	-2.49274	0.727978	-1.027569
C	-0.06818	1.237719	-2.13915
N	0.182037	2.233841	-2.710372
C	-0.439532	-1.229544	0.800375
H	-0.131872	-2.137387	0.280716
H	0.078341	-1.207265	1.760816
H	-1.516418	-1.253842	0.983815
C	-0.481592	1.212561	0.658548
N	-0.921768	2.154889	1.206556
Br	3.438587	0.0	0.0
