17

C	-0.364117	0.022301	-1.495344
C	0.0	0.0	0.0
Cl	-2.158714	0.204446	-1.715058
H	1.09817	0.0	0.0
C	0.344592	1.163662	-2.211477
H	1.419694	1.054571	-2.039285
H	0.124882	1.140268	-3.279813
H	0.008348	2.115329	-1.795491
C	-0.011378	-1.261237	-2.108883
N	0.246518	-2.296566	-2.603362
C	-0.503251	-1.219935	0.765156
H	-1.593955	-1.283258	0.750646
H	-0.07856	-2.125954	0.329451
H	-0.16334	-1.155789	1.800398
C	-0.453145	1.237528	0.628046
N	-0.835977	2.215923	1.154194
Br	3.442668	0.0	0.0
