17

C	-0.397278	-0.054864	-1.490959
C	0.0	0.0	0.0
Cl	0.040215	1.504994	-2.26935
H	1.096477	0.0	0.0
C	0.366731	-1.166525	-2.205469
H	0.18576	-1.11122	-3.280332
H	0.03819	-2.143288	-1.846382
H	1.431781	-1.037008	-1.992278
C	-1.845516	-0.2254	-1.648136
N	-3.000935	-0.413396	-1.757875
C	-0.447233	-1.24844	0.770199
H	-1.53082	-1.390039	0.733215
H	-0.142542	-1.140182	1.812639
H	0.055426	-2.132272	0.376739
C	-0.530962	1.19284	0.651127
N	-0.983399	2.109486	1.230114
Br	3.466413	0.0	0.0
