17

C	-0.505008	0.00111	-1.460554
C	0.0	0.0	0.0
Cl	0.225142	-1.392972	-2.330998
H	1.095851	0.0	0.0
C	-2.023844	-0.107081	-1.574502
H	-2.322916	-0.062419	-2.622794
H	-2.360285	-1.056058	-1.155897
H	-2.493203	0.718386	-1.032974
C	-0.068027	1.220136	-2.148638
N	0.183656	2.211445	-2.7274
C	-0.439686	-1.222468	0.810995
H	0.077961	-1.191747	1.771464
H	-0.131928	-2.134812	0.299369
H	-1.516723	-1.245093	0.994403
C	-0.481651	1.218211	0.648167
N	-0.92413	2.164086	1.187962
Br	3.438998	0.0	0.0
