14

C	0.0	0.0	0.0
C	-0.471755	-0.062073	-1.436185
F	1.389555	0.0	0.0
H	-0.254373	-1.082819	-1.782254
H	-1.561932	0.064678	-1.378443
C	-0.310276	1.341436	0.593008
N	-0.446493	2.370737	1.141746
N	-0.55413	-1.086444	0.728114
H	-0.382412	-0.939257	1.719021
H	-1.588362	-0.950371	0.584735
N	0.14994	0.998234	-2.223281
H	-0.395888	1.157005	-3.058832
H	1.081411	0.721259	-2.50083
H	-3.052424	0.0	0.0
