14

C	0.0	0.0	0.0
C	-0.486507	0.26799	-1.431299
F	1.374427	0.0	0.0
H	-1.475484	0.726141	-1.341995
H	0.227275	0.97349	-1.872418
C	-0.308283	1.206849	0.841131
N	-0.431835	2.166294	1.508651
N	-0.553968	-1.202833	0.508582
H	-1.588163	-1.025568	0.399342
H	-0.367376	-1.254136	1.50655
N	-0.624955	-0.918167	-2.267534
H	0.104928	-1.576681	-2.017998
H	-1.499898	-1.352161	-1.985194
H	-2.986478	0.0	0.0
