16

C	-0.546497	0.011508	-1.431563
C	0.0	0.0	0.0
Br	0.207421	1.403457	-2.545526
H	1.094123	0.0	0.0
H	-1.626507	0.156316	-1.439285
N	-0.341702	-1.311234	-2.113018
O	-1.359792	-2.000771	-2.234181
O	0.793946	-1.640038	-2.425811
C	-0.494788	-1.243313	0.730297
H	-0.141586	-1.175634	1.759443
H	-1.589767	-1.306637	0.735374
H	-0.092034	-2.15699	0.28949
N	-0.414623	1.196261	0.723023
H	-1.386707	1.419626	0.541389
H	0.157121	1.978681	0.434187
Br	3.624231	0.0	0.0
