16

C	-0.372421	-0.013409	-1.463387
C	0.0	0.0	0.0
Br	-2.292472	0.064972	-1.811127
H	1.103967	0.0	0.0
H	-0.005367	-0.917058	-1.944589
N	0.250268	1.109963	-2.253241
O	0.173223	2.246681	-1.800297
O	0.780509	0.798574	-3.315508
C	-0.438054	-1.305238	0.648946
H	-0.033817	-2.166471	0.111094
H	-1.527414	-1.370832	0.69858
H	-0.036154	-1.342915	1.664984
N	-0.582378	1.121515	0.734679
H	-0.267152	1.981604	0.300155
H	-0.160484	1.102737	1.658549
Br	3.551183	0.0	0.0
