16

C	-0.57949	0.023509	-1.403823
C	0.0	0.0	0.0
Br	0.140097	1.449763	-2.497999
H	1.099152	0.0	0.0
H	-1.656792	0.165035	-1.36776
N	-0.359273	-1.287639	-2.097085
O	0.784476	-1.610271	-2.384881
O	-1.371464	-1.972445	-2.267665
C	-0.488117	-1.244005	0.73091
H	-0.089175	-2.151297	0.275388
H	-0.114491	-1.214807	1.757658
H	-1.58099	-1.292803	0.751673
N	-0.533838	1.197697	0.674674
H	-0.302919	1.102719	1.65902
H	0.013232	1.991436	0.35218
Br	3.641938	0.0	0.0
