17

C	0.0	0.0	0.0
C	-0.541068	0.07791	-1.421791
Br	1.955667	0.0	0.0
H	-1.625306	-0.084564	-1.305245
H	-0.290469	-0.958681	0.426101
C	-0.478985	1.159028	0.856617
H	-1.567952	1.211757	0.79154
H	-0.030716	2.097958	0.525317
H	-0.188753	0.996842	1.896772
N	-0.03401	-1.112736	-2.188372
O	-0.219619	-2.215939	-1.679596
O	0.529482	-0.930097	-3.268459
C	-0.259882	1.36471	-2.164379
H	-0.802393	2.175028	-1.676092
H	0.806824	1.595281	-2.183964
H	-0.613269	1.29191	-3.192057
Cl	-3.704706	0.0	0.0
