17

C	0.0	0.0	0.0
C	-0.477464	0.048216	-1.462527
Br	2.069185	0.0	0.0
H	-1.546699	0.307752	-1.379295
N	-0.442138	1.107229	0.727051
H	-0.201408	1.989032	0.300285
H	-0.186094	1.061085	1.701753
N	-0.425962	-1.255672	0.551413
H	-0.056895	-1.355079	1.489474
H	-1.450437	-1.165084	0.603916
N	-0.18916	-1.169554	-2.14624
H	-0.901163	-1.349346	-2.840682
H	-0.202154	-1.908203	-1.451679
N	0.126023	1.207871	-2.244909
O	0.228575	2.299552	-1.682153
O	0.381799	1.015494	-3.426897
Cl	-3.594621	0.0	0.0
