17

C	0.0	0.0	0.0
C	-0.483986	0.183556	-1.460928
Cl	1.792351	0.0	0.0
H	-1.580307	0.116338	-1.393564
N	-0.487103	1.145012	0.735704
H	-1.510601	1.067103	0.705803
H	-0.209488	1.045481	1.706927
C	-0.436097	-1.347057	0.561105
H	-0.099578	-1.432807	1.598436
H	-1.527546	-1.387489	0.532389
H	-0.012572	-2.175922	-0.009726
C	-0.014514	-0.918768	-2.307904
N	0.372974	-1.795118	-2.986523
N	-0.135698	1.452417	-2.082974
H	-0.575611	2.173954	-1.521751
H	0.866726	1.585875	-1.986943
Cl	-3.648501	0.0	0.0
