17

C	0.0	0.0	0.0
C	-0.304299	0.288371	-1.525084
Cl	1.802854	0.0	0.0
H	0.395782	-0.326536	-2.100658
N	-0.51019	0.953993	0.934031
H	-0.317647	1.901556	0.627257
H	-1.520917	0.829435	0.995088
C	-0.492763	-1.383645	0.375118
H	-0.116077	-2.131747	-0.325975
H	-1.586143	-1.381692	0.365773
H	-0.144512	-1.626427	1.379766
C	0.052376	1.69258	-1.800005
N	0.320477	2.818771	-1.995075
N	-1.629856	0.029353	-2.032036
H	-2.364479	0.39603	-1.424327
H	-1.783386	-0.971342	-2.042816
Cl	-4.029979	0.0	0.0
