17

C	0.0	0.0	0.0
C	-0.467418	0.210523	-1.454081
Cl	1.819412	0.0	0.0
H	-1.563989	0.16672	-1.373959
N	-0.471502	1.044741	0.858128
H	-0.381362	1.919819	0.348657
H	-1.473256	0.877076	0.98314
C	-0.443327	-1.350604	0.527167
H	-0.025251	-2.162083	-0.070578
H	-1.535366	-1.391155	0.500445
H	-0.098809	-1.45084	1.557524
C	-0.021985	-0.865611	-2.354682
N	0.31828	-1.690834	-3.119844
N	-0.089479	1.537311	-1.928254
H	0.872309	1.529711	-2.245194
H	-0.682698	1.797779	-2.70562
Cl	-3.673625	0.0	0.0
