16

C	-0.34469	0.025712	-1.471961
C	0.0	0.0	0.0
Br	-2.313486	0.435396	-1.763737
H	1.097171	0.0	0.0
H	-0.308962	0.962286	0.424366
C	0.47912	1.082889	-2.18627
H	0.297912	1.083201	-3.262851
H	1.532413	0.863077	-1.955278
H	0.237657	2.065954	-1.776883
C	-0.162924	-1.282292	-2.099198
N	-0.013024	-2.334613	-2.602026
C	-0.55695	-1.163067	0.79771
H	-0.219372	-1.081969	1.834368
H	-0.181006	-2.11277	0.408985
H	-1.651347	-1.189599	0.788718
H	2.905891	0.0	0.0
