16

C	-0.549759	-0.005142	-1.419766
C	0.0	0.0	0.0
Br	0.136459	-1.609704	-2.361791
H	1.093295	0.0	0.0
H	-0.334895	-0.927445	0.480748
C	-2.07453	-0.071806	-1.492181
H	-2.416984	-0.149543	-2.52583
H	-2.501998	0.829794	-1.045956
H	-2.42145	-0.944771	-0.934676
C	-0.096496	1.156136	-2.187773
N	0.152795	2.127528	-2.801561
C	-0.452012	1.218806	0.801465
H	-1.521733	1.231397	1.034636
H	0.106261	1.225701	1.741617
H	-0.196508	2.144446	0.278374
H	2.938341	0.0	0.0
