16

C	-0.442451	-0.02907	-1.457595
C	0.0	0.0	0.0
Br	0.057058	1.660348	-2.372682
H	1.094691	0.0	0.0
H	-0.311029	-0.969385	0.415619
C	0.255424	-1.173218	-2.186826
H	1.331919	-1.062558	-2.022765
H	0.019146	-1.172396	-3.252698
H	-0.072113	-2.120402	-1.746166
C	-1.899122	-0.110764	-1.590308
N	-3.067907	-0.226179	-1.66349
C	-0.562071	1.131561	0.843131
H	-1.657384	1.143872	0.86423
H	-0.208048	2.096246	0.475789
H	-0.197697	1.0201	1.867412
H	3.006921	0.0	0.0
