16

C	-0.554931	0.007119	-1.41739
C	0.0	0.0	0.0
Br	0.156914	-1.570411	-2.389528
H	1.093292	0.0	0.0
H	-0.331424	-0.935497	0.468379
C	-2.080324	-0.087799	-1.482724
H	-2.521629	0.796331	-1.014779
H	-2.408027	-0.978392	-0.941886
H	-2.427102	-0.151455	-2.517202
C	-0.12812	1.190774	-2.168436
N	0.113028	2.190928	-2.738007
C	-0.454622	1.206211	0.819663
H	0.114838	1.207544	1.749049
H	-1.520788	1.205091	1.061776
H	-0.213936	2.141462	0.306711
H	2.939836	0.0	0.0
