16
Coordinates from ORCA-job run
  C   -0.41083946678626     -0.18989869534322      0.21486427355813
  C   0.90251559215308      0.50215436233721      0.56938988503065
  F   -0.53307195838651     -1.29671508268198      1.06202785451558
  H   0.97601638189187      1.47199423947330      0.07948516083371
  H   0.98377796767099      0.59451341584040      1.65215979949583
  C   -0.44943877433214     -0.70379209341313     -1.20932408415197
  H   -0.25464997190251      0.09727206460173     -1.92470759129170
  H   0.29750092863152     -1.48522063468108     -1.35392544905957
  H   -1.43364198136272     -1.13056343496682     -1.41035524066478
  C   -1.56222081212025      0.74687927571708      0.53032546876368
  H   -2.50431876925797      0.21015763151300      0.40551161058839
  H   -1.56079365769310      1.61073213984393     -0.13765977341709
  H   -1.50222385324444      1.09534064442007      1.56380032118057
  N   2.06855170476884     -0.29773611198475      0.11056320164706
  O   2.53464169665963     -0.01920584311809     -0.99458704445468
  O   2.44919497330997     -1.20691187755765      0.84343160742621
