16
Coordinates from ORCA-job run
  C   -0.33595130562046     -0.36210709861684      0.08296382694560
  C   1.15994151166190     -0.15825635923472     -0.14256254938636
  F   -0.47221599440337     -1.20121036914735      1.19437380701382
  H   1.34691110904674      0.33092646788246     -1.09738684632278
  H   1.67037136857862     -1.11899598665234     -0.07955678967772
  C   -0.91812380844140     -1.09785729478598     -1.10955512556176
  H   -0.89142200930810     -0.47605061392452     -2.00681882165107
  H   -1.95592090281485     -1.36019700378650     -0.89671428160325
  H   -0.36473919933485     -2.02039835016148     -1.29868586921796
  C   -1.07386308518602      0.92346043580266      0.39387604937381
  H   -0.92422678240683      1.66571841640043     -0.39231579166307
  H   -0.72659935280969      1.34499945453348      1.33784344789948
  H   -2.14047590122479      0.71130669527535      0.48617030164974
  N   1.74442491223758      0.71614696896912      0.90800468027950
  O   2.06582832606580      0.18370903323905      1.96711977699288
  O   1.81706111395972      1.91880560420718      0.65424418492911
