16
Coordinates from ORCA-job run
  C   -0.47449491157492     -0.34367312879136      0.28043159906982
  C   0.96112799108614     -0.23137346078063      0.80218056968285
  F   -1.08613514992658     -1.18346662633967      1.22750300378672
  H   0.96031164325777      0.22070077379742      1.79295490791316
  H   1.42584762570325     -1.21608610596831      0.82139225223087
  C   -0.55688006519091     -1.04048404859592     -1.06055963877532
  H   -0.04935127102436     -2.00588467952902     -1.02046740654523
  H   -1.60596498426812     -1.20868962010318     -1.31123525328917
  H   -0.09910819292266     -0.44262468064784     -1.84956060439634
  C   -1.21154260816555      0.97797467155988      0.30662792369071
  H   -1.16158960107918      1.42259699502158      1.30212646694795
  H   -2.25968546961062      0.80689307058902      0.05394872646224
  H   -0.78898411939616      1.68474010577486     -0.40851086035017
  N   1.78340325715848      0.63319622286785     -0.08216146441888
  O   1.79819226810930      1.83860377131680      0.16520805078775
  O   2.36585358784411      0.08757673982851     -1.01887827279695
