16
Coordinates from ORCA-job run
  C   -0.47035444178665     -0.34516202852648      0.28544182836335
  C   0.97673919684429     -0.24811923857000      0.77773135129930
  F   -1.06637542743529     -1.19503068201669      1.23348019969254
  H   1.43652137400219     -1.23532178041562      0.77161895773280
  H   0.99968489729093      0.18842902694071      1.77517381934848
  C   -0.58535398460892     -1.02251240666529     -1.06313228250174
  H   -1.64050509286856     -1.18144690986759     -1.29359986655350
  H   -0.14098211210907     -0.41623199647274     -1.85335617108900
  H   -0.08280987273708     -1.99122163519163     -1.04721655872886
  C   -1.19909641280842      0.97992963742844      0.34594462533697
  H   -1.12516603071209      1.41046000313668      1.34612923456893
  H   -2.25336887812838      0.81809647943648      0.11350013822223
  H   -0.78796040549720      1.69426942137903     -0.36833747603731
  N   1.78440964118071      0.62585148748600     -0.11081974994444
  O   2.34335118619412      0.09186063595257     -1.06834467599253
  O   1.81126636317942      1.82714998596613      0.15478662628276
