16
Coordinates from ORCA-job run
  C   -0.37245752809595      0.33145370980971     -0.06074292410794
  C   0.88764175662462      0.10446801214391      0.77041705579947
  F   -0.31954390423254      1.64656366726873     -0.53556309550081
  H   0.82317441239028     -0.82778536844337      1.32958533082231
  H   1.04376633031888      0.95656778617896      1.43157229566238
  C   -1.58516660269841      0.22944749194827      0.84562513516101
  H   -1.48287468621816      0.90060653837276      1.70132170364770
  H   -1.72023250213962     -0.79170988969428      1.20815657969332
  H   -2.47545230264480      0.52285048802487      0.28663733900193
  C   -0.46487191886651     -0.58095700927060     -1.26598045184373
  H   -0.40853691345822     -1.63087078508632     -0.97279123884757
  H   -1.41205139747377     -0.40362473378544     -1.77840148431526
  H   0.34568814978180     -0.37311985888376     -1.96550248297084
  N   2.08894066913847     -0.00114142259137     -0.09917209420718
  O   2.44018799377929     -1.13456399438083     -0.42773332779032
  O   2.60978844379463      1.04881536838877     -0.46642834020443
