18

C	-0.362434	-0.041017	-1.485968
C	0.0	0.0	0.0
F	-0.098992	1.289922	-1.970857
H	1.090411	0.0	0.0
N	0.518121	-0.963285	-2.102303
H	0.421081	-0.922209	-3.109473
H	1.480979	-0.739212	-1.850563
N	-1.724489	-0.359128	-1.754011
H	-1.874279	-0.351209	-2.756093
H	-2.296744	0.362163	-1.332786
C	-0.529023	-1.18491	0.782192
H	-0.168157	-2.09378	0.301164
H	-0.141675	-1.150989	1.80336
H	-1.619199	-1.195556	0.791952
N	-0.508967	1.255121	0.617102
O	0.268071	1.955763	1.254123
O	-1.717139	1.49078	0.488773
Br	3.559365	0.0	0.0
