18

C	-0.375591	-0.052769	-1.490233
C	0.0	0.0	0.0
F	-0.137852	1.254348	-1.965587
H	1.090945	0.0	0.0
N	0.498635	-0.896651	-2.248427
H	1.465166	-0.676597	-2.009266
H	0.319883	-1.86142	-2.003752
N	-1.718089	-0.451196	-1.725276
H	-2.336197	0.175557	-1.224495
H	-1.887465	-0.383123	-2.721652
C	-0.498356	-1.184916	0.805482
H	-0.119401	-1.112072	1.82769
H	-1.586816	-1.239352	0.811817
H	-0.098318	-2.103004	0.371857
N	-0.528863	1.247011	0.619631
O	0.248222	2.011872	1.176719
O	-1.753658	1.41826	0.554744
Br	3.548267	0.0	0.0
