13
Coordinates from ORCA-job run
  C   0.82492968246953     -0.08840963552029      0.40553758509616
  C   -0.53077477770154     -0.24907595819678     -0.29482593743092
  Cl  1.58952461026096     -1.73862423298300      0.50733985564392
  H   -0.34242970158648     -0.72211909529237     -1.26510507372762
  H   0.66542421401200      0.21280877149523      1.44255008154810
  N   1.62062362814318      0.87970418496312     -0.25569449076297
  H   2.46014762654617      1.09173829704114      0.26620702445266
  H   1.88439623421798      0.57192320923624     -1.18377625344048
  C   -1.10975703873969      1.08813069642167     -0.53963494487803
  N   -1.67079282645665      2.10810516966167     -0.69743406944233
  N   -1.41216460538439     -1.11882568481192      0.46336093162028
  H   -1.78984190558283     -0.62161992951401      1.26145675342616
  H   -2.19128514019825     -1.41373579250071     -0.11098146210494
