13
Coordinates from ORCA-job run
  C   0.93932047627929      0.10710624323786     -0.27831837037827
  C   -0.48685589704519     -0.44522480266963     -0.24204522002252
  Cl  0.81592126796401      1.93480821066501     -0.52660472447659
  H   -0.37484850851162     -1.52765852122400     -0.12122375984509
  H   1.46233012337345     -0.23681309447701     -1.17031601343671
  N   1.61333079445815     -0.28684562664486      0.89241816608647
  H   2.55429879331810      0.07844142348148      0.93840419897253
  H   1.08110871552361     -0.01607738006101      1.71017388365684
  C   -1.18564701191984     -0.20650233874153     -1.51785329865769
  N   -1.78536570252952     -0.02856687994371     -2.51174167587385
  N   -1.17537913439436      0.06573212731753      0.93310680601492
  H   -2.01430080839444     -0.47175301706891      1.11031919140020
  H   -1.44291310812162      1.03135365612877      0.78268081655978
