13

C	-0.348839	-0.043498	-1.502052
C	0.0	0.0	0.0
Cl	-0.113834	1.595247	-2.198811
H	1.093927	0.0	0.0
H	-0.310607	-0.956688	0.43582
N	0.509253	-0.956386	-2.224102
H	0.32441	-1.899817	-1.894265
H	1.473163	-0.731632	-1.965799
C	-1.754564	-0.41791	-1.716293
N	-2.870203	-0.762329	-1.843465
C	-0.606366	1.084216	0.750914
N	-1.120761	1.941179	1.367075
Cl	3.293424	0.0	0.0
