13

C	-0.563405	0.025608	-1.422677
C	0.0	0.0	0.0
Cl	0.170062	-1.364567	-2.355496
H	1.091321	0.0	0.0
H	-0.338076	0.911119	0.503637
N	-1.993627	-0.017706	-1.407113
H	-2.358582	-0.046739	-2.352461
H	-2.300128	-0.850593	-0.91446
C	-0.138516	1.252391	-2.113115
N	0.16521	2.227713	-2.692084
C	-0.529186	-1.152791	0.718015
N	-1.017324	-2.068186	1.268806
Cl	3.290979	0.0	0.0
