13

C	-0.304994	0.091073	-1.50694
C	0.0	0.0	0.0
Cl	-2.063331	0.421599	-1.787616
H	1.095061	0.0	0.0
H	-0.39019	-0.913039	0.453743
N	0.462664	1.104469	-2.19047
H	0.238831	2.003467	-1.773191
H	1.447339	0.915967	-1.98557
C	-0.028315	-1.217229	-2.119029
N	0.170302	-2.269157	-2.601609
C	-0.479786	1.177926	0.706297
N	-0.863237	2.138299	1.262595
Cl	3.267346	0.0	0.0
