13

C	-0.580411	-0.093021	-1.422628
C	0.0	0.0	0.0
Cl	0.023454	-1.622252	-2.134104
H	1.092977	0.0	0.0
H	-0.31861	-0.896665	0.544149
N	-2.031404	-0.116907	-1.506284
H	-2.390097	0.765537	-1.150683
H	-2.373175	-0.862615	-0.907644
C	-0.11487	1.027177	-2.254152
N	0.195391	1.934799	-2.931907
C	-0.556529	1.173121	0.663665
N	-1.07016	2.107309	1.158308
Cl	3.289751	0.0	0.0
