13

C	-0.353491	-0.102413	-1.487876
C	0.0	0.0	0.0
Cl	-0.097597	1.558474	-2.26263
H	1.092315	0.0	0.0
H	-0.320376	-0.931562	0.476848
N	0.464302	-1.116352	-2.036184
H	0.388766	-1.157724	-3.043764
H	1.435636	-0.970378	-1.755024
C	-1.774714	-0.398765	-1.712752
N	-2.915603	-0.643763	-1.851309
C	-0.588025	1.131926	0.691146
N	-1.08015	2.016741	1.285223
Cl	3.295357	0.0	0.0
