13

C	-0.368309	0.155105	-1.481737
C	0.0	0.0	0.0
Cl	-2.171021	0.187723	-1.662109
H	1.091252	0.0	0.0
H	-0.363037	-0.945824	0.409332
N	0.171551	1.336567	-2.112173
H	-0.170603	2.151884	-1.61294
H	1.184728	1.30229	-1.996169
C	0.110234	-1.026574	-2.218473
N	0.50338	-1.963921	-2.807873
C	-0.496343	1.113382	0.795294
N	-0.923715	2.019894	1.409151
Cl	3.314687	0.0	0.0
