13

C	-0.512744	-0.043537	-1.436187
C	0.0	0.0	0.0
Cl	-2.394619	-0.301919	-1.336679
H	1.093674	0.0	0.0
H	-0.344572	-0.885451	0.536682
N	-0.166008	1.102466	-2.156374
H	-0.371301	1.958423	-1.658647
H	-0.531233	1.11577	-3.097584
C	-0.052908	-1.247682	-2.133677
N	0.274718	-2.206679	-2.726511
C	-0.494827	1.19744	0.667281
N	-0.908995	2.17661	1.165637
Cl	3.280307	0.0	0.0
