16
Coordinates from ORCA-job run
  C   -0.52980332222060     -0.71428852814404     -0.21997343223478
  C   0.83105538735177     -0.01188982966019     -0.45386969254109
  Cl  -0.95005196138746     -1.52230512860619     -1.76627538225974
  H   1.53093955285175     -0.73214412741809     -0.87676791690472
  C   -0.39651147572967     -1.75807899071228      0.79666689278135
  N   -0.32633920996282     -2.58012168957266      1.63367426747873
  C   -1.65014088155120      0.24845750345898      0.15094480196471
  H   -2.57594885037277     -0.30936477143508      0.29210503859492
  H   -1.40564402772741      0.77571982860672      1.07468738309211
  H   -1.79440571803348      0.96118402207687     -0.66091116877770
  N   1.41877778970997      0.32183953012738      0.92255218341059
  O   1.02551633725680      1.36154709344779      1.45046582816267
  O   2.23044268711618     -0.46993351238696      1.39090159043759
  N   0.69409250709828      1.12706897233722     -1.28213914900932
  H   1.58034129234117      1.39320702429808     -1.68924328103515
  H   0.31767989325950      1.90910260358245     -0.76081796316018
