16
Coordinates from ORCA-job run
  C   -0.53769274071526     -0.68182606290445     -0.00708209274490
  C   0.60750051957966      0.21433613466510     -0.52882266679575
  Cl  -0.56297749990002     -2.24115916205660     -0.89100270641367
  H   0.65430280568253      0.10992682091482     -1.61635093566676
  C   -0.35500112737478     -0.93038713770493      1.42362036165148
  N   -0.24719405859362     -1.04921933989718      2.58793165046371
  C   -1.88934665394840     -0.00893795052032     -0.24690715811048
  H   -1.96746914921456      0.91142242508107      0.32823195076809
  H   -1.98911596390817      0.23017531406391     -1.30681418223343
  H   -2.68511321502026     -0.69693679926738      0.04032527564187
  N   1.98616187479008     -0.31283040399585     -0.04343070557118
  O   2.83661798865457      0.54843776148602      0.16073208174113
  O   2.14611523520134     -1.52168439851398      0.05885901388963
  N   0.40712157859467      1.57133276894140     -0.17084370323714
  H   0.49913832149744      1.69942103452588      0.83124080981090
  H   1.09695208467477      2.15892899518249     -0.61968699319349
