16
Coordinates from ORCA-job run
  C   -0.47681193633839     -0.61734337598245      0.09041078649493
  C   0.68453494247825      0.22099560074327     -0.49850188252169
  Cl  -0.33648257661721     -2.30420276494148     -0.49520692660730
  H   0.57522194007807      0.23334368492490     -1.58370064354605
  C   -0.44142825463643     -0.61100966601318      1.55259724803257
  N   -0.48886346114209     -0.53259872841068      2.72422058173431
  C   -1.81074245891637     -0.04763399275505     -0.38621012949299
  H   -1.94139572908995      0.97018335505319     -0.01421156536160
  H   -1.84208640796497     -0.04982533701923     -1.47772848493503
  H   -2.62989903945988     -0.66089547034671     -0.01060164877144
  N   1.99273255245343     -0.47982215759272     -0.24055395397224
  O   2.61027282149485     -0.90363004216703     -1.21079791434493
  O   2.33748406018475     -0.54186994091182      0.93574805322589
  N   0.81825674452632      1.54626901744785      0.00924242498915
  H   0.77866870083370      1.58488424486593      1.01981159182778
  H   0.17053810211593      2.19415557310523     -0.41251753675135
