16
Coordinates from ORCA-job run
  C   -0.49796476467509     -0.45126441128162      0.42338923235989
  C   0.53644225372781      0.62525382138451      0.02976018862941
  Cl  0.35034293262304     -1.98412795122561      0.82106606712760
  H   -0.01164260668078      1.54738696100089     -0.17742482342609
  C   -1.15479387657105      0.03246125468619      1.63936620215065
  N   -1.74423446055385      0.42825025189371      2.57526147105943
  C   -1.54352693509772     -0.73639129794609     -0.64886304999514
  H   -2.03421721977418      0.19229772879341     -0.94721481119014
  H   -1.08304708162557     -1.18955440061740     -1.52524605016924
  H   -2.28845947508521     -1.42318838490163     -0.24656318255957
  N   1.12947150816077      0.24528181211437     -1.33459446668037
  O   2.19863852635192     -0.35645991021228     -1.33321614711737
  O   0.48427891168759      0.58187419966247     -2.32519369017718
  N   1.49799428707442      0.82555468186715      1.03998906469154
  H   2.06083511660137      1.64658318625620      0.86419887660876
  H   2.09888288383654      0.01804245852573      1.14328511868781
