16
Coordinates from ORCA-job run
  C   -0.54507479415351     -0.48823390250482      0.30889985431954
  C   0.67462837888194      0.44638496707570      0.15938561732388
  Cl  -0.06369339281347     -2.17364870798362     -0.08643903144090
  H   0.35263935761961      1.45364770896218      0.43413750945759
  C   -0.92725334466408     -0.44487419167845      1.72176111321063
  N   -1.29666189208772     -0.37407037459984      2.83469037489398
  C   -1.73792881581723     -0.10541889126529     -0.56003439280893
  H   -2.58179915058590     -0.74867486244804     -0.30987777446371
  H   -1.50092479876446     -0.22935337140905     -1.61549608036785
  H   -2.01260819522457      0.93563102639414     -0.37862383859719
  N   1.00381264986036      0.57012757707506     -1.33541185132732
  O   1.88325854089354     -0.16166382717917     -1.77846749895437
  O   0.35922154949076      1.40160831245992     -1.97114042110146
  N   1.75921686097523      0.02851913819390      0.95538928511193
  H   2.15041356211232     -0.84248436127054      0.62079948747066
  H   2.48375348427717      0.73150376017792      1.00142764727352
