16
Coordinates from ORCA-job run
  C   -0.59116881736020     -0.60949271102462     -0.14834240180423
  C   0.78075358972563      0.02494321601574     -0.45778960121619
  Cl  -1.21235152477012     -1.18576130853170     -1.74603700741041
  H   1.38382162843044     -0.71123020525141     -0.99968260587950
  C   -0.38303344117375     -1.79049867786314      0.68861672003070
  N   -0.21031609673669     -2.72402585203511      1.38117857445109
  C   -1.62994026253170      0.32108317171161      0.46179970012379
  H   -2.57652724013693     -0.21325318463957      0.54963854702109
  H   -1.29800196705837      0.64831512624957      1.44454798777986
  H   -1.76381382191073      1.19530997707662     -0.17250774379219
  N   1.56466521227816      0.23506439646071      0.82313423170687
  O   1.02309551730340      0.83365215250059      1.74501454341255
  O   2.71697515515435     -0.19414512972046      0.81297170348960
  N   0.63436153644143      1.30797130715775     -1.08316623682702
  H   1.53636315395754      1.63491255291899     -1.41090605858620
  H   0.02511737838752      1.22515516897442     -1.88847035249980
