16
Coordinates from ORCA-job run
  C   -0.52298272041552     -0.34302748521056      0.40260138593278
  C   0.61574512873164      0.59245480109076     -0.10977449972990
  Cl  0.17875782204374     -1.75250823555561      1.25912346095017
  H   0.12907084337666      1.45154346039833     -0.57628957594131
  C   -1.25960296794708      0.45561280344401      1.38377238683025
  N   -1.84006638576152      1.14520701879402      2.13806168777761
  C   -1.45747951340136     -0.83825883843315     -0.69398425806450
  H   -2.28668961051307     -1.38769247030620     -0.24738616335181
  H   -0.92300585442642     -1.50006352810726     -1.37459608975554
  H   -1.84940053182153      0.00834722608099     -1.26187978774096
  N   1.31917601207366     -0.11479501119955     -1.24009135733724
  O   2.28200145303737     -0.81348292386856     -0.94609443862650
  O   0.84869500143475      0.04637919297407     -2.36476778423393
  N   1.58550369176705      1.03395325237058      0.82726425888510
  H   1.21227672421511      1.74914040540894      1.43592281580954
  H   1.96900090760653      0.26919033211920      1.36611795859623
