16
Coordinates from ORCA-job run
  C   -0.52283606338854     -0.40421798805755      0.34159356389612
  C   0.69127015498779      0.51419858839750     -0.00001244981189
  Cl  0.02222602206819     -2.10264334752811      0.51855842831646
  H   0.30838222083701      1.53594119703406     -0.04461291360115
  C   -0.99114297711366      0.05426652231362      1.65065794040687
  N   -1.35190536363329      0.47827434893553      2.68576650412248
  C   -1.65079854147436     -0.34490103199444     -0.68070961426748
  H   -1.32172068657611     -0.76572438495489     -1.63019699919289
  H   -2.50364424601445     -0.91943561283504     -0.31816225779711
  H   -1.95549953545747      0.69140013231761     -0.84205660257150
  N   1.12301655263991      0.20054022883052     -1.40995447650514
  O   1.97762718801317     -0.66643225805425     -1.55032268153300
  O   0.55789804751726      0.82271237554246     -2.30760146187356
  N   1.82671562698072      0.45887577486825      0.84917067512949
  H   1.65779699367348      0.93797742522841      1.72281047226804
  H   2.13161460694035     -0.49083197004369      1.01507187301426
