16
Coordinates from ORCA-job run
  C   -0.57989069753854     -0.63255489395636     -0.17771167697886
  C   0.76532783631792      0.06907341644516     -0.44231716023969
  Cl  -1.22179418323968     -1.03055467144875     -1.82524340423928
  H   1.41521639710986     -0.62640316639301     -0.99249951291861
  C   -0.35797675694741     -1.91370947713571      0.49131328797155
  N   -0.20925122842082     -2.95201870405737      1.02065171886079
  C   -1.61148671897703      0.21990100356777      0.54563643556568
  H   -2.55913719755769     -0.31805094375545      0.58630591050306
  H   -1.74550954004047      1.15837120542062      0.01069161248720
  H   -1.27204987021552      0.42473186774249      1.55984167157937
  N   1.52760797162138      0.33600943210259      0.84083781623414
  O   1.05928539934218     -0.02852680017480      1.91347952644297
  O   2.60022507782907      0.90881762410854      0.67839295607513
  N   0.57843326273430      1.35924414749115     -1.05282339408597
  H   1.48672183715970      1.78169626646897     -1.20514904272478
  H   0.12427841082274      1.24497369357416     -1.95040674453271
