16
Coordinates from ORCA-job run
  C   -0.46360754769439     -0.40473836597346      0.42079914279237
  C   0.53909680781665      0.65814316972597     -0.12604628562011
  Cl  0.42797970882504     -1.73354150769006      1.22785286649690
  H   -0.06094503040136      1.46186602171200     -0.55794156081593
  C   -1.24140747277371      0.29861427326485      1.44231200816144
  N   -1.85903379170994      0.91698350207310      2.22809767560156
  C   -1.38201217540520     -0.99225059452998     -0.64337201666465
  H   -1.88890513193288     -0.19067942396012     -1.18509617804225
  H   -0.80514729259369     -1.58481334083584     -1.35266412726408
  H   -2.12534491157812     -1.63515673424310     -0.17100045653236
  N   1.26606151511424      0.04707441058412     -1.29722004548621
  O   2.31198940504695     -0.54398950093294     -1.05548134437788
  O   0.73308182287361      0.17012330891057     -2.39848661765824
  N   1.49443126091676      1.19628492435267      0.77451124975909
  H   1.07224793619903      1.86257566186377      1.40628189027511
  H   1.98151489729701      0.47450419567843      1.28845379937525
