16
Coordinates from ORCA-job run
  C   -0.56042054759461     -0.70248400084337     -0.18118247382416
  C   0.78190925557631     -0.01368372584544     -0.53442505212146
  Cl  -1.14372139047163     -1.47049786700447     -1.69418240866276
  H   1.42466611653901     -0.73417798065464     -1.03956541407322
  C   -0.34470603649256     -1.76902245125312      0.79695687506365
  N   -0.20643303605309     -2.60848877246991      1.60789445800750
  C   -1.62278290751869      0.26801859450814      0.31844569070183
  H   -1.27965055318201      0.77082099247094      1.22453855002305
  H   -1.83412575565624      1.00111776726415     -0.46003407611335
  H   -2.53908152055345     -0.27991903261076      0.53883152346109
  N   1.50792413568515      0.28196158574416      0.78288700355082
  O   1.18819358486397      1.31705407950945      1.36649948166714
  O   2.34622144073662     -0.53311253645743      1.15428304075264
  N   0.58092675110947      1.14520443209866     -1.32120130044041
  H   0.27568001999351      1.92149655978389     -0.74753149798138
  H   1.42440044301824      1.40571235575974     -1.81321440001097
