16
Coordinates from ORCA-job run
  C   -0.52997463760825     -0.41297213370395      0.31917071831201
  C   0.68485801736113      0.52088636149835      0.02752905374397
  Cl  0.02697036160838     -2.10832752602658      0.49313085397638
  H   0.29304942066668      1.53907632747481     -0.02152366981607
  C   -1.04397453613589      0.02445164277372      1.61822460887710
  N   -1.44005920520776      0.43434500827143      2.64607265247974
  C   -1.62566548948754     -0.35295107567899     -0.73756197194494
  H   -2.48346938917190     -0.94008026607305     -0.40847223513488
  H   -1.26259112822494     -0.75896377089777     -1.68103641269722
  H   -1.93564420496403      0.68219406509483     -0.89624050631626
  N   1.16820929554692      0.22513626668051     -1.36990964397969
  O   2.03922990579580     -0.62851499282258     -1.48858757279150
  O   0.62580060635794      0.84811998331679     -2.28092859919736
  N   1.79133033915106      0.46916761459984      0.91419950397553
  H   1.58841720997378      0.93703449803902      1.78659705966695
  H   2.10251343433862     -0.47860200254635      1.07933616084625
