16
Coordinates from ORCA-job run
  C   -0.49302175012982     -0.47295405458902      0.40522646290513
  C   0.54818098250777      0.61291414282505      0.05886300188609
  Cl  0.33947554926038     -2.04401078656617      0.66458742660658
  H   0.01117378752935      1.55649831873504     -0.06376902141280
  C   -1.10488739896311     -0.06909374442895      1.67264823685802
  N   -1.66044419724470      0.26700243856084      2.65160398731507
  C   -1.57460673484346     -0.66341971144526     -0.65214206924736
  H   -2.05659714682555      0.29203053195156     -0.86898906401515
  H   -1.14809148809065     -1.06047485985287     -1.57186762212711
  H   -2.31999907847666     -1.36505872994307     -0.27717776669056
  N   1.09272819180784      0.32459134041848     -1.34792858244469
  O   0.42426619952766      0.74339120724967     -2.29061411379453
  O   2.15024172931321     -0.29273990422246     -1.42410090522562
  N   1.54321565698977      0.72393106143590      1.05000165043007
  H   2.13160748906021     -0.09870963973365      1.07747586362381
  H   2.11575820857776      1.54610238960490      0.91618251533304
