16
Coordinates from ORCA-job run
  C   -0.55282579781678     -0.60420252481043      0.07592450405670
  C   0.61226733035033      0.23853360791247     -0.47439582109808
  Cl  -0.38520191167355     -2.28921088960278     -0.50631464968167
  H   0.53128244274187      0.27754123639901     -1.56162885471722
  C   -0.54303060057033     -0.60879822385878      1.53926816770162
  N   -0.59730432417150     -0.55742798292145      2.71196431216426
  C   -1.87638398503256     -0.03613052627684     -0.42850154864065
  H   -1.98027663093627      0.99477200031780     -0.09140487326474
  H   -2.70326328494907     -0.63597938419538     -0.04748728888647
  H   -1.89136365482146     -0.06854891062535     -1.51967961093564
  N   1.93274024354303     -0.48148797877506     -0.22227944397869
  O   2.30440353895444     -0.53035497214859      0.94770046912018
  O   2.53088704745171     -0.92078652771617     -1.19967729130368
  N   0.58135794563632      1.53869778360837      0.09691123619666
  H   0.84324654028003      1.50830483205166      1.07641287092782
  H   1.19446510101381      2.17507846064151     -0.39581217766040
