16
Coordinates from ORCA-job run
  C   -0.57423378495744     -0.67737896436693     -0.22540370339121
  C   0.79508083209139     -0.01271782978474     -0.51473971174561
  Cl  -1.13921262037815     -1.36267167375459     -1.78471283855923
  H   1.43123419475418     -0.72856873912278     -1.03466980237842
  C   -0.41383882200423     -1.79143268545987      0.70938753305209
  N   -0.31961178091489     -2.67000677730817      1.48425047996996
  C   -1.62227826389961      0.30074674201776      0.28930978901922
  H   -2.55827985876294     -0.22964183451425      0.46458819497706
  H   -1.79435905919896      1.07091089013631     -0.46231809452140
  H   -1.28844329203356      0.75543872232810      1.22363120701752
  N   1.49419753044057      0.20423691885825      0.83259686797463
  O   1.18802485756292      1.22179100575906      1.45314941900143
  O   2.29948865717969     -0.65008343306891      1.18855501448929
  N   0.64724543638181      1.18397026326463     -1.25479400317447
  H   1.51121233747340      1.44227127846815     -1.71160674830336
  H   0.34477363626584      1.94313611654798     -0.65722360342751
