16
Coordinates from ORCA-job run
  C   -0.46583366277677     -0.41628383099161      0.40294018909325
  C   0.66065696494143      0.54518516868839     -0.08731336338295
  Cl  0.17892429779811     -2.08055750370016      0.56986230950879
  H   0.22363230064271      1.54528525421597     -0.12840873148271
  C   -0.82036885848967      0.06383783758900      1.73971764972323
  N   -1.09427191250550      0.50851726131971      2.79267683368329
  C   -1.69413714174275     -0.44362640446872     -0.49774338407141
  H   -2.47478430588292     -1.04617137027877     -0.03250241449112
  H   -2.06610602851845      0.57133580805900     -0.65373248277292
  H   -1.44377158813817     -0.87796468325135     -1.46491044125251
  N   0.97026968122570      0.19908885224035     -1.52198857062466
  O   0.28222316153724      0.75068246494478     -2.37903559412347
  O   1.86004176837076     -0.62026500574488     -1.71751919904457
  N   1.87412535623877      0.57667737503492      0.64759503540180
  H   2.24457034544871     -0.35001953824822      0.81008409557590
  H   1.76482962185079      1.07627831459159      1.51927806826008
