16
Coordinates from ORCA-job run
  C   -0.58144992644131     -0.59537644682270     -0.17996914156818
  C   0.83536018436523     -0.03838291018311     -0.52979281103076
  Cl  -1.31856519609050     -1.03060539148955     -1.76521778562193
  H   1.37345459814623     -0.81554140755287     -1.07276738012589
  C   -0.45651254923971     -1.82511377109170      0.59944128289847
  N   -0.36463555198448     -2.79985138426164      1.24995394186219
  C   -1.49474410777491      0.39653819295603      0.52459925752927
  H   -1.62029846088787      1.28896448812612     -0.08915118208527
  H   -1.07708402176397      0.67718477032761      1.49199121141013
  H   -2.47507597169313     -0.05683556837850      0.67344596461920
  N   1.58299468982354      0.14124993584554      0.76652444763973
  O   2.34657566777722     -0.75744492252885      1.10383248415915
  O   1.34996105319332      1.17464943621056      1.39037767932222
  N   0.90780559662825      1.19438341041572     -1.23759833502270
  H   0.44087917061878      1.94397384968287     -0.74581770774062
  H   0.55033482532330      1.10120771874446     -2.17785192624502
