16
Coordinates from ORCA-job run
  C   -0.47674970375520     -0.51177687397488      0.37625375067160
  C   0.64289739931923      0.50954355622882      0.08191758942996
  Cl  0.11854073079250     -2.17248752658188      0.03520418932083
  H   0.25585872909857      1.50157097473302      0.32655631088338
  C   -0.75654372547110     -0.41602962029110      1.81028604069950
  N   -1.04766391935952     -0.31053935889350      2.94349254074892
  C   -1.75866038282151     -0.28138738214433     -0.41603400141344
  H   -1.58981363750515     -0.44851672834316     -1.47859255347712
  H   -2.52327325950351     -0.97552869417380     -0.06668922711700
  H   -2.10834467999119      0.74264451934427     -0.26999543848602
  N   0.84980347036265      0.57016670437353     -1.43859315517985
  O   1.75514857625810     -0.11137224497882     -1.90890374745738
  O   0.09043221622189      1.30549260791721     -2.06590663954226
  N   1.81509812303608      0.23111267491332      0.81198288611450
  H   2.25338757216778     -0.62449518247032      0.49657677686293
  H   2.47888249115038      0.99160257434162      0.76044467794145
