16
Coordinates from ORCA-job run
  C   -0.57165222304145     -0.68281506620870     -0.21616655821594
  C   0.76485569931625      0.02251565852817     -0.55842620120295
  Cl  -1.20881929686975     -1.32974964068886     -1.76373150877203
  H   1.38556455421324     -0.66124714183913     -1.13688273401842
  C   -0.33503094108578     -1.82235817794616      0.67061977643273
  N   -0.17798082858082     -2.72253377594133      1.40972243500419
  C   -1.60956596038082      0.25356002564927      0.38904910758228
  H   -1.23322940719296      0.68523660592662      1.31817519272463
  H   -1.84037622351950      1.04359745673195     -0.32532786110767
  H   -2.52249959660866     -0.30398591294626      0.59862119937538
  N   1.53393867030809      0.21185706714761      0.75443342352820
  O   2.37640197606213     -0.63435429747248      1.03578731200639
  O   1.24123228310510      1.20105612944343      1.42526486303140
  N   0.54981304880465      1.23865630708736     -1.24868127790606
  H   0.26631094148691      1.97105805456232     -0.60965471720924
  H   1.38103730398338      1.53150670796622     -1.74380245125290
