16
Coordinates from ORCA-job run
  C   -0.47727649654386     -0.61258856511513      0.11524549153490
  C   0.67980823158508      0.20252593599462     -0.51296012305663
  Cl  -0.35103658244785     -2.31768630112191     -0.41795355205028
  H   0.55895481740441      0.17924392689192     -1.59679086063316
  C   -0.42605031044601     -0.56073001354067      1.57585421180888
  N   -0.46302676179050     -0.44793144612916      2.74507713940692
  C   -1.81448980857093     -0.05219079993460     -0.36415351514726
  H   -1.85955539580539     -0.09203872093543     -1.45435337288951
  H   -1.93476653494420      0.97834778197337     -0.02555371137016
  H   -2.63211530933529     -0.64725537645585      0.04266919761723
  N   1.98885856106384     -0.49482910686465     -0.24554927683862
  O   2.35030725410359     -0.50984175131770      0.92722594893564
  O   2.58757771738012     -0.96636068861990     -1.20541187236883
  N   0.82214131713477      1.54258219995681     -0.05031190604147
  H   0.79121268777632      1.61684171913348      0.95832823450146
  H   0.17945661343589      2.18191120608481     -0.49136203340912
