16
Coordinates from ORCA-job run
  C   -0.53945951403277     -0.63736737747508     -0.16854307577112
  C   0.83638161060836      0.00854842319902     -0.52922605130200
  Cl  -1.24323227425974     -1.15245950567923     -1.74464625671455
  H   1.42680849574459     -0.74015019011060     -1.05759629572388
  C   -0.33145986907839     -1.83970959765043      0.63535877998530
  N   -0.17449681806994     -2.79134270065253      1.30744096371363
  C   -1.51875625245937      0.30348600846184      0.51712393433825
  H   -2.46589489598146     -0.21245198355258      0.67646585937356
  H   -1.12146879928401      0.63120169845060      1.47830525334512
  H   -1.70458865339787      1.17293084528375     -0.11416805728930
  N   1.56815664382608      0.26407718434716      0.76334589776143
  O   1.26466084945345      1.29143161093006      1.36638334006106
  O   2.38938460568134     -0.57463826056207      1.11908910034033
  N   0.82566470848611      1.22910916783685     -1.26114146766271
  H   0.30641244227013      1.95469371092981     -0.78655688283472
  H   0.48088772049351      1.09264096624342     -2.20063504162042
