16
Coordinates from ORCA-job run
  C   -0.57005875116764     -0.65127101217417     -0.20574609780401
  C   0.76381038763467      0.07995133566714     -0.50674384692943
  Cl  -1.30927891523524     -0.99469156674233     -1.81314857195916
  H   1.43980020742435     -0.61922772750180     -1.01164362173894
  C   -0.33232074127032     -1.94253963396823      0.43742136145202
  N   -0.19589406348146     -2.98109029014729      0.97012376963421
  C   -1.52578094989037      0.19969985528339      0.61604381048122
  H   -2.47967547762520     -0.31797180076038      0.71931248167265
  H   -1.11115028541571      0.37176067228547      1.61166771766120
  H   -1.66885644659401      1.15640090813528      0.11690223061087
  N   1.44065930605575      0.35631402546720      0.81757022760657
  O   2.02496041795115     -0.59948605767322      1.32027631242435
  O   1.34769918268943      1.48359109984471      1.29348101849479
  N   0.51256516127600      1.32590092705339     -1.17186765560180
  H   0.38233342406059      1.16645585201282     -2.16189338342701
  H   1.28218754358800      1.96720341321803     -1.03275575257754
