16
Coordinates from ORCA-job run
  C   -0.47120679637264     -0.42883968570870      0.38368155165463
  C   0.64529447551808      0.56834882511789     -0.05571944535774
  Cl  0.21996452476866     -2.06832489914416      0.60225139231447
  H   0.17710248500508      1.55260691027346     -0.12370789051128
  C   -0.91410633139324      0.04825345479483      1.69485913073248
  N   -1.26117396723017      0.48715992464185      2.72825317459814
  C   -1.64666293818492     -0.50638446135257     -0.58239008712425
  H   -2.04362483498696      0.49368237423023     -0.76979602154338
  H   -2.43099662936666     -1.13140686442866     -0.15455212094511
  H   -1.32837864853251     -0.94077063871904     -1.52946019869972
  N   1.03645913620196      0.22723378534510     -1.47076614754239
  O   0.38207579779692      0.76111238203402     -2.36436344433699
  O   1.95200415435832     -0.57401554532084     -1.61708182025877
  N   1.82011627133671      0.64382227391074      0.73727290114918
  H   1.64878973145746      1.13648403613955      1.60312720977139
  H   2.21334356962391     -0.26996187181369      0.91839181609933
