16
Coordinates from ORCA-job run
  C   -0.53286511164607     -0.61420838667870      0.12411982753669
  C   0.57507039899644      0.24089375198199     -0.51776526717773
  Cl  -0.36332671992887     -2.30801928284244     -0.43141340925652
  H   0.42411071667915      0.25335725563621     -1.59813644759340
  C   -0.42994298483389     -0.58505012699800      1.58356145098780
  N   -0.41091137589255     -0.50765175002550      2.75595324297282
  C   -1.89859507681185     -0.08677362754589     -0.30650351744162
  H   -2.68542087974737     -0.69530278008120      0.13995588353950
  H   -1.98243115185376     -0.14491601436656     -1.39348713613216
  H   -2.00442121290319      0.94920175394019      0.01404302866566
  N   1.92506468506286     -0.44413995196551     -0.33529557262852
  O   2.47001543679285     -0.89283240219118     -1.33917892630295
  O   2.37101389679987     -0.45851966904430      0.80941369911740
  N   0.55035508889895      1.55284829055762      0.02651866756185
  H   1.11574583589207      2.19104364712007     -0.51818424007431
  H   0.87553845449535      1.55006929250320      0.98739871622550
