15

C	0.0	0.0	0.0
C	-0.636297	-0.113858	-1.401267
Cl	1.847855	0.0	0.0
H	0.16203	-0.169364	-2.149253
H	-0.208026	0.995461	0.38282
N	-0.469437	-0.988433	0.878384
H	-0.560662	-1.87665	0.407167
H	0.039188	-1.032624	1.747402
N	-1.393882	1.125231	-1.592547
H	-2.218127	0.969094	-0.966632
H	-1.760532	1.102932	-2.541115
N	-1.426277	-1.347552	-1.450562
H	-1.716488	-1.477494	-2.41442
H	-2.274887	-1.084421	-0.891428
F	-3.235784	0.0	0.0
