15

C	0.0	0.0	0.0
C	-0.487365	-0.442739	-1.444991
Cl	1.794359	0.0	0.0
H	0.41339	-0.596615	-2.051551
H	-0.242684	1.062046	0.11805
N	-0.552053	-0.821961	1.035473
H	-1.571159	-0.664333	0.87425
H	-0.317802	-0.40283	1.929893
N	-1.299653	0.590082	-2.071895
H	-0.772113	1.457838	-2.066347
H	-2.096755	0.686702	-1.425972
N	-1.263351	-1.671993	-1.442869
H	-2.154164	-1.381389	-1.027867
H	-0.842254	-2.293293	-0.759087
F	-2.921151	0.0	0.0
