15

C	0.0	0.0	0.0
C	-0.506081	-0.01888	-1.47348
Cl	1.790779	0.0	0.0
H	0.363653	-0.009952	-2.136465
H	-0.226588	1.004881	0.365908
N	-0.541079	-1.042164	0.823975
H	-1.558544	-0.8905	0.702016
H	-0.327725	-0.797366	1.786737
N	-1.223618	1.252089	-1.656722
H	-2.059494	1.10826	-1.067505
H	-1.546434	1.274418	-2.620758
N	-1.268912	-1.230262	-1.763486
H	-1.522339	-1.182069	-2.746424
H	-2.134094	-1.096808	-1.224852
F	-2.956551	0.0	0.0
