15

C	0.0	0.0	0.0
C	-0.497152	0.068018	-1.442043
Cl	1.786842	0.0	0.0
H	-1.57209	0.233344	-1.291389
H	-0.264178	0.958822	0.454621
N	-0.589843	-1.139966	0.639224
H	-1.615917	-0.893572	0.503722
H	-0.391118	-1.090244	1.633338
N	-0.206846	-1.205304	-2.121878
H	-0.208644	-1.917472	-1.394946
H	-0.998235	-1.416856	-2.721323
N	0.079093	1.213645	-2.132253
H	0.990286	0.922295	-2.474474
H	-0.49383	1.399142	-2.947811
F	-2.883274	0.0	0.0
