15

C	0.0	0.0	0.0
C	-0.600853	-0.302877	-1.404713
Cl	1.852262	0.0	0.0
H	0.23588	-0.461826	-2.095744
H	-0.210568	1.033133	0.271934
N	-0.468131	-0.871619	0.991772
H	0.02667	-0.797913	1.866877
H	-0.541445	-1.813747	0.636024
N	-1.431884	0.792804	-1.892109
H	-2.244754	0.764937	-1.239299
H	-0.94015	1.673208	-1.774192
N	-1.388576	-1.521717	-1.300505
H	-1.71092	-1.722583	-2.240505
H	-2.222261	-1.190697	-0.75587
F	-3.16168	0.0	0.0
