15

C	0.0	0.0	0.0
C	-0.475308	0.019788	-1.49376
Cl	1.822702	0.0	0.0
H	0.416126	0.02373	-2.129667
H	-0.233358	0.976333	0.430881
N	-0.537423	-1.112837	0.724896
H	-1.555944	-0.915109	0.636802
H	-0.293428	-0.994716	1.703476
N	-1.192739	1.275775	-1.674279
H	-1.53009	1.265875	-2.6331
H	-2.021052	1.136475	-1.079017
N	-1.301843	-1.11664	-1.891947
H	-0.860461	-1.965922	-1.550404
H	-2.154318	-0.986842	-1.335309
F	-2.914281	0.0	0.0
