15

C	0.0	0.0	0.0
C	-0.48707	-0.311327	-1.480305
Cl	1.794295	0.0	0.0
H	0.414286	-0.39458	-2.098883
H	-0.240692	1.047425	0.214158
N	-0.546108	-0.91526	0.95789
H	-1.56453	-0.744186	0.819073
H	-0.3042	-0.583347	1.885848
N	-1.317641	0.757556	-2.010822
H	-0.810685	1.632933	-1.922421
H	-2.114708	0.773937	-1.357723
N	-1.23479	-1.553232	-1.586388
H	-2.121416	-1.331088	-1.123784
H	-0.769047	-2.224131	-0.982703
F	-2.911729	0.0	0.0
