15

C	0.0	0.0	0.0
C	-0.5014	0.030118	-1.476432
Cl	1.781785	0.0	0.0
H	0.371169	0.055023	-2.136321
H	-0.238189	0.988579	0.400558
N	-0.539501	-1.076226	0.781739
H	-0.320017	-0.873895	1.753619
H	-1.557459	-0.913661	0.668999
N	-1.208132	1.310835	-1.623511
H	-2.048565	1.15986	-1.043822
H	-1.521548	1.369968	-2.589003
N	-1.272818	-1.165606	-1.814484
H	-1.526771	-1.068344	-2.79364
H	-2.134988	-1.042741	-1.26984
F	-2.939193	0.0	0.0
