15

C	0.0	0.0	0.0
C	-0.453351	-0.145152	-1.473568
Cl	1.784235	0.0	0.0
H	-1.548846	-0.114636	-1.414881
H	-0.315562	0.990146	0.345763
N	-0.560061	-1.088414	0.752263
H	-1.58916	-0.889444	0.650614
H	-0.30385	-0.969091	1.727521
N	0.081362	-1.398441	-1.993386
H	-0.480424	-1.654724	-2.796084
H	-0.07322	-2.095157	-1.268951
N	-0.030096	0.921793	-2.366
H	-0.446209	1.790354	-2.046701
H	0.976723	1.00966	-2.299744
F	-2.922067	0.0	0.0
