16
Coordinates from ORCA-job run
  C   0.71735498685261     -0.42986615517569     -0.17230719659097
  C   -0.72762098637717     -0.41810458145351      0.33332854891148
  Br  1.44304862317763     -2.20612139439646      0.10124044494518
  H   -1.30113550184846     -1.22010501003126     -0.12675100970063
  N   1.53105091954731      0.52013135394071      0.47521430663957
  H   1.26905070950078      1.45011155296676      0.16703427042359
  H   2.51092733397667      0.35997326484259      0.28292665540156
  N   0.68190255634994     -0.26734407180523     -1.71863011284755
  O   -0.28184911773328     -0.74770708697138     -2.30188690272224
  O   1.63495021705267      0.30827670677312     -2.22292899989181
  N   -1.43273297038896      0.85317126264219     -0.18208747650535
  O   -2.65384387334054      0.84022816585617     -0.08290457310377
  O   -0.75400623156589      1.80024552016073     -0.58191991543803
  N   -0.75517673878374     -0.51018174888800      1.74070386976828
  H   -1.69660945372321     -0.53199426000930      2.10570780235814
  H   -0.18431047269636      0.19828648154855      2.18126028835256
