16
Coordinates from ORCA-job run
  C   0.58654914357273     -0.26740379927505     -0.46228312006438
  C   -0.57240734662950      0.20400549271349      0.47380895908100
  Br  -0.12355263885744     -1.30848154810211     -1.91774151322654
  H   -0.09665138070816      0.69323727269739      1.32591728068242
  N   1.69755840131809     -0.94980194631914      0.10849601487564
  H   1.42456598846823     -1.87585536497872      0.41191686171445
  H   2.04120215191509     -0.42945198244135      0.90861925518598
  N   1.14777048810645      1.06985042459314     -0.98196465152931
  O   1.68915045372051      1.72639549756110     -0.09382433341048
  O   1.00297297955457      1.40287309762751     -2.14514561271903
  N   -1.21221749738912     -1.04380645347940      1.04261002998563
  O   -2.31278020351125     -1.36946812263407      0.62093215560142
  O   -0.53761699682593     -1.65562234888274      1.87195532806263
  N   -1.56106223191110      1.04792734304475     -0.08065477352281
  H   -1.27563371293473      2.01529126486597     -0.09952837827553
  H   -1.89684759788843      0.73931117300923     -0.98211350244111
