16
Coordinates from ORCA-job run
  C   0.71229473437540     -0.33258457213507     -0.24220958856076
  C   -0.71961008732888     -0.35287534306492      0.31569898399987
  Br  1.55118030988194     -2.07452731800906      0.30432436751703
  H   -1.27312741404899     -1.16494533766469     -0.15741664154054
  N   1.37345716320713      0.81366804517880      0.17629165802078
  H   1.43116905070632      0.84076742323790      1.18692925453387
  H   2.27739344764495      0.93455729171008     -0.26015439912130
  N   0.72969044491171     -0.42501247856075     -1.76607040722286
  O   -0.03129743522615     -1.23568728539635     -2.26979516256700
  O   1.53589310122390      0.28990177664057     -2.34758388927536
  N   -1.38006064623507      0.94415559293758     -0.17462468030892
  O   -1.47405298507870      1.07096799175427     -1.38762645231958
  O   -1.74850297899691      1.75645000816684      0.66619507942879
  N   -0.69093012166119     -0.38926743198809      1.74268598034829
  H   -1.23438911631677     -1.15933371216068      2.10286927987438
  H   -1.05910746705870      0.48176534935357      2.10748661719333
