16
Coordinates from ORCA-job run
  C   0.52398294927453     -0.23679664597334     -0.50698670459015
  C   -0.52402074668168      0.27968800771702      0.49015514337953
  Br  -0.32509392525696     -0.90840490333874     -2.17468127563672
  H   0.04067995256389      0.86518087786360      1.22793017188467
  N   1.43346878869114     -1.10651231447180      0.10955144343178
  H   0.98998209470584     -1.98811657020829      0.33087993809465
  H   2.24709252025559     -1.24630370060370     -0.47705339428452
  N   1.35478146915744      0.96494369066231     -0.99443462546958
  O   0.82552629791908      2.07015557461553     -0.96392601794457
  O   2.47987305928870      0.71749538099925     -1.40085992939119
  N   -1.10840716006635     -0.85430943694404      1.31375997404386
  O   -1.03597852960325     -2.01290088745833      0.91816091530531
  O   -1.69005438930767     -0.47575272557356      2.32514583437943
  N   -1.66544696304582      0.92403862447771     -0.08740500289503
  H   -2.18392926569872      1.38961709683807      0.64835302382792
  H   -1.36145615219577      1.61697793139830     -0.75758949413539
