15

C	0.0	0.0	0.0
C	-0.576577	-0.107723	-1.395863
F	1.395605	0.0	0.0
H	-1.68849	-0.139505	-1.183714
H	-0.29914	-0.904057	0.537
N	-0.494424	1.22671	0.546285
H	-1.521073	1.052104	0.538319
H	-0.181402	1.281715	1.509755
N	-0.146966	-1.322263	-2.12824
O	0.177779	-2.303212	-1.463609
O	-0.235395	-1.295003	-3.355842
N	-0.207285	1.068657	-2.225314
O	0.981093	1.196403	-2.520479
O	-1.106218	1.841854	-2.546098
F	-2.770374	0.0	0.0
