15

C	0.0	0.0	0.0
C	-0.594939	-0.013182	-1.395229
F	1.374867	0.0	0.0
H	-1.707835	-0.061554	-1.172046
H	-0.306025	-0.940563	0.466479
N	-0.503442	1.180309	0.635605
H	-1.530014	1.018246	0.582474
H	-0.230972	1.142941	1.611984
N	-0.167111	-1.178658	-2.205561
O	0.020093	-2.235659	-1.606157
O	-0.110992	-1.041505	-3.426277
N	-0.243868	1.21776	-2.148197
O	-1.164689	1.971986	-2.456984
O	0.945921	1.403244	-2.400351
F	-2.792518	0.0	0.0
