15

C	0.0	0.0	0.0
C	-0.236673	-0.141671	-1.538095
F	1.406738	0.0	0.0
H	0.035665	-1.141129	-1.864356
H	-0.368385	-0.915242	0.459388
N	-0.512667	1.110134	0.679704
H	-1.549191	0.88611	0.621237
H	-0.315307	1.94662	0.144046
N	0.681649	0.771116	-2.295121
O	1.253952	0.282007	-3.272708
O	0.795322	1.934483	-1.92229
N	-1.599533	0.113523	-2.118831
O	-2.185761	-0.879197	-2.532059
O	-1.930971	1.28028	-2.275042
F	-2.643645	0.0	0.0
