15

C	0.0	0.0	0.0
C	-0.23832	-0.222763	-1.499232
F	1.402809	0.0	0.0
H	0.340641	0.534293	-2.021461
H	-0.326802	-0.862602	0.579029
N	-0.50447	1.266834	0.384832
H	-1.545415	1.034281	0.322417
H	-0.278757	1.386776	1.368043
N	-1.60808	-0.171429	-2.118736
O	-1.968857	0.943389	-2.463688
O	-2.156815	-1.232851	-2.375195
N	0.349958	-1.537051	-1.915958
O	0.873165	-1.561782	-3.030931
O	0.260854	-2.493119	-1.154255
F	-2.625205	0.0	0.0
