14

C	-0.514009	-0.092188	-1.555752
C	0.082527	-0.105409	-0.136065
Cl	-2.280173	0.041407	-1.505665
H	1.161836	-0.304707	-0.232295
H	-0.374422	-0.973581	0.363374
N	0.081133	1.115441	-2.292293
O	1.26837	0.978462	-2.559896
O	-0.618702	2.084228	-2.519473
C	-0.162021	-1.281756	-2.326283
N	0.111352	-2.270573	-2.900061
N	-0.078746	1.168293	0.487822
H	-0.861574	1.149076	1.130685
H	0.826862	1.289243	1.068087
H	2.123363	1.079681	1.742452
