14

C	-0.572096	0.072172	-1.543984
C	0.09972	0.159541	-0.158786
Cl	0.088892	-1.239336	-2.505991
H	1.182941	0.227575	-0.321624
H	-0.255404	1.099823	0.279716
N	-2.073213	-0.15559	-1.29598
O	-2.624983	0.789322	-0.738735
O	-2.589255	-1.210546	-1.616302
C	-0.465756	1.323039	-2.292838
N	-0.343321	2.340796	-2.867816
N	-0.190009	-1.022435	0.596573
H	-0.675793	-0.768691	1.44842
H	0.783252	-1.380911	0.873298
H	2.293413	-1.395642	1.038836
