13
Coordinates from ORCA-job run
  C   0.43559811171244      0.43309039690254     -0.58538672495684
  C   -0.48452292377558     -0.11411720636566      0.23516882132150
  H   0.07505823929061      1.14871770417373     -1.32373182813019
  C   1.90309692551804      0.14874910112735     -0.57629611505464
  H   2.22344547631936     -0.24153522375772     -1.54681492976643
  H   2.47029729888394      1.06762011496036     -0.39936531531855
  H   2.17276347685438     -0.57588963750080      0.19316316324393
  C   -1.95571834357143      0.20222109378053      0.18695579279239
  H   -2.16119088142700      0.93201440523151     -0.59777836348055
  H   -2.53968665238696     -0.69967319941416     -0.01270975313362
  H   -2.29690881856296      0.61034179809900      1.14162861444952
  C   -0.07485374695353     -1.06575354003669      1.23087520851560
  N   0.23362183809869     -1.84678580719999      2.05529142951788
