13
Coordinates from ORCA-job run
  C   0.92659836925092     -0.34351867423108     -0.01767734374755
  C   -0.30644860957577     -0.40208609564698      0.53061909739353
  H   1.67628880887255     -1.02623789083632      0.37953772936714
  C   1.38300282751114      0.55984312914557     -1.11838344578713
  H   1.74845266205938     -0.03134282992485     -1.96340507872024
  H   2.22118795153779      1.17505639167416     -0.77757458058431
  H   0.60093589795888      1.22439232470914     -1.48193515701255
  C   -1.51074372366018      0.42523215564198      0.16582836373957
  H   -1.85907509969152      0.98940023262028      1.03475885373720
  H   -2.33148065809009     -0.22266721303814     -0.15254475754823
  H   -1.29491259442077      1.12718573442785     -0.63768217453857
  C   -0.52256661617900     -1.35438443745658      1.58634410857018
  N   -0.73223921557334     -2.12287282708502      2.45211438513095
