13
Coordinates from ORCA-job run
  C   0.42230219595524      0.18999212065127     -0.71091422559706
  C   -0.48312870459005     -0.05193200271824      0.25915248465709
  H   0.03584697585400      0.49969291332836     -1.68155667435061
  C   1.90653501628344      0.07113678671507     -0.57980896905536
  H   2.20415837913605     -0.24384303028090      0.42127373958430
  H   2.38696145779192      1.02953003531750     -0.79828453592066
  H   2.29731965217217     -0.65263808352727     -1.30128369565280
  C   -1.97195468377870      0.08161280706915      0.07969397580711
  H   -2.38173049136703      0.81639157239600      0.77733043105785
  H   -2.20478158238938      0.39871401015236     -0.93818031727624
  H   -2.47276085198071     -0.87060471913873      0.27232708148766
  C   -0.03793123498420     -0.46379717132361      1.56190340614408
  N   0.29916387189725     -0.80225523864096      2.63734729911464
