13
Coordinates from ORCA-job run
  C   0.85981235316100     -0.45628363479968     -0.18141830027417
  C   -0.32294160070404     -0.46211723788980      0.47075156561357
  H   1.52680666870580     -1.29819330476810     -0.00349400542657
  C   1.36228827412548      0.59090608746533     -1.12359804769667
  H   0.61108566746140      1.33793029166153     -1.37471799868583
  H   2.22676088663607      1.10667351877639     -0.69360921635913
  H   1.70228574439735      0.12683623481485     -2.05355711282057
  C   -1.40789201041367      0.58030722825749      0.40146046003708
  H   -2.32141876924831      0.15091830861636     -0.01834909228000
  H   -1.11398117659538      1.43352089546331     -0.20725832651381
  H   -1.64826833625115      0.94059955386225      1.40470374655949
  C   -0.60647453988273     -1.57786664416409      1.33215669393319
  N   -0.86806316139181     -2.47423129729584      2.04792963391342
