16

C	-0.509936	-0.001249	-1.443629
C	0.0	0.0	0.0
Br	0.366694	-1.443883	-2.421859
H	1.094143	0.0	0.0
C	-2.011434	-0.119188	-1.594862
H	-2.482781	0.737161	-1.103585
H	-2.297267	-0.129415	-2.644629
H	-2.346819	-1.03736	-1.111824
N	-0.056873	1.292858	-2.127583
O	-0.638821	1.585769	-3.171542
O	0.849349	1.930841	-1.607851
C	-0.446599	-1.2089	0.670408
N	-0.793592	-2.191904	1.216366
C	-0.486388	1.169946	0.709788
N	-0.890263	2.120746	1.273374
F	2.434387	0.0	0.0
