16

C	-0.230286	0.010672	-1.511348
C	0.0	0.0	0.0
Br	0.182888	1.78345	-2.208561
H	1.097955	0.0	0.0
C	0.661809	-1.018645	-2.171182
H	0.321679	-2.019549	-1.889238
H	0.637003	-0.924055	-3.254702
H	1.660618	-0.84341	-1.755847
N	-1.695111	-0.22297	-1.885028
O	-2.542375	0.010929	-1.028954
O	-1.923234	-0.617593	-3.025664
C	-0.434933	-1.272358	0.553871
N	-0.743058	-2.321116	0.987409
C	-0.540169	1.120835	0.74362
N	-0.923483	2.03505	1.375407
F	2.495207	0.0	0.0
