16

C	-0.258713	0.009186	-1.503684
C	0.0	0.0	0.0
Br	0.274337	1.736034	-2.230194
H	1.097827	0.0	0.0
C	0.541754	-1.089554	-2.169837
H	0.130312	-2.059733	-1.875606
H	0.509393	-1.001404	-3.25408
H	1.556488	-0.983578	-1.775614
N	-1.743684	-0.120563	-1.848184
O	-2.554693	0.084964	-0.952005
O	-2.021164	-0.418732	-3.00581
C	-0.439541	-1.259164	0.580582
N	-0.7548	-2.29703	1.034882
C	-0.509089	1.136586	0.743771
N	-0.852174	2.065245	1.377432
F	2.485581	0.0	0.0
