16

C	-0.492869	0.00226	-1.450481
C	0.0	0.0	0.0
Br	0.403749	-1.433805	-2.416582
H	1.094194	0.0	0.0
C	-1.991695	-0.129673	-1.618606
H	-2.262396	-0.138876	-2.672572
H	-2.3222	-1.055378	-1.145934
H	-2.480213	0.717109	-1.126136
N	-0.049973	1.300449	-2.132381
O	0.757099	2.01097	-1.549108
O	-0.548359	1.528669	-3.232386
C	-0.430525	-1.226028	0.652485
N	-0.763915	-2.220984	1.184447
C	-0.533472	1.143489	0.72193
N	-0.969365	2.071728	1.298818
F	2.433008	0.0	0.0
