14
Coordinates from ORCA-job run
  C   0.86137694113814     -0.61784250609004      0.34336369374499
  C   -0.52644690178628     -0.37064483617447     -0.26359179524847
  Cl  0.90969736645849     -0.38730613265540      2.07537618059214
  H   -0.43141095428607     -0.60829680502885     -1.32903465909096
  H   1.21667544272589     -1.62121809720076      0.11117324500851
  N   1.81617504150119      0.31830398125162     -0.37889800366720
  O   2.27588178952896      1.28759049323918      0.20374205512486
  O   1.99529555321312      0.01007613090199     -1.55381722327203
  C   -1.00407627087255      1.07447431836701     -0.10324296741613
  H   -2.00094152149813      1.17972383423152     -0.53298298168927
  H   -1.04694630522975      1.35834180772938      0.94830355876685
  H   -0.33371704164481      1.75795536183674     -0.62728656256519
  C   -1.47645267602820     -1.31693659574797      0.32080212115094
  N   -2.25411046322002     -2.06322095465995      0.78609333856097
