14
Coordinates from ORCA-job run
  C   0.95256048107258      0.12564748408608     -0.21504917069122
  C   -0.51839210575694     -0.24276379681452     -0.04774657479168
  Cl  1.52638128817936     -0.21644987041074     -1.84609619268683
  H   -0.61376890372211     -1.30743374386335     -0.28204662004248
  H   1.15176462647049      1.17142393406120      0.01456052814915
  N   1.78491353037830     -0.67409250604386      0.75866224803697
  O   2.57406448415073     -0.03680361379337      1.44810561976873
  O   1.59469742018151     -1.88412409035806      0.77820594133635
  C   -1.43190499032389      0.59259875859665     -0.94897890476971
  H   -1.30319909901064      1.65804177718031     -0.74712361595897
  H   -2.47387691280133      0.33202859535428     -0.75973241697908
  H   -1.21232247384494      0.40060986235219     -1.99870695119802
  C   -0.87618649374707     -0.05133542525901      1.36076372959708
  N   -1.15673085122604      0.13265263491220      2.48618238022972
