14
Coordinates from ORCA-job run
  C   0.95317222530328      0.12284171702010     -0.21865738783668
  C   -0.51651131415874     -0.24557637900356     -0.04142996037219
  Cl  1.52719819831931     -0.25744259338488     -1.84116378320160
  H   -0.60889830253086     -1.31604805739938     -0.24913941621322
  H   1.14961922057114      1.17446184181479     -0.01471475901140
  N   1.78834365343514     -0.65046335292717      0.77399469103826
  O   2.57493073919512      0.00606147099413      1.44817110861877
  O   1.60266567935560     -1.86039158838351      0.82212934463341
  C   -1.43327373103922      0.56478082947715     -0.96177753840327
  H   -1.21392823545407      0.34799645956064     -2.00673822288936
  H   -1.30755954994364      1.63521396557585     -0.78609120945426
  H   -2.47426848045898      0.30573398698819     -0.76522914199464
  C   -0.87482608079335     -0.02099297558779      1.36210956214615
  N   -1.16666402180073      0.19182467525544      2.47953671294003
