14
Coordinates from ORCA-job run
  C   0.94182172078530     -0.49307211576416     -0.46727305481542
  C   -0.57945693729328     -0.42937698960493     -0.33019853954676
  Cl  1.54445938874872     -2.13936691203051     -0.40952994907367
  H   -0.97213114466916     -0.98347570143705     -1.19073498439435
  H   1.25610716886108     -0.03285059124749     -1.40224803388402
  N   1.57292350570323      0.34797732176704      0.61636071697364
  O   1.61007812464625     -0.11093263555441      1.74944882116019
  O   1.93623892056793      1.46646092128519      0.25778851377440
  C   -1.09276600310425      1.01451563924006     -0.37282040651529
  H   -2.18245990301802      1.01374675251506     -0.41845586412340
  H   -0.70524003920075      1.53169719143187     -1.25269412737514
  H   -0.78942908785342      1.56768073898515      0.51663250895982
  C   -1.04900636247624     -1.11486572979640      0.87596680362428
  N   -1.48913935169740     -1.63713788978940      1.83075759523572
