14

C	-0.453829	0.00318	-1.450428
C	0.0	0.0	0.0
Cl	0.358597	1.326924	-2.328142
H	1.095767	0.0	0.0
N	-0.034652	-1.314736	-2.135699
O	0.749925	-2.03048	-1.532221
O	-0.500675	-1.493057	-3.255321
C	-1.895595	0.135278	-1.629618
N	-3.061714	0.259837	-1.727423
C	-0.515347	-1.145776	0.722737
N	-0.921532	-2.061822	1.341012
C	-0.420413	1.231632	0.643341
N	-0.685556	2.244496	1.180818
H	2.404414	0.0	0.0
