14

C	-0.395605	-0.057244	-1.464452
C	0.0	0.0	0.0
Cl	-2.162434	0.012448	-1.752946
H	1.097002	0.0	0.0
N	0.24424	1.165292	-2.157959
O	1.257684	0.946025	-2.807009
O	-0.285317	2.244712	-1.94212
C	0.124429	-1.262286	-2.09964
N	0.477641	-2.257382	-2.615128
C	-0.42368	-1.202461	0.68585
N	-0.704008	-2.193325	1.257004
C	-0.480046	1.183213	0.680428
N	-0.831943	2.148442	1.254027
H	2.398183	0.0	0.0
