14

C	-0.372141	-0.03987	-1.472134
C	0.0	0.0	0.0
Cl	-2.118705	0.180348	-1.798876
H	1.096977	0.0	0.0
N	0.373093	1.118829	-2.171642
O	1.273134	0.809848	-2.936534
O	0.017615	2.243314	-1.858337
C	0.056078	-1.291265	-2.086317
N	0.337127	-2.321742	-2.576281
C	-0.444906	-1.203161	0.669951
N	-0.739375	-2.194175	1.232973
C	-0.476708	1.18117	0.688409
N	-0.830989	2.134565	1.279628
H	2.399157	0.0	0.0
