14

C	-0.476654	-0.004288	-1.442362
C	0.0	0.0	0.0
Cl	0.330377	1.305279	-2.345969
H	1.095782	0.0	0.0
N	-0.078842	-1.329567	-2.123628
O	0.748726	-2.021238	-1.549156
O	-0.600319	-1.535332	-3.214642
C	-1.920956	0.13789	-1.595658
N	-3.087296	0.276225	-1.669312
C	-0.505868	-1.146663	0.729181
N	-0.906994	-2.065787	1.345998
C	-0.418478	1.231352	0.645646
N	-0.685105	2.241139	1.188123
H	2.403802	0.0	0.0
