14

C	-0.372642	-0.035291	-1.471087
C	0.0	0.0	0.0
Cl	-2.120382	0.181854	-1.794916
H	1.096996	0.0	0.0
N	0.364362	1.130505	-2.16754
O	0.008575	2.25021	-1.838717
O	1.257488	0.832497	-2.94655
C	0.05673	-1.282331	-2.091493
N	0.330725	-2.305831	-2.59871
C	-0.43813	-1.208869	0.663289
N	-0.716933	-2.216716	1.204202
C	-0.473015	1.173232	0.703743
N	-0.781013	2.11123	1.344977
H	2.397749	0.0	0.0
