14

C	-0.392619	0.006443	-1.455334
C	0.0	0.0	0.0
Cl	0.146123	-1.485546	-2.243863
H	1.098451	0.0	0.0
N	-1.943355	0.075405	-1.687753
O	-2.299339	0.322957	-2.832143
O	-2.66341	-0.138951	-0.725165
C	0.160685	1.167556	-2.147947
N	0.614788	2.103977	-2.694745
C	-0.437948	-1.186816	0.704861
N	-0.702007	-2.164339	1.303879
C	-0.443248	1.213686	0.653864
N	-0.751509	2.229164	1.162724
H	2.399832	0.0	0.0
