14

C	-0.34235	-0.035035	-1.47867
C	0.0	0.0	0.0
Cl	-2.062122	0.305816	-1.85068
H	1.096931	0.0	0.0
N	0.478876	1.065336	-2.191421
O	0.311789	2.198183	-1.768037
O	1.208172	0.712297	-3.105881
C	0.008754	-1.322119	-2.067458
N	0.227922	-2.379132	-2.534595
C	-0.454731	-1.201117	0.66456
N	-0.755384	-2.189391	1.229281
C	-0.482965	1.176652	0.69202
N	-0.853927	2.115036	1.297146
H	2.401406	0.0	0.0
