13

C	-0.483196	0.031708	-1.425993
C	0.0	0.0	0.0
Br	0.022664	-1.511164	-2.444062
H	1.087937	0.0	0.0
H	-0.013016	0.892143	-1.906248
H	-0.346218	0.896396	0.517643
N	-1.978601	0.318709	-1.520534
O	-2.69337	-0.333239	-2.263933
O	-2.333734	1.27901	-0.841079
N	-0.554197	-1.146041	0.766398
O	0.019776	-1.453861	1.802011
O	-1.589056	-1.66627	0.342153
Cl	3.299914	0.0	0.0
