13

C	-0.617	0.113758	-1.368173
C	0.0	0.0	0.0
Br	-0.056621	1.771922	-2.188491
H	1.086684	0.0	0.0
H	-1.703671	0.110614	-1.362544
H	-0.320867	0.849662	0.607647
N	-0.236199	-1.030806	-2.278227
O	0.639732	-1.794826	-1.900242
O	-0.869812	-1.10311	-3.32739
N	-0.522205	-1.206107	0.703545
O	-0.054188	-1.44793	1.807436
O	-1.416852	-1.855403	0.152695
Cl	3.307146	0.0	0.0
