13

C	-0.485087	0.057845	-1.424783
C	0.0	0.0	0.0
Br	-0.024961	-1.495867	-2.447392
H	1.087808	0.0	0.0
H	0.009425	0.906562	-1.901002
H	-0.346602	0.888793	0.530596
N	-1.972102	0.385826	-1.517816
O	-2.299208	1.359259	-0.843027
O	-2.706861	-0.252823	-2.252606
N	-0.562294	-1.157448	0.743406
O	-1.645257	-1.600278	0.356902
O	0.051646	-1.548096	1.727397
Cl	3.302651	0.0	0.0
