13

C	-0.600138	-0.011882	-1.388279
C	0.0	0.0	0.0
Br	0.030078	1.43516	-2.474691
H	1.088275	0.0	0.0
H	-1.68547	0.052849	-1.348636
H	-0.366054	-0.875964	0.540872
N	-0.317935	-1.3683	-2.015926
O	0.322253	-1.454728	-3.052206
O	-0.825597	-2.301672	-1.392939
N	-0.538117	1.172365	0.752429
O	-1.721275	1.467299	0.561321
O	0.203868	1.72777	1.551627
Cl	3.319075	0.0	0.0
