16

C	0.0	0.0	0.0
C	-0.405893	0.125773	-1.461117
F	1.412494	0.0	0.0
H	-0.118693	1.140907	-1.790132
H	-1.496149	0.056051	-1.486063
N	-0.457255	1.09482	0.807077
H	-1.455406	0.946882	0.961043
H	-0.373689	1.957092	0.277256
C	-0.438951	-1.309969	0.612557
H	-1.529107	-1.357983	0.609954
H	-0.034597	-2.134832	0.027027
H	-0.06494	-1.358527	1.63773
N	0.187032	-0.933513	-2.277987
H	-0.213597	-0.904712	-3.206946
H	1.18104	-0.760009	-2.358045
Cl	-3.782905	0.0	0.0
