16

C	0.0	0.0	0.0
C	-0.345941	-0.015117	-1.493729
F	1.429457	0.0	0.0
H	0.191337	-0.86002	-1.938508
H	0.106618	0.892399	-1.918643
N	-0.480535	1.196124	0.590021
H	-0.375629	1.201285	1.595144
H	-0.025784	2.004154	0.186238
C	-0.50475	-1.202222	0.754853
H	-0.122733	-1.190806	1.780266
H	-1.596618	-1.172913	0.775896
H	-0.166012	-2.121525	0.272728
N	-1.740043	-0.078284	-1.864738
H	-2.126692	-0.9922	-1.668499
H	-2.306734	0.544266	-1.295466
Cl	-4.5233	0.0	0.0
