16

C	0.0	0.0	0.0
C	-0.277067	-0.239543	-1.505166
F	1.396123	0.0	0.0
H	0.126018	-1.228548	-1.755921
H	0.358607	0.49085	-2.024386
N	-0.468171	1.263148	0.49724
H	-1.461154	1.174418	0.702323
H	-0.374333	1.969836	-0.224825
C	-0.496202	-1.111107	0.893872
H	-0.057093	-2.061566	0.583014
H	-0.204435	-0.901365	1.925288
H	-1.586244	-1.170926	0.835623
N	-1.620909	-0.129911	-2.027703
H	-2.270933	-0.720432	-1.519995
H	-1.985699	0.799267	-1.859148
Cl	-4.133553	0.0	0.0
