13

C	-0.543386	-0.071101	-1.419747
C	0.0	0.0	0.0
F	-0.303091	1.10599	-2.110805
H	1.094037	0.0	0.0
H	-1.628375	-0.223089	-1.398676
C	0.054581	-1.198044	-2.158191
N	0.464759	-2.097902	-2.790056
N	-0.371017	-1.247004	0.674944
H	0.487791	-1.612858	1.082755
H	-1.034278	-1.086454	1.421752
C	-0.509436	1.189904	0.663255
N	-0.914106	2.124758	1.252613
H	2.652138	0.0	0.0
