13

C	-0.460016	-0.052544	-1.450495
C	0.0	0.0	0.0
F	0.031147	-1.186274	-2.060327
H	1.09471	0.0	0.0
H	-0.069793	0.817648	-1.989929
C	-1.932287	-0.081806	-1.558479
N	-3.104197	-0.100102	-1.627998
N	-0.423143	-1.187587	0.727842
H	0.388708	-1.524653	1.23509
H	-1.165627	-0.989412	1.385051
C	-0.452041	1.253396	0.59569
N	-0.824288	2.256388	1.085951
H	2.67677	0.0	0.0
