13

C	-0.556344	-0.086076	-1.414072
C	0.0	0.0	0.0
F	-0.308792	1.077975	-2.120854
H	1.094051	0.0	0.0
H	-1.64354	-0.22481	-1.377523
C	0.019444	-1.230863	-2.142781
N	0.46106	-2.144316	-2.730667
N	-0.371572	-1.23455	0.698488
H	-1.02084	-1.060879	1.452665
H	0.48966	-1.601449	1.094691
C	-0.501558	1.201156	0.65202
N	-0.924667	2.145313	1.211734
H	2.658486	0.0	0.0
