13

C	-0.437914	-0.056114	-1.440388
C	0.0	0.0	0.0
F	-1.819857	-0.228854	-1.559889
H	1.098876	0.0	0.0
H	0.041732	-0.929932	-1.887438
C	-0.075398	1.151636	-2.199394
N	0.182912	2.097677	-2.84497
N	-0.3473	-1.25891	0.654158
H	0.41114	-1.471479	1.294462
H	-1.210428	-1.182515	1.175739
C	-0.509054	1.183801	0.684967
N	-0.910583	2.111858	1.287072
H	2.646483	0.0	0.0
