13

C	-0.352355	-0.025089	-1.4893
C	0.0	0.0	0.0
F	0.065213	-1.227959	-2.034016
H	1.096128	0.0	0.0
H	0.182744	0.782631	-1.999545
C	-1.802521	0.087322	-1.740944
N	-2.962132	0.168979	-1.912439
N	-0.431979	-1.15546	0.756738
H	-1.319948	-1.520469	0.429686
H	0.287107	-1.86275	0.650028
C	-0.497665	1.245954	0.572671
N	-0.904192	2.255121	1.019164
H	2.676349	0.0	0.0
