13

C	-0.557851	-0.086006	-1.413809
C	0.0	0.0	0.0
F	-0.31295	1.077881	-2.124768
H	1.094062	0.0	0.0
H	-1.645357	-0.226305	-1.377237
C	0.017661	-1.229608	-2.145137
N	0.465252	-2.138014	-2.737249
N	-0.370101	-1.237426	0.69406
H	-1.031241	-1.062361	1.43864
H	0.488005	-1.601126	1.104188
C	-0.502628	1.20097	0.650205
N	-0.926325	2.1487	1.204779
H	2.650191	0.0	0.0
