13

C	-0.436458	-0.056859	-1.442002
C	0.0	0.0	0.0
F	-1.811647	-0.27494	-1.564282
H	1.095185	0.0	0.0
H	0.075132	-0.909142	-1.895704
C	-0.114482	1.172316	-2.186032
N	0.116374	2.158838	-2.779168
N	-0.341932	-1.2624	0.649315
H	-1.204041	-1.194065	1.173857
H	0.422183	-1.48167	1.280856
C	-0.517283	1.177001	0.688989
N	-0.937705	2.097649	1.289133
H	2.649504	0.0	0.0
