15

C	0.0	0.0	0.0
C	-0.510832	0.2928	-1.403691
Cl	1.797167	0.0	0.0
H	-0.119745	1.264781	-1.708877
H	-1.596584	0.372548	-1.296975
N	-0.292329	1.263964	0.893809
O	-0.285072	2.368523	0.362534
O	-0.458165	1.051964	2.089526
N	-0.526763	-1.159441	0.557734
H	-1.541127	-1.142276	0.400626
H	-0.349925	-1.173392	1.555219
N	-0.174709	-0.796558	-2.311637
H	-0.925551	-0.915984	-2.976664
H	0.673412	-0.58312	-2.813647
Cl	-3.656639	0.0	0.0
