15

C	0.0	0.0	0.0
C	-0.492712	-0.007452	-1.436296
Cl	1.84566	0.0	0.0
H	-1.575304	0.132544	-1.363445
H	-0.062491	0.857652	-1.944955
N	-0.259906	1.431167	0.602217
O	-0.246841	2.393474	-0.15523
O	-0.413125	1.483361	1.81682
N	-0.524762	-1.002353	0.793798
H	-0.376219	-0.7859	1.772347
H	-1.533613	-1.042442	0.60818
N	-0.202613	-1.285173	-2.070258
H	0.674072	-1.242382	-2.572334
H	-0.942441	-1.507687	-2.721275
Cl	-3.616302	0.0	0.0
