15

C	0.0	0.0	0.0
C	-0.544405	-0.149796	-1.413673
Cl	1.7596	0.0	0.0
H	-1.629779	-0.03994	-1.318494
H	-0.324032	-1.187316	-1.675844
N	-0.337524	1.428337	0.552207
O	-0.190954	1.576934	1.762038
O	-0.713743	2.297179	-0.226789
N	-0.544273	-0.988613	0.83842
H	-0.303944	-0.784414	1.801322
H	-1.56553	-0.942129	0.73422
N	0.07929	0.729287	-2.397799
H	-0.078555	0.333669	-3.315701
H	-0.390585	1.623507	-2.362197
Cl	-3.693256	0.0	0.0
