15

C	0.0	0.0	0.0
C	-0.483157	0.149291	-1.441886
Cl	1.816033	0.0	0.0
H	0.023088	0.987321	-1.922657
H	-1.550442	0.366406	-1.350437
N	-0.350256	1.277063	0.768177
O	-0.248872	2.324862	0.135719
O	-0.658403	1.176702	1.945642
N	-0.498176	-1.1125	0.704736
H	-1.497096	-0.930224	0.85528
H	-0.432328	-1.888304	0.050402
N	-0.292334	-1.128219	-2.123994
H	-1.139315	-1.376136	-2.617395
H	0.469871	-1.073811	-2.785147
Cl	-3.604167	0.0	0.0
