17
Coordinates from ORCA-job run
  C   -0.56453419145034     -0.31344592024739     -0.51036139701623
  C   0.81387517788493     -0.40366321535519      0.15634963529601
  H   -0.53481053633535     -0.90657635489493     -1.42408287548812
  H   1.01578927432700     -1.47667533854303      0.26314212761025
  N   -0.78218282003962      1.08086537327527     -1.01042741847084
  O   -1.14085111036519      1.21280462298893     -2.17396420207808
  O   -0.63733839492405      1.99438165116741     -0.19811067324677
  C   -1.72757082684763     -0.70669446323056      0.37887028304216
  H   -1.76364503773725     -0.07508784409979      1.26390892357991
  H   -1.59583973862718     -1.74047753783594      0.70541052839355
  H   -2.67063830388301     -0.63636069912870     -0.16829641677674
  N   0.79067593823684      0.15009404287706      1.49273184774028
  H   1.69104058734415      0.02910307566298      1.93775545556032
  H   0.56120167704136      1.13481364920868      1.45562626959696
  N   1.79516129207674      0.17313465369090     -0.77560706844212
  H   2.24126405365180      0.97958078745514     -0.36218333179105
  H   2.50840295964683     -0.49479648299086     -1.03076168750950
