17
Coordinates from ORCA-job run
  C   -0.51821249020660      0.04970094879453     -0.40367973832546
  C   0.78081178596451     -0.12610471522568      0.40080730876366
  H   -0.27475965329951      0.31329973141477     -1.43721717112472
  H   0.50091843613827     -0.47532161742264      1.39944099475887
  N   -1.20681094994541      1.25952712527590      0.13712841701125
  O   -1.28771521494258      2.24974978097829     -0.58859764905550
  O   -1.60816137218904      1.19551061666510      1.29847042118703
  C   -1.44629751114194     -1.14616212262688     -0.33238804758078
  H   -2.35612804048919     -0.97186119886709     -0.91132499360549
  H   -1.72224226185266     -1.34233014160582      0.70454587591369
  H   -0.92633660633620     -2.01620160288210     -0.73045503994055
  N   1.55493326283730      1.09396913795364      0.58607655994248
  H   1.64230765573035      1.60553323264409     -0.28579189933552
  H   1.11784169406384      1.70523272962351      1.26560688372209
  N   1.53138838227283     -1.18252942156526     -0.25103980175958
  H   1.85681128987698     -0.84930661184856     -1.15371967586648
  H   2.36065159351905     -1.36170587130579      0.30413755529501
