17
Coordinates from ORCA-job run
  C   -0.48435027479760     -0.01668509514200     -0.60340536412531
  C   0.95509084301201      0.16315864537551     -0.05565740079811
  H   -0.42508305063898     -0.41493409528923     -1.61897115723230
  H   1.42405003917996      0.95965387935586     -0.65545387506271
  N   -1.04819458678062      1.35493308808729     -0.78403631824501
  O   -1.00226787419733      1.84134025523408     -1.91318323036087
  O   -1.46037155005450      1.93634701016275      0.22118712923792
  C   -1.38096333597241     -0.86167596593789      0.27274310118237
  H   -0.90037410264402     -1.82760170703653      0.43109864445229
  H   -1.55206658685626     -0.37840615734935      1.23346201771438
  H   -2.34957911233118     -1.02087668896105     -0.20528848655384
  N   1.61375296917558     -1.12745084736089     -0.18084150108695
  H   1.75962219644428     -1.35875142077469     -1.15649707714430
  H   2.52147257603049     -1.05211998891628      0.26417179039715
  N   1.07336428367399      0.55098890597996      1.32994354208585
  H   0.66843897287057     -0.16926296368462      1.91675855704259
  H   0.58845859388602      1.42234314625708      1.50496962849686
