13
Coordinates from ORCA-job run
  C   0.44577000342179     -0.34657538982272     -0.28014578060278
  C   -0.78907655482531      0.24299187126233     -0.28391303977936
  C   1.75564229134320      0.38975131770057     -0.23787662852643
  H   2.33693797680325      0.19269336821175     -1.14254790182555
  H   2.35110311604544      0.06449511520871      0.61871385930032
  H   1.59642390936211      1.46599114288055     -0.15971441180829
  C   0.46933844777135     -1.77028981413475     -0.33384776415468
  N   0.44918928560201     -2.94858679023008     -0.37157205501004
  C   -0.88741741007540      1.67380129539286     -0.20895821793188
  N   -0.98894382263893      2.84387789456862     -0.13165585035964
  N   -1.99124601957512     -0.41523694333338     -0.44878127152852
  H   -1.95750477106774     -1.41733042543977     -0.32239998415906
  H   -2.79221645216664      0.02341735773532     -0.02230095361410
