13
Coordinates from ORCA-job run
  C   0.44810749892368     -0.34037181483743     -0.30778217188947
  C   -0.79278550977064      0.23344757644526     -0.24692685458488
  C   1.74949930857279      0.41154985441982     -0.30232050425071
  H   2.37176992472765      0.09678035305055      0.53927704174380
  H   2.30920433970399      0.21706741512928     -1.22119365643823
  H   1.57986023320135      1.48609915936866     -0.22457848402437
  C   0.48465293001654     -1.76233262151266     -0.39168518083066
  N   0.47022247766054     -2.93980497327934     -0.45418929530013
  C   -0.90262820794683      1.66128815383452     -0.13951543705982
  N   -1.00543182977158      2.82865967039992     -0.03132485633348
  N   -1.99322775316771     -0.43658805846211     -0.37420893170695
  H   -1.94149928341509     -1.44002133960547     -0.26571426716117
  H   -2.77974412873469     -0.01677337495103      0.09616259783607
