13
Coordinates from ORCA-job run
  C   0.41089927584684     -0.31550981431289     -0.61260830951827
  C   -0.76398254635352      0.33400266478176     -0.35962822661582
  C   1.39238106164976     -0.59060501066904      0.49493018008345
  H   2.19632953081508     -1.23895915715644      0.14895513247452
  H   1.84750011370528      0.33615242694141      0.86315396911936
  H   0.89379789380794     -1.08350208575647      1.33568319087610
  C   0.71672911951053     -0.72727031570996     -1.93859114272218
  N   1.01294527696573     -1.08497938794811     -3.02183730232635
  C   -1.71799046183031      0.56021415066915     -1.40589868909568
  N   -2.52279245478439      0.77144864670096     -2.23871607215016
  N   -1.16019935213862      0.72507823594018      0.90575649952472
  H   -0.41627915762290      0.89398678654701      1.56518519216451
  H   -1.88933829957142      1.41994285997243      0.93761557818579
