13
Coordinates from ORCA-job run
  C   0.45609746172325     -0.23226513288662     -0.62159828700569
  C   -0.75611133182893      0.34696549043990     -0.37408645344571
  C   1.43659395712371     -0.47267652838801      0.49484395166524
  H   1.07518437536391     -1.24584672485540      1.18271215999528
  H   2.39801348582018     -0.80204301780959      0.10292983638573
  H   1.59804838702985      0.44593317888162      1.06798583183301
  C   0.79232007510419     -0.62387483324387     -1.94630133072104
  N   1.11293478583082     -0.96639819935477     -3.02749882067236
  C   -1.67427956387974      0.61397897097845     -1.44258692562930
  N   -2.45778836007427      0.84259120037155     -2.29098854535974
  N   -1.14261735311042      0.79988890671296      0.87352986123864
  H   -0.70769911167181      0.34243856344472      1.65991263652058
  H   -2.13169680743074      0.95030812570904      0.99414608519538
