13
Coordinates from ORCA-job run
  C   0.45482845387785     -0.33358329533828     -0.24269064246790
  C   -0.79394506814182      0.21957286986753     -0.32540396197389
  C   1.74330774993692      0.43924886991065     -0.19854022158878
  H   2.31649241739741      0.17998307764806      0.69515993745537
  H   2.36136961668926      0.20367428836854     -1.06915102130487
  H   1.55616047612619      1.51356383370906     -0.19038097131469
  C   0.51668244918164     -1.75684670761572     -0.21252883476155
  N   0.52564499626892     -2.93548941333484     -0.17985916588395
  C   -0.93187468251281      1.64874291718264     -0.33965876170899
  N   -1.06409574511972      2.81825381692268     -0.33414538981345
  N   -1.97135623839579     -0.48085655037284     -0.49671641432412
  H   -1.91623663414057     -1.47242363144948     -0.30983076297734
  H   -2.79797779116749     -0.04184007549799     -0.12325378933583
