13
Coordinates from ORCA-job run
  C   0.47125501509391     -0.11762328346785     -0.65527387675586
  C   -0.80876308622328      0.21985878985723     -0.31775512582857
  C   1.52837669674691     -0.28304495771006      0.40342337443819
  H   1.33684785910977     -1.16648895578033      1.02335249062063
  H   2.51362134023156     -0.40075525458975     -0.04633321066130
  H   1.55485850997561      0.59410885481390      1.05792410263178
  C   0.80989876797537     -0.32351198988348     -2.02069828918357
  N   1.13919188306404     -0.50534981048025     -3.13768807536309
  C   -1.80598397528602      0.41917993189785     -1.32857070932365
  N   -2.65300039248525      0.58392658326117     -2.12940317665586
  N   -1.20948476661639      0.48397896647090      0.97840392158032
  H   -2.20364928802001      0.45494207588215      1.14096154308220
  H   -0.67016856356620      0.03877904972852      1.70465703141879
