13
Coordinates from ORCA-job run
  C   0.43845035211618     -0.30268423980667     -0.58874661684176
  C   -0.78929718308269      0.26004020425676     -0.38396300339180
  C   1.42696852898394     -0.42689203182562      0.53926511727885
  H   2.28418466293844     -1.02861176780916      0.23984870840321
  H   1.80215982184485      0.55504644884741      0.85018551763874
  H   0.96177570166107     -0.90529727095942      1.40718212875755
  C   0.79567877532425     -0.76124681053408     -1.88625085850484
  N   1.13770917216346     -1.15147591796662     -2.94449309162820
  C   -1.74392257864202      0.34598687136443     -1.45025036771428
  N   -2.54939403399982      0.44348107373584     -2.30326072890959
  N   -1.23323236254751      0.68893372784099      0.85328296000141
  H   -2.01655700615491      1.32283482737444      0.83698699662730
  H   -0.51352385060525      0.96088488548170      1.50521323828343
