13
Coordinates from ORCA-job run
  C   0.41880461614410     -0.35510389795298     -0.55946226831398
  C   -0.76973071479494      0.30161626976900     -0.41051096176993
  C   1.39406544998822     -0.45277981809957      0.58272867028667
  H   0.89250265420871     -0.81843002688206      1.48444263720743
  H   1.84188839331853      0.52136624777359      0.81078009421913
  H   2.20431188344568     -1.14009947372517      0.34252143883850
  C   0.74803928260249     -0.94045732577302     -1.81263726225470
  N   1.06493300997298     -1.43804034946976     -2.83300902493984
  C   -1.71741546025959      0.35414934334546     -1.48502936922943
  N   -2.51532672320951      0.42125701966530     -2.34809176268725
  N   -1.18508989247042      0.86125051792005      0.78394241496087
  H   -0.44860668532582      1.14756933715946      1.41064129507039
  H   -1.92937581362042      1.53670215626969      0.70968409861213
