13
Coordinates from ORCA-job run
  C   0.45154412093081     -0.41848209034678     -0.31159943449649
  C   -0.83492771733125      0.01040810511891     -0.15703237680628
  C   1.57543286490655      0.51692044182488     -0.66187548286632
  H   2.30603813115269      0.00266485954805     -1.28970996415900
  H   2.10347363873399      0.88178437436007      0.22697198903939
  H   1.20860103146059      1.38208607716620     -1.22012512741806
  C   0.76785192547179     -1.79266087935448     -0.11856200706250
  N   1.07744662426088     -2.91689747025914      0.03374925136836
  C   -1.88379208031961     -0.92668247609927      0.13659108531726
  N   -2.79439227194416     -1.62460694328564      0.41179560795486
  N   -1.24977217220680      1.32298185237812     -0.32642730300604
  H   -0.56675047618507      2.02309502937760     -0.09523348256558
  H   -2.15975361893043      1.53938911957150      0.04545724470040
