13
Coordinates from ORCA-job run
  C   0.40240523057583     -0.31380766729992     -0.62290078155616
  C   -0.79536136030188      0.26602377183600     -0.31407914184905
  C   1.49480776627342     -0.41937319438077      0.40722517756770
  H   2.31610968943297     -1.03371535044088      0.04051113193903
  H   1.11214803014374     -0.87373269088938      1.32671151246016
  H   1.90291373831592      0.56675231814996      0.65760781612376
  C   0.62623441974617     -0.81393546323302     -1.93481144719425
  N   0.85968400731941     -1.23970514846876     -3.00876774478021
  C   -1.85105313419832      0.33042244496866     -1.28226675118091
  N   -2.73814589275438      0.40913927073138     -2.05217791237175
  N   -1.11137418645301      0.73373139912169      0.94799657610031
  H   -0.32924706369131      1.01512337732508      1.51893264242540
  H   -1.88912124440856      1.37307693257997      0.99201892231598
