13
Coordinates from ORCA-job run
  C   0.45857387823068     -0.32963125917740     -0.26912075483810
  C   -0.79745563002160      0.20866958269774     -0.19615592342755
  C   1.73892969645014      0.45741422950803     -0.25003253361511
  H   2.33640445712124      0.23775964369502     -1.13821706179271
  H   2.33756934699180      0.19728206439126      0.62708017196842
  H   1.53914588010410      1.52943908212159     -0.22419131994203
  C   0.53539548917493     -1.74966601418465     -0.35790634054201
  N   0.55690153976408     -2.92560497854854     -0.44072978321348
  C   -0.94901106850232      1.63502554036886     -0.12811599428879
  N   -1.09107613337785      2.80270726335100     -0.09124960662026
  N   -1.97140728380510     -0.50906826487476     -0.08539156550089
  H   -1.90144976336653     -1.49121756246127     -0.31307043321682
  H   -2.79452040876355     -0.06210932688688     -0.45789885497067
