13
Coordinates from ORCA-job run
  C   0.49090565122782     -0.19775697253462     -0.59789506985666
  C   -0.74949019451571      0.34341697862317     -0.41069902422051
  C   1.38018973596760     -0.50737208532453      0.57631316874478
  H   1.49882700020956      0.38003123515573      1.20746249734363
  H   2.36907553416911     -0.82289067766672      0.24558883912893
  H   0.96150511407061     -1.31157558400041      1.19200322701009
  C   0.93673409927520     -0.48895200388285     -1.91657979834094
  N   1.33631258163530     -0.74348758149293     -2.99557260548296
  C   -1.58348378004265      0.67045891697330     -1.53005739256000
  N   -2.29787640607499      0.95064494469660     -2.42242638643126
  N   -1.24432778008903      0.70675151148173      0.82844658523726
  H   -2.24598526089791      0.80543242278979      0.88182859464190
  H   -0.85238629493491      0.21329889518174      1.61558736478574
