13
Coordinates from ORCA-job run
  C   0.45732510188963     -0.33101678167334     -0.27913888349422
  C   -0.79575351336147      0.20987781313426     -0.18204624176151
  C   1.73963139334595      0.45315379053300     -0.27218364633286
  H   2.34892735659454      0.18671659825648      0.59559208683923
  H   1.54253329943701      1.52534589900369     -0.23631269210853
  H   2.32551321755132      0.23826057655457     -1.16934351937111
  C   0.53030875932191     -1.75026904091285     -0.38132387913385
  N   0.55089842463239     -2.92518859942987     -0.47720377516603
  C   -0.94315201739580      1.63589226599173     -0.09940760056252
  N   -1.08360939084675      2.80345258299455     -0.05227008810008
  N   -1.97014426005869     -0.50555128380752     -0.05915442252749
  H   -2.79708875862295     -0.05302236104321     -0.41666571926547
  H   -1.90638961248707     -1.48565145960148     -0.29754161901555
