13
Coordinates from ORCA-job run
  C   0.48235823330943     -0.20369688537481     -0.60231376050294
  C   -0.75682613184641      0.33533349639771     -0.40264543326491
  C   1.40443185105253     -0.46666845360968      0.55783012868752
  H   1.49957350213001      0.42779784448847      1.18168275933538
  H   1.03240160041669     -1.28408893147882      1.18623493778689
  H   2.39781329837168     -0.74463145845096      0.20812323221705
  C   0.90344314284735     -0.53247447399561     -1.91982793828446
  N   1.29207404988981     -0.82560328085872     -2.99314785717616
  C   -1.61851153995807      0.62247591814050     -1.51205984399198
  N   -2.35569827259868      0.85996391237389     -2.39871314217752
  N   -1.22623702875257      0.72496880133357      0.83819432765644
  H   -0.83067530996899      0.23773407699198      1.62746747143289
  H   -2.22414739489280      0.84888943404246      0.90517511828179
