13
Coordinates from ORCA-job run
  C   0.47307999349057     -0.22715760086944     -0.60124969722861
  C   -0.77490253247979      0.29171076893590     -0.40273418346232
  C   1.34503459191070     -0.60509698952858      0.56598779001426
  H   0.80142433271420     -1.25853181215743      1.25579850698706
  H   1.67313239614437      0.28132096474411      1.12102886127291
  H   2.23646529043746     -1.13290259857372      0.22957326481029
  C   0.96146066735661     -0.40174424697867     -1.92504096092589
  N   1.41171208880893     -0.56051025161058     -3.00269829438662
  C   -1.61990438744381      0.61671719761219     -1.51465942092360
  N   -2.33871193108436      0.90581879766144     -2.40092342437423
  N   -1.34402036195358      0.44974274261997      0.84704302499119
  H   -2.12885371140821      1.08026564822650      0.89067905146103
  H   -0.69691643649309      0.56136737991831      1.61219548176452
