13
Coordinates from ORCA-job run
  C   0.47044485933853     -0.12704031018268     -0.65196897349461
  C   -0.83219702503500      0.10700180595491     -0.31359520742800
  C   1.57019322009909      0.02709885182824      0.36403501093900
  H   1.50726029607528      1.00452863164780      0.85293336420471
  H   2.54844362056216     -0.05437586843296     -0.10799052320718
  H   1.50906072634733     -0.74694076833787      1.13779040499273
  C   0.79315025871298     -0.53096572166717     -1.97642922012845
  N   1.10804257206631     -0.87149022001347     -3.05998107533277
  C   -1.87478124858440      0.00063171845857     -1.29216083345296
  N   -2.75734462798382     -0.08435388782298     -2.06650624161000
  N   -1.22611299589274      0.54863395655117      0.93601536611239
  H   -2.20199963759749      0.42187125654828      1.15341863336120
  H   -0.61216001810823      0.30640055546818      1.69843929504392
