13
Coordinates from ORCA-job run
  C   0.45207992117386     -0.32106255490098     -0.36967485756280
  C   -0.79296394667191      0.22812799945712     -0.22269220429868
  C   1.74676435962383      0.38122607097667     -0.06914765206723
  H   2.34948787594173      0.47510895581450     -0.97686104886353
  H   2.33034939834353     -0.18204725744057      0.66396065584525
  H   1.56734708661822      1.38193256038453      0.32786497308929
  C   0.50168045252501     -1.65230880212407     -0.87350377400608
  N   0.50105465525254     -2.75883822098411     -1.28015945763407
  C   -0.91404727724704      1.56027229638245      0.30008711833780
  N   -1.02193664263426      2.64597912495757      0.74148205915053
  N   -1.97790803069043     -0.35301632969688     -0.62214964043969
  H   -2.80329579074347     -0.06308268339596     -0.12344408514699
  H   -1.93761206149160     -1.34229115943025     -0.82176208640381
