13
Coordinates from ORCA-job run
  C   0.44489059323194     -0.34179583517344     -0.32559300562549
  C   -0.78128857712617      0.26385144187613     -0.29144560343390
  C   1.74934885460133      0.32834314587414      0.00311144763853
  H   2.24685621904885     -0.18368519135984      0.83042266518413
  H   1.59454751583666      1.37105628277376      0.28404172977744
  H   2.42078085885112      0.30090771408024     -0.85899319503455
  C   0.46267988476864     -1.71397501256783     -0.71047515122909
  N   0.43560205561188     -2.84906450755525     -1.02826643174705
  C   -0.87779328803870      1.64004158031630      0.10633540410914
  N   -0.97976713630786      2.76153954688416      0.44836057741013
  N   -1.96821456829981     -0.30514971296821     -0.71291242829844
  H   -1.95231432541313     -1.31099292830703     -0.81614444874857
  H   -2.79732808676474      0.03992347612685     -0.25344156000227
