13
Coordinates from ORCA-job run
  C   0.46471268657625     -0.21390463093956     -0.61975253455223
  C   -0.75898015668824      0.34215192681785     -0.37575540029907
  C   1.42947927653633     -0.47785521194175      0.50513643049507
  H   1.56521522890212      0.42290239343052      1.11232822655338
  H   2.40289513361519     -0.77697582344553      0.11846623825615
  H   1.07033255368207     -1.28076927405969      1.15928715000133
  C   0.82918648950206     -0.56068805299948     -1.94950788799461
  N   1.17405945933411     -0.86851605240144     -3.03371022298456
  C   -1.66033281891960      0.63231403001177     -1.45243631760512
  N   -2.42936573211298      0.87715641960208     -2.30948387226229
  N   -1.17354482548220      0.74871042992791      0.87866445298516
  H   -2.16596455522363      0.88688953228006      0.98530583936072
  H   -0.74969273972148      0.26858431371725      1.65745789804606
