13
Coordinates from ORCA-job run
  C   0.45794893356459     -0.33095563068019     -0.24108365522866
  C   -0.79635432383834      0.21262438796108     -0.31218851696070
  C   1.74106190460173      0.45151357942402     -0.22039468284534
  H   2.32763003826406      0.20877105808318      0.66876257669571
  H   1.54427121288672      1.52440178836315     -0.22439094961152
  H   2.35065490945093      0.20924358709548     -1.09485803103176
  C   0.53049023065169     -1.75379564623558     -0.21426415086896
  N   0.54765977269055     -2.93258127557528     -0.19042091489480
  C   -0.94440473007005      1.64135673772289     -0.33256678180127
  N   -1.08385108732184      2.80997425612755     -0.33085612558137
  N   -1.96983177301046     -0.49706288009523     -0.46612896814235
  H   -2.79889270075562     -0.05800255873750     -0.09834084912473
  H   -1.90638238711396     -1.48648740345357     -0.26926895060425
