13
Coordinates from ORCA-job run
  C   0.47390982493272     -0.20215823731310     -0.61508787310284
  C   -0.77531540477753      0.29990172523024     -0.38380244372010
  C   1.45612269685727     -0.37420652838691      0.51234380976789
  H   1.54839314611516      0.55417285635545      1.08500046779414
  H   1.14123596357874     -1.16938607694724      1.19795389755462
  H   2.44176083286597     -0.63802865677434      0.13105475740866
  C   0.84747199025575     -0.58317983757267     -1.93284534737265
  N   1.20053960890254     -0.91782098952411     -3.00631216174165
  C   -1.69612012398313      0.50067542536776     -1.46415202674448
  N   -2.48221088073286      0.67223971777648     -2.32334252575630
  N   -1.20365564357298      0.73222691130607      0.85749006251778
  H   -2.20138384476351      0.82308498980770      0.96545500096051
  H   -0.75274816567814      0.30147870067467      1.65024438243443
