13
Coordinates from ORCA-job run
  C   0.45803008591038     -0.21984979033958     -0.62149220631540
  C   -0.79744943536145      0.24455371018372     -0.35235613642415
  C   1.42386049412997     -0.53284173706661      0.48892207258851
  H   1.85936407173626      0.38136994813300      0.90839802363995
  H   2.24206955205385     -1.15285385028161      0.12450380711987
  H   0.91439273579340     -1.06938886422250      1.29555599566463
  C   0.86539092595293     -0.40544625309929     -1.97155131251826
  N   1.25152548308915     -0.55463417272793     -3.07499419739955
  C   -1.73073631802334      0.48765563175722     -1.41376614818104
  N   -2.52259075478504      0.70633763763406     -2.25727850905031
  N   -1.28089243740034      0.42670118231214      0.93407293471985
  H   -0.58247098831984      0.67883956130501      1.61691370548459
  H   -2.10249341477592      1.00855699641238      0.99707197067130
