13
Coordinates from ORCA-job run
  C   0.47185099603967     -0.15141071888905     -0.64244297654601
  C   -0.77479129012577      0.31379918697954     -0.33275511597002
  C   1.46308433429365     -0.48061590620228      0.44171244027258
  H   2.45250503519729     -0.65578714052279      0.02249126822465
  H   1.53147282564036      0.34427847983834      1.15725300299950
  H   1.16858730201796     -1.38310167736961      0.98999808032155
  C   0.83084029248086     -0.34348655375300     -2.00487770453738
  N   1.17286636479894     -0.51622026444957     -3.11953340728863
  C   -1.69794030525411      0.68023329364085     -1.36701707541511
  N   -2.48310079171950      0.98658746943810     -2.18942242353518
  N   -1.19327193965391      0.56426409982659      0.96263705084371
  H   -2.19174878682797      0.63708055092040      1.08084721743321
  H   -0.75035403688748      0.00637918054248      1.67710964319714
