13
Coordinates from ORCA-job run
  C   0.48183923847060     -0.25376090097158     -0.57112768279502
  C   -0.74252661517808      0.34117113657877     -0.45624837203057
  C   1.35355567438822     -0.45449707648088      0.64001047083479
  H   0.91318981804455     -1.18002621890011      1.33309215034512
  H   1.48712674116732      0.49215427313474      1.17353464877245
  H   2.33729549820199     -0.82637044976236      0.35586925593621
  C   0.95048093601790     -0.66467427059804     -1.84793765294350
  N   1.38192123333328     -1.02832291406972     -2.88315970508426
  C   -1.56022535540552      0.57571714034659     -1.60983920261446
  N   -2.26030018925692      0.78313608831513     -2.53348093599799
  N   -1.23708411417340      0.83670041110491      0.73691093382376
  H   -2.23424225082299      0.97762262828157      0.76686443121495
  H   -0.87303061478693      0.40115015302096      1.57051166053851
