16

C	-0.464068	0.009039	-1.437771
C	0.0	0.0	0.0
Cl	0.064737	-1.436545	-2.266593
H	1.093957	0.0	0.0
N	-1.981839	0.149768	-1.529006
O	-2.410492	1.300749	-1.503108
O	-2.64895	-0.878909	-1.496702
N	0.079614	1.214887	-2.202427
O	-0.27277	1.286525	-3.375406
O	0.833497	1.972818	-1.61199
C	-0.447648	-1.216306	0.657809
N	-0.807582	-2.152221	1.274576
N	-0.401225	1.201693	0.707795
H	-1.050344	0.999388	1.455733
H	0.448349	1.609528	1.091463
H	2.51045	0.0	0.0
