16

C	-0.385551	0.069977	-1.459985
C	0.0	0.0	0.0
Cl	0.239184	1.51581	-2.208033
H	1.09623	0.0	0.0
N	0.13078	-1.173056	-2.185675
O	-0.538322	-2.181328	-1.975935
O	1.165933	-1.089368	-2.825906
N	-1.904109	0.059387	-1.747672
O	-2.643909	0.30435	-0.801093
O	-2.244395	-0.143002	-2.90526
C	-0.50814	-1.198365	0.644055
N	-0.867965	-2.177178	1.189018
N	-0.273916	1.175785	0.794582
H	-1.117508	1.657422	0.521016
H	0.539207	1.782031	0.732904
H	2.516978	0.0	0.0
