16

C	-0.480272	0.029223	-1.426353
C	0.0	0.0	0.0
Cl	0.413154	1.182733	-2.371344
H	1.093735	0.0	0.0
N	-0.334671	-1.366719	-2.044785
O	0.801686	-1.718295	-2.3186
O	-1.362656	-2.030813	-2.146726
N	-1.989993	0.341665	-1.557628
O	-2.402905	0.679082	-2.658362
O	-2.662992	0.189572	-0.546082
C	-0.456204	-1.178425	0.715684
N	-0.772335	-2.114545	1.355687
N	-0.300347	1.267324	0.639697
H	-1.07599	1.188816	1.28207
H	0.545403	1.546496	1.132361
H	2.522893	0.0	0.0
