16

C	-0.516445	0.014928	-1.409864
C	0.0	0.0	0.0
Cl	0.164134	-1.284189	-2.352643
H	1.094514	0.0	0.0
N	-2.059076	-0.054177	-1.522757
O	-2.528904	-0.222168	-2.63935
O	-2.690552	0.098188	-0.483996
N	-0.177297	1.369408	-2.044014
O	-1.076929	2.20097	-2.049498
O	0.968862	1.51371	-2.432344
C	-0.421045	-1.223029	0.669217
N	-0.73547	-2.187728	1.2659
N	-0.298705	1.231678	0.694102
H	-1.129203	1.168798	1.264966
H	0.518608	1.457177	1.256834
H	2.526503	0.0	0.0
