16

C	-0.580683	0.018527	-1.38336
C	0.0	0.0	0.0
Cl	-2.348975	-0.145085	-1.452095
H	1.092254	0.0	0.0
N	-0.154029	1.327011	-2.054212
O	-0.979089	2.211125	-2.207554
O	1.035096	1.35382	-2.341094
N	-0.004225	-1.076095	-2.269846
O	-0.20943	-0.956774	-3.473017
O	0.607332	-1.976833	-1.710484
C	-0.453734	-1.159433	0.749585
N	-0.820348	-2.043971	1.434481
N	-0.281681	1.271907	0.648178
H	-1.056592	1.214015	1.295336
H	0.570352	1.529379	1.14474
H	2.5141	0.0	0.0
