16

C	-0.422188	0.039407	-1.458645
C	0.0	0.0	0.0
Cl	0.318854	-1.258093	-2.360048
H	1.094058	0.0	0.0
N	-1.944533	-0.021313	-1.58692
O	-2.484286	-1.07328	-1.898582
O	-2.513805	1.017564	-1.239857
N	-0.065116	1.351497	-2.152302
O	-0.525075	1.483859	-3.281949
O	0.669175	2.134266	-1.56553
C	-0.457996	-1.272337	0.549068
N	-0.796172	-2.308216	0.992239
N	-0.392799	1.094361	0.852675
H	-1.301331	1.469509	0.611823
H	0.315782	1.812709	0.769308
H	2.509799	0.0	0.0
