16

C	-0.560432	0.0452	-1.39436
C	0.0	0.0	0.0
Cl	-2.32374	0.202679	-1.474515
H	1.090506	0.0	0.0
N	0.040276	1.18592	-2.206343
O	0.844901	1.917789	-1.649305
O	-0.320134	1.2374	-3.379469
N	-0.112679	-1.215893	-2.136386
O	1.027232	-1.160574	-2.582651
O	-0.869487	-2.176069	-2.148658
C	-0.440272	-1.214363	0.665841
N	-0.794738	-2.176636	1.243811
N	-0.353818	1.211742	0.730308
H	0.526166	1.594279	1.073664
H	-0.94971	0.998861	1.517382
H	2.527894	0.0	0.0
