16

C	-0.492116	0.04208	-1.420513
C	0.0	0.0	0.0
Cl	0.257807	1.329033	-2.310542
H	1.093797	0.0	0.0
N	-0.223997	-1.305159	-2.100628
O	-1.081537	-2.159559	-1.891297
O	0.819931	-1.443002	-2.716053
N	-2.025525	0.200768	-1.55124
O	-2.675244	0.213511	-0.513594
O	-2.470192	0.285018	-2.688941
C	-0.443623	-1.177489	0.725332
N	-0.710891	-2.108343	1.395085
N	-0.290133	1.258392	0.666447
H	-1.070281	1.170742	1.302085
H	0.555308	1.514695	1.173043
H	2.522863	0.0	0.0
