16

C	-0.485115	0.000351	-1.427822
C	0.0	0.0	0.0
Cl	-0.141982	-1.522395	-2.215262
H	1.098605	0.0	0.0
N	-1.98475	0.301234	-1.502538
O	-2.742025	-0.626491	-1.239153
O	-2.300848	1.468906	-1.706015
N	0.168302	1.123459	-2.237097
O	-0.063264	1.11169	-3.440904
O	0.867712	1.920508	-1.630076
C	-0.442984	-1.193078	0.698194
N	-0.7499	-2.121979	1.352951
N	-0.398323	1.224213	0.685343
H	0.462067	1.671681	0.990566
H	-0.970674	1.018935	1.493413
H	2.506992	0.0	0.0
