16

C	-0.427334	0.025166	-1.490896
C	0.0	0.0	0.0
Br	0.486502	-1.30933	-2.494562
H	1.093781	0.0	0.0
N	-1.944093	-0.136448	-1.590635
O	-2.422144	-1.177409	-2.00906
O	-2.567071	0.830724	-1.151656
N	-0.153926	1.36738	-2.157763
O	-0.74424	1.561819	-3.215167
O	0.644959	2.114289	-1.610231
C	-0.478356	-1.277343	0.543832
N	-0.906104	-2.277969	0.986931
N	-0.431998	1.085493	0.842681
H	0.183828	1.874068	0.696556
H	-1.394123	1.349336	0.674546
Br	3.388111	0.0	0.0
