16

C	-0.503758	0.00029	-1.441178
C	0.0	0.0	0.0
Br	0.371641	-1.325522	-2.490603
H	1.094432	0.0	0.0
N	-2.022791	-0.186482	-1.531424
O	-2.496429	-0.444782	-2.62756
O	-2.650659	-0.008591	-0.492131
N	-0.259223	1.399611	-2.024053
O	-1.247654	2.107597	-2.168738
O	0.902484	1.685857	-2.241414
C	-0.419606	-1.244908	0.658977
N	-0.747817	-2.213969	1.237437
N	-0.391618	1.220156	0.674433
H	0.350246	1.486817	1.309331
H	-1.270045	1.124155	1.16285
Br	3.368802	0.0	0.0
