16

C	-0.478635	-0.002582	-1.449641
C	0.0	0.0	0.0
Br	-2.380903	-0.260266	-1.611297
H	1.093183	0.0	0.0
N	-0.055401	1.325375	-2.085098
O	1.152429	1.401762	-2.253181
O	-0.903296	2.164837	-2.330845
N	0.190648	-1.084778	-2.286409
O	0.104069	-0.949531	-3.499598
O	0.72205	-1.998724	-1.673876
C	-0.468353	-1.193757	0.711216
N	-0.876516	-2.078762	1.368571
N	-0.420234	1.249495	0.610405
H	-1.330418	1.167215	1.044075
H	0.268624	1.509737	1.30511
Br	3.385348	0.0	0.0
