16

C	-0.508515	0.014292	-1.440236
C	0.0	0.0	0.0
Br	0.331001	-1.330438	-2.493804
H	1.094468	0.0	0.0
N	-2.030507	-0.136013	-1.532417
O	-2.657036	0.043404	-0.492227
O	-2.506723	-0.372045	-2.632685
N	-0.22951	1.403002	-2.024916
O	0.935867	1.651944	-2.271966
O	-1.197752	2.142231	-2.142042
C	-0.420055	-1.247822	0.652575
N	-0.741038	-2.229023	1.214342
N	-0.387168	1.217591	0.681436
H	0.356635	1.480724	1.314937
H	-1.265915	1.125037	1.170138
Br	3.370742	0.0	0.0
