16

C	-0.38646	-0.006747	-1.466381
C	0.0	0.0	0.0
Br	0.5426	1.341927	-2.459493
H	1.093558	0.0	0.0
N	-0.054498	-1.378377	-2.068948
O	1.111883	-1.715755	-1.960561
O	-0.970635	-2.016011	-2.573176
N	-1.893291	0.171489	-1.68383
O	-2.589945	-0.128437	-0.719287
O	-2.286084	0.566193	-2.771194
C	-0.422663	-1.241174	0.647117
N	-0.727137	-2.220508	1.230555
N	-0.474635	1.212933	0.616175
H	-1.418916	1.099181	0.963677
H	0.136863	1.475767	1.380255
Br	2.751007	0.0	0.0
