11
Coordinates from ORCA-job run
  C   0.81427997862815     -0.51308978943665     -0.24970695684888
  C   -0.45222462517529     -0.36283261593977      0.57998912800809
  Cl  1.25082668602445     -2.24316684288752     -0.28791017309053
  H   -0.28989481893171     -0.74257792980680      1.59028574615300
  H   1.63793584138873      0.02189768096860      0.22092501028041
  H   -1.30217880160254     -0.86762671937998      0.12473879061345
  C   0.62329037735544     -0.00679902719372     -1.60501785686144
  N   0.44488668655557      0.40753544706892     -2.68906481058552
  N   -0.81992429907774      1.08194813968690      0.72211229869589
  O   0.10446509987573      1.89139309181666      0.74274607363016
  O   -2.01146212504079      1.33431856510334      0.85190275000537
