15

C	0.0	0.0	0.0
C	-0.51045	-0.256709	-1.406397
F	1.399774	0.0	0.0
H	-1.603508	-0.157368	-1.276832
H	-0.25906	-1.292832	-1.68123
C	-0.495382	1.31298	0.564623
H	-0.172229	2.113635	-0.10325
H	-0.08021	1.468868	1.565018
H	-1.590204	1.205402	0.572859
C	-0.396654	-1.122509	0.87843
N	-0.546086	-2.016587	1.62401
N	0.047149	0.737934	-2.323631
H	0.986794	0.467379	-2.587616
H	-0.518564	0.761518	-3.161244
F	-2.868435	0.0	0.0
