15

C	0.0	0.0	0.0
C	-0.501255	-0.166761	-1.423999
F	1.400148	0.0	0.0
H	-1.594903	-0.078036	-1.29846
H	-0.243704	-1.182209	-1.765184
C	-0.494288	1.277994	0.639478
H	-0.085653	1.370692	1.65009
H	-0.162854	2.115713	0.023754
H	-1.589935	1.171781	0.633199
C	-0.401067	-1.171202	0.807316
N	-0.557748	-2.108588	1.496367
N	0.063863	0.887966	-2.269031
H	-0.483932	0.953109	-3.116871
H	1.011535	0.641969	-2.527631
F	-2.858746	0.0	0.0
