16

C	-0.436894	0.017318	-1.461419
C	0.0	0.0	0.0
F	-0.159894	-1.23237	-2.003734
H	1.093219	0.0	0.0
C	-1.895958	0.217456	-1.592436
N	-3.064589	0.283955	-1.688358
C	0.275197	1.010642	-2.294222
N	0.79271	1.736257	-3.059747
C	-0.407866	-1.240531	0.756562
H	0.046828	-1.187627	1.745673
H	-0.006991	-2.115698	0.244869
H	-1.492785	-1.334595	0.86381
N	-0.424489	1.208813	0.636957
O	-0.375901	1.267174	1.876501
O	-0.687647	2.189396	-0.096594
H	2.432579	0.0	0.0
