16

C	-0.42603	0.039661	-1.464098
C	0.0	0.0	0.0
F	-0.154426	-1.207837	-2.018546
H	1.093202	0.0	0.0
C	-1.88271	0.251586	-1.603922
N	-3.051882	0.313797	-1.706317
C	0.300296	1.03168	-2.28419
N	0.823856	1.745364	-3.05666
C	-0.421405	-1.247244	0.737348
H	-1.508582	-1.336947	0.829573
H	0.020048	-1.206823	1.732793
H	-0.018572	-2.118707	0.22061
N	-0.416286	1.205299	0.648267
O	-0.649189	2.199587	-0.076983
O	-0.379933	1.248308	1.889914
H	2.43038	0.0	0.0
