16

C	-0.441332	-0.15022	-1.433507
C	0.0	0.0	0.0
F	-1.837009	-0.20363	-1.546589
H	1.11116	0.0	0.0
C	0.032023	0.90018	-2.358607
N	0.379056	1.617904	-3.221476
C	0.069194	-1.434212	-1.964314
N	0.428073	-2.459051	-2.411359
C	-0.366247	-1.170999	0.886316
H	-1.446551	-1.284811	1.008126
H	0.05808	-2.087139	0.470118
H	0.091917	-1.009262	1.860935
N	-0.434052	1.257024	0.547901
O	-0.468858	1.362407	1.785496
O	-0.628798	2.212065	-0.227367
H	2.427546	0.0	0.0
