16

C	-0.38744	0.227307	-1.454456
C	0.0	0.0	0.0
F	0.312059	1.265421	-2.031913
H	1.11052	0.0	0.0
C	-0.065808	-0.984284	-2.244083
N	0.172968	-1.936022	-2.88867
C	-1.834285	0.488128	-1.621837
N	-2.991282	0.623874	-1.776594
C	-0.398551	-1.345394	0.565491
H	-1.484712	-1.474984	0.624258
H	0.03695	-2.143728	-0.038302
H	0.02148	-1.419927	1.567617
N	-0.461468	1.088925	0.819743
O	-0.460918	0.919684	2.051429
O	-0.710005	2.181518	0.272679
H	2.430448	0.0	0.0
