16

C	-0.332906	-0.1081	-1.486691
C	0.0	0.0	0.0
F	0.009018	-1.391078	-1.898909
H	1.111272	0.0	0.0
C	-1.77498	0.048988	-1.773427
N	-2.916187	0.077687	-2.053587
C	0.405352	0.827666	-2.365463
N	0.875123	1.478027	-3.225204
C	-0.439044	-1.178907	0.832015
H	0.014339	-1.08076	1.818535
H	-0.069463	-2.097628	0.376838
H	-1.526707	-1.230545	0.944577
N	-0.471961	1.246618	0.502818
O	-0.643047	2.171684	-0.323731
O	-0.579184	1.39304	1.732274
H	2.417432	0.0	0.0
