16

C	-0.437931	0.036315	-1.45891
C	0.0	0.0	0.0
F	-0.147443	-1.203924	-2.021806
H	1.1054	0.0	0.0
C	-1.899563	0.220657	-1.584394
N	-3.070465	0.261075	-1.677942
C	0.262488	1.044536	-2.28126
N	0.774014	1.765733	-3.054622
C	-0.39632	-1.253673	0.740655
H	-1.480742	-1.356217	0.850589
H	0.061667	-1.210474	1.728573
H	0.008078	-2.119547	0.215525
N	-0.419599	1.196523	0.652584
O	-0.35726	1.242961	1.893925
O	-0.684964	2.187382	-0.068791
H	2.40979	0.0	0.0
