12

C	0.0	0.0	0.0
C	-0.5739	-0.083901	-1.376747
Cl	1.764162	0.0	0.0
H	-1.759197	-0.013951	-1.017198
H	-0.433352	-0.798733	0.595822
H	-0.394757	0.929297	0.422108
N	-0.3319	-1.42617	-1.986477
O	-1.116465	-2.335538	-1.690938
O	0.665044	-1.556661	-2.691389
C	-0.025988	0.928196	-2.259295
N	0.423764	1.735844	-2.995003
H	-2.758479	0.0	0.0
