14

C	0.0	0.0	0.0
C	-0.607113	0.009288	-1.392931
Br	1.951071	0.0	0.0
H	-1.721153	0.189123	-1.046374
H	-0.324821	-0.93082	0.460744
C	-0.403497	1.095875	0.889367
N	-0.554249	1.939894	1.694062
N	-0.554962	-1.225321	-2.092524
H	-1.316396	-1.799903	-1.748134
H	0.332041	-1.705833	-1.986921
N	-0.076367	1.127666	-2.185451
O	-0.078054	2.23171	-1.625614
O	0.30454	0.936047	-3.344815
H	-2.742642	0.0	0.0
