19

C	0.0	0.0	0.0
C	-0.442224	0.317611	-1.428998
F	1.36293	0.0	0.0
H	0.166203	-0.391385	-2.007146
N	-0.368148	1.119283	0.973398
O	-1.242498	1.917392	0.652186
O	0.235577	1.111303	2.04221
C	-0.539246	-1.281371	0.579229
H	-0.048001	-1.470146	1.534716
H	-1.620128	-1.20857	0.723425
H	-0.32501	-2.104215	-0.106161
N	0.039984	1.657065	-1.787473
H	-0.689703	2.32153	-1.558601
H	0.171415	1.688962	-2.790742
C	-1.911224	0.066849	-1.734314
H	-2.224529	-0.958636	-1.532131
H	-2.080976	0.26153	-2.799225
H	-2.582975	0.701545	-1.155547
Br	-5.03058	0.0	0.0
