19

C	0.0	0.0	0.0
C	-0.423096	0.191316	-1.472098
F	1.379253	0.0	0.0
H	0.325618	0.892868	-1.853971
N	-0.310387	1.307571	0.745698
O	0.059182	2.339001	0.18548
O	-0.838813	1.252691	1.851127
C	-0.582318	-1.160731	0.741095
H	-1.67389	-1.088601	0.710489
H	-0.255786	-1.155047	1.780509
H	-0.260624	-2.086374	0.263335
N	-1.719778	0.763444	-1.72668
H	-1.780085	1.704316	-1.360764
H	-2.495893	0.246498	-1.311364
C	-0.292499	-1.12773	-2.22536
H	0.666666	-1.616411	-2.034078
H	-1.103987	-1.805224	-1.950305
H	-0.38141	-0.921121	-3.292256
Br	-4.510083	0.0	0.0
