19

C	0.0	0.0	0.0
C	-0.681714	-0.049582	-1.366876
F	1.36097	0.0	0.0
H	-1.72311	0.233601	-1.150116
N	-0.336803	1.350704	0.650214
O	0.305735	2.324048	0.246981
O	-1.191506	1.378215	1.526066
C	-0.462624	-1.104764	0.913247
H	-0.057031	-0.950474	1.914734
H	-0.078021	-2.037502	0.4986
H	-1.552648	-1.124194	0.951955
N	-0.623588	-1.439595	-1.850542
H	-0.575984	-1.431683	-2.862164
H	-1.497101	-1.889293	-1.59927
C	-0.093718	0.872826	-2.417615
H	-0.733484	0.837556	-3.30575
H	0.908463	0.537672	-2.694155
H	-0.042278	1.900881	-2.066457
Br	-4.052104	0.0	0.0
