19

C	0.0	0.0	0.0
C	-0.442966	0.048945	-1.473786
F	1.375582	0.0	0.0
H	0.18294	0.834939	-1.908435
N	-0.319979	1.351359	0.661551
O	-0.510063	1.368575	1.873867
O	-0.265582	2.348169	-0.056254
C	-0.554542	-1.110876	0.839107
H	-0.171081	-1.041348	1.855755
H	-1.645126	-1.043307	0.864302
H	-0.256908	-2.06658	0.407186
N	-1.817477	0.383597	-1.741707
H	-2.066683	1.291912	-1.374413
H	-2.490419	-0.261513	-1.335743
C	-0.101765	-1.272242	-2.155306
H	0.921085	-1.59159	-1.939949
H	-0.795954	-2.056842	-1.84558
H	-0.216367	-1.139958	-3.231881
Br	-4.663067	0.0	0.0
