14

C	0.0	0.0	0.0
C	-0.526594	0.287689	-1.418945
F	1.369008	0.0	0.0
H	-1.633974	0.303823	-1.307931
C	-0.357559	1.140944	0.89505
N	-0.570916	2.042353	1.617913
N	-0.479144	-1.271413	0.41078
H	-1.50504	-1.227299	0.375592
H	-0.20383	-1.435959	1.3736
C	-0.126601	-0.779968	-2.33649
N	0.1771	-1.611158	-3.107824
C	-0.047912	1.578039	-1.912787
N	0.335013	2.61056	-2.32063
Cl	-3.419105	0.0	0.0
