14

C	0.0	0.0	0.0
C	-0.362148	-0.123952	-1.54604
F	1.401671	0.0	0.0
H	0.608244	-0.047837	-2.051195
C	-0.384625	1.332953	0.505445
N	-0.47432	2.430211	0.914951
N	-0.429752	-1.013788	0.882554
H	-0.20162	-1.922294	0.490853
H	-1.452606	-0.929552	0.93501
C	-1.187017	0.9441	-2.11463
N	-1.665272	1.83009	-2.720166
C	-0.885648	-1.453256	-1.85639
N	-1.148666	-2.567275	-2.117387
Cl	-3.191076	0.0	0.0
