14

C	0.0	0.0	0.0
C	-0.361147	-0.068858	-1.550378
F	1.401588	0.0	0.0
H	0.614208	0.008805	-2.04972
C	-0.391338	1.30857	0.558228
N	-0.498013	2.387739	1.009902
N	-0.426806	-1.052115	0.840586
H	-1.451055	-0.981378	0.883843
H	-0.179674	-1.942903	0.420814
C	-1.1591	1.037755	-2.080994
N	-1.604766	1.972173	-2.635944
C	-0.905889	-1.37605	-1.911096
N	-1.20667	-2.46376	-2.23653
Cl	-3.180402	0.0	0.0
