14

C	0.0	0.0	0.0
C	-0.432539	-0.219035	-1.49401
F	1.369634	0.0	0.0
H	0.532657	-0.29094	-2.013138
C	-0.353377	1.367548	0.473453
N	-0.46293	2.4486	0.921312
N	-0.436712	-1.071284	0.818418
H	-1.464808	-1.060151	0.777107
H	-0.15545	-0.884479	1.775644
C	-1.133581	0.905979	-2.117837
N	-1.513244	1.831463	-2.732396
C	-1.104051	-1.496116	-1.747878
N	-1.493001	-2.550354	-2.087223
Cl	-3.20932	0.0	0.0
