14

C	0.0	0.0	0.0
C	-0.428571	-0.073831	-1.507826
F	1.374711	0.0	0.0
H	0.538512	-0.083199	-2.029222
C	-0.350755	1.316693	0.600852
N	-0.452492	2.351726	1.148667
N	-0.43623	-1.144587	0.712077
H	-1.464163	-1.131773	0.664283
H	-0.162527	-1.044628	1.684155
C	-1.13596	1.101963	-2.021047
N	-1.526032	2.075512	-2.548999
C	-1.087921	-1.325864	-1.888311
N	-1.475561	-2.346832	-2.318051
Cl	-3.202532	0.0	0.0
