15

C	0.0	0.0	0.0
C	-0.356599	0.104584	-1.501166
Cl	1.759706	0.0	0.0
H	0.291655	0.875919	-1.924646
N	-0.419981	1.252262	0.735323
O	-0.44982	2.287976	0.068781
O	-0.494262	1.183255	1.960027
C	-0.619971	-1.153116	0.629838
N	-0.645258	-2.238188	1.115483
C	-1.77272	0.499863	-1.70605
N	-2.590888	0.880282	-2.486973
N	-0.021851	-1.173352	-2.121044
H	-0.093069	-1.058322	-3.125251
H	-0.728882	-1.850727	-1.847382
H	-2.088979	0.0	0.0
