17

C	0.0	0.0	0.0
C	-0.367393	-0.207295	-1.487447
F	1.332334	0.0	0.0
H	-1.422982	-0.429455	-1.581553
N	-0.746117	1.073526	0.663554
O	-0.730365	1.028399	1.924477
O	-0.690646	2.157741	0.003855
N	-0.299163	-1.330129	0.746278
O	-1.231079	-2.02675	0.368376
O	0.472845	-1.595206	1.660373
N	0.452134	-1.257687	-2.014488
H	1.411356	-0.940218	-2.080749
H	0.11998	-1.529107	-2.929873
N	-0.152171	1.071289	-2.289684
O	-1.125981	1.526891	-2.88312
O	1.00258	1.475704	-2.400402
H	-2.206721	0.0	0.0
