17

C	0.0	0.0	0.0
C	-0.237694	-0.035	-1.541071
F	1.336253	0.0	0.0
H	0.287037	0.8495	-1.899634
N	-0.745933	1.092894	0.595898
O	-0.749466	1.115685	1.861575
O	-0.702411	2.149054	-0.119078
N	-0.291152	-1.2934	0.833546
O	-1.346482	-1.891012	0.667212
O	0.598955	-1.626393	1.605902
N	-1.53721	-0.064408	-2.086174
H	-2.070399	-0.867451	-1.788874
H	-1.50244	0.037338	-3.093247
N	0.601867	-1.199262	-2.109857
O	0.53603	-2.301015	-1.568293
O	1.204591	-0.969094	-3.161071
H	-1.977277	0.0	0.0
