15
Coordinates from ORCA-job run
  C   0.83314328143667     -0.76965242872083     -0.20194077914428
  C   -0.53548617569493     -0.22629969131363      0.32145526711950
  Cl  0.70672706349731     -2.54053740835786     -0.43223772806116
  H   -0.72689910092727     -0.79683439204359      1.23794602467328
  C   1.14881078308842     -0.13933889657462     -1.48351438925973
  N   1.37990164834675      0.41798738032916     -2.49179527281214
  C   1.90287553984211     -0.51078912000295      0.76346661384575
  N   2.72014681776347     -0.28435185475935      1.57725348352204
  N   -1.53170570784577     -0.50563704055293     -0.68822482477485
  H   -2.24310425362751     -1.14519485389711     -0.37037636515569
  H   -1.96089579919536      0.33652013007843     -1.04241703595064
  C   -0.43202677182541      1.25857403483642      0.64400625881576
  H   0.35121274959098      1.47274586613803      1.37266153915948
  H   -0.22783777768676      1.83298137555187     -0.26436470400207
  H   -1.38386229676269      1.59882689928897      1.05708191202474
