15
Coordinates from ORCA-job run
  C   0.94553802578411     -0.12219658685420     -0.51222245874206
  C   -0.42923963742201     -0.16077151620861      0.22756628599085
  Cl  1.04320243238388      1.25586525391805     -1.64601607923687
  H   -0.31403507956339     -0.97959849213834      0.95555926166941
  C   2.03174382209786     -0.00780465931388      0.46383541775851
  N   2.86136087957686      0.08697943917816      1.29063516561806
  C   1.09815234672948     -1.36586046460552     -1.27073089598017
  N   1.16676693208199     -2.39055754599690     -1.84182979567116
  N   -1.45527948903659     -0.41212555232943     -0.75955926861389
  H   -1.60193767340483     -1.40143017367086     -0.90962948498340
  H   -2.33218822853156      0.01321548400453     -0.49363119660262
  C   -0.69540329861608      1.13157470450235      0.98005101963803
  H   -1.57995543307954      1.00319214455298      1.60849787778052
  H   -0.88134164596236      1.94646673719052      0.27902518314436
  H   0.13961604696219      1.40405122777113      1.62744896823042
