15
Coordinates from ORCA-job run
  C   1.03592008611293     -0.41924118201795     -0.03422113338114
  C   -0.40357286558568     -0.08479929561506      0.46030769621499
  Cl  2.23633942159647     -0.04874788441193      1.24771298046112
  H   -0.50239048996793     -0.60619277028505      1.42305955715213
  C   1.11235439659516     -1.85194742411477     -0.32714668515242
  N   1.11794666597982     -3.01114871218432     -0.51918194180699
  C   1.35506320474135      0.35782257125452     -1.23163911740159
  N   1.60091823977407      1.02000442041633     -2.17032024942106
  N   -1.29849657601433     -0.57662651414690     -0.56828550035302
  H   -2.12305785847315      0.00093829127719     -0.65476154648724
  H   -1.57887487907106     -1.53506979263430     -0.40865919506005
  C   -0.59240624191568      1.40880934073900      0.65890703801092
  H   -1.57092101413594      1.58962055268558      1.11011082906282
  H   0.16593850451253      1.83167945227130      1.31706285189284
  H   -0.55276059414855      1.92389894676634     -0.30394558373129
