15
Coordinates from ORCA-job run
  C   0.85657044918293     -0.23843119938055     -0.50318882003539
  C   -0.48272088497854     -0.12914513142462      0.32222165961786
  Cl  0.90713977302328      1.01345074036930     -1.78821812321667
  H   -0.39570024070284     -0.92905591592992      1.06794268210095
  C   2.01717936463790     -0.06937204477828      0.36891872963874
  N   2.91217486789404      0.06587255668745      1.11893662096348
  C   0.90246720704856     -1.55366475992860     -1.14231751894122
  N   0.86195162357626     -2.62530862029640     -1.62340250947367
  N   -1.66645465819371     -0.37719417469919     -0.45466811787408
  H   -1.67604916338854     -1.30370655976562     -0.86257762203338
  H   -1.78307620029526      0.31291045181243     -1.18587892287673
  C   -0.58302013465083      1.20935499948367      1.03551874790791
  H   0.29030655906597      1.40765364976828      1.65906133838781
  H   -0.69298190982065      2.02646755496801      0.31974522411503
  H   -1.47078665239855      1.18916845311403      1.66790663171935
