15
Coordinates from ORCA-job run
  C   0.87648642706359     -0.12205610256846     -0.51083465207327
  C   -0.46975580377585     -0.19611829492551      0.30714072083103
  Cl  0.81699040128733      1.22172945215305     -1.69921179934202
  H   -0.31267240365712     -1.03799996510059      0.99279246614158
  C   2.01412549253246      0.08589912537575      0.38277858775187
  N   2.89102080536719      0.24549675953034      1.14919724868573
  C   1.04365536767052     -1.37623201380545     -1.24525425643868
  N   1.10204391453697     -2.40834366023642     -1.80454679148586
  N   -1.62378782241887     -0.49165762526754     -0.49739830949459
  H   -1.54652174293009     -1.38063372167996     -0.97563004210095
  H   -1.80196568676165      0.23942984573511     -1.17438561231688
  C   -0.69367743146846      1.07108466894915      1.11612949357883
  H   -1.57742724660336      0.92360354001652      1.73716765151787
  H   -0.87587734929034      1.92567221497939      0.46146068152480
  H   0.15636307844769      1.30112577684466      1.76059461322052
