15
Coordinates from ORCA-job run
  C   0.82591523635145     -0.68111395714202     -0.33336540537595
  C   -0.51513810508169     -0.25267943781199      0.31934444055202
  Cl  0.72671231486723     -2.41282159208110     -0.80797175468061
  H   -0.63147536204900     -0.91246047691842      1.19280403744471
  C   1.09171356438638      0.12236403982010     -1.52704548312427
  N   1.32227669441557      0.80091970153171     -2.45787459371063
  C   1.92708182233583     -0.54175296810684      0.62179784734080
  N   2.77552030059659     -0.41594097208017      1.42514949467356
  N   -1.55308786465569     -0.40105119569384     -0.68004786529594
  H   -1.86264316521684     -1.36090438920203     -0.75662325539692
  H   -2.35057207789963      0.17665039957827     -0.44971026000919
  C   -0.44164754648534      1.19679535511986      0.77570824831212
  H   0.38797834448503      1.36746921452386      1.46307669555782
  H   -1.36523385013449      1.45532248570773      1.29985397711789
  H   -0.33840030591535      1.86020379275492     -0.08609612340542
