15
Coordinates from ORCA-job run
  C   0.84256648602093     -0.75457025134506     -0.24070853639632
  C   -0.52439086750801     -0.25874199867385      0.32981457945778
  Cl  0.77347026770962     -2.52351809102761     -0.49367187734160
  H   -0.69464895978191     -0.87306626055787      1.22032250834737
  C   1.09337513631601     -0.09430183849172     -1.52238560191806
  N   1.26680617078866      0.48574515422389     -2.52971235367036
  C   1.93651511907471     -0.47027967848087      0.68999922308075
  N   2.78228347028439     -0.22818027646794      1.46973130957827
  N   -1.53787081050889     -0.54406865983286     -0.66224070355956
  H   -2.34117974118465     -1.00838969647370     -0.26684878405153
  H   -1.83608210690169      0.29346678016724     -1.14339115350689
  C   -0.44348913658581      1.21363803470012      0.71760874212756
  H   -1.40186286055209      1.51808437332385      1.14335236904823
  H   -0.25228379131448      1.83169068914488     -0.16502070864601
  H   0.33679162414323      1.41249171979157      1.45415098745035
