15
Coordinates from ORCA-job run
  C   1.05257372234525     -0.37191387131268      0.05846428032168
  C   -0.45065815711604     -0.14084502770532      0.39873725452579
  Cl  2.07210793365622     -0.06617451729279      1.50372332520070
  H   -0.63590713450151     -0.74781049745896      1.29648545812716
  C   1.23567488132132     -1.76941638606816     -0.33866853199804
  N   1.32255561268969     -2.90631893575730     -0.62245249502292
  C   1.47175874401019      0.51880045089472     -1.02326623285299
  N   1.79390021300116      1.26938410922316     -1.86761158100977
  N   -1.19104263201759     -0.57662521959288     -0.76846957472583
  H   -1.43843635677113     -1.55613346159757     -0.72404781330261
  H   -2.02781931887794     -0.02767674274711     -0.90758145598864
  C   -0.73750229777705      1.32068549762330      0.69518591488586
  H   -0.60911361403307      1.92052238445748     -0.20910519566846
  H   -0.08612506952822      1.71341482686419      1.47525775907967
  H   -1.77096652640127      1.42110739046989      1.03534888842842
