15
Coordinates from ORCA-job run
  C   0.78811524044644     -0.76872464754898     -0.21127004537622
  C   -0.54374825247635     -0.17738949984141      0.32197676630105
  Cl  0.58545566648685     -2.53515791292014     -0.48150591574728
  H   -0.74107301953574     -0.71858411967524      1.26014617415781
  C   1.15663742715129     -0.13612819041027     -1.47809457281363
  N   1.46998454622262      0.40497569244278     -2.47252608817052
  C   1.85771163550512     -0.58696946801808      0.77211164449715
  N   2.67897242207248     -0.42141557444548      1.59625474281384
  N   -1.54930228226238     -0.37572520626143     -0.70140998444688
  H   -2.31360952506371      0.27473867743408     -0.57685999980820
  H   -1.92071747167582     -1.31635311047801     -0.68236157966491
  C   -0.38530492642421      1.30828456000846      0.60899238565733
  H   0.42371667145578      1.50444109076574      1.31374661017737
  H   -1.30968584378520      1.68888532428070      1.05055057996103
  H   -0.19715228811719      1.85512238466728     -0.31775071753794
