15
Coordinates from ORCA-job run
  C   0.84200819652755     -0.76495401814339     -0.19269545965877
  C   -0.52912176022795     -0.22813360841513      0.33167966768055
  Cl  0.74003455852162     -2.54154386034682     -0.38228470371659
  H   -0.70782659653666     -0.78385613216989      1.25934088876807
  C   1.13411695232089     -0.15818315256611     -1.49135811859447
  N   1.33783833114523      0.37934364192747     -2.51601996391715
  C   1.91823895931180     -0.46880251786820      0.75469871556397
  N   2.74204081436883     -0.21219171509730      1.55269359674160
  N   -1.53075347234363     -0.54376978988693     -0.66139147687303
  H   -2.25396197973886     -1.15177544287736     -0.31018188382006
  H   -1.94383792602488      0.28549500436423     -1.06256631451034
  C   -0.44194851165358      1.26387985910619      0.62621929425981
  H   -1.39324283508383      1.59756483963647      1.04589957532107
  H   0.34836044149182      1.50339741324580      1.33926637396086
  H   -0.25894517207839      1.82452947909092     -0.29530019120549
