15
Coordinates from ORCA-job run
  C   0.92457089086256     -0.24102138025744     -0.50125283912443
  C   -0.44830919869042     -0.17693358892737      0.22633163299767
  Cl  0.99516639152610      0.99149591003399     -1.80733522446539
  H   -0.40134807988342     -0.99048719071806      0.96042716265570
  C   2.01962525576592      0.01545054488419      0.43655210037860
  N   2.87167603911973      0.21095759247517      1.22190938722058
  C   1.09754600215565     -1.56418401827345     -1.10316143212024
  N   1.25651122294394     -2.64117814692500     -1.54434553042123
  N   -1.46623051807801     -0.52081866163691     -0.74643081416157
  H   -1.79363769029261      0.30416493488573     -1.23357877261231
  H   -2.25639664727620     -0.96267052040519     -0.29678380632619
  C   -0.65016027714845      1.14515071724606      0.95843920594211
  H   -1.60159261768097      1.10743446576846      1.49331286881273
  H   0.14094245644642      1.34370446991178      1.68494156624744
  H   -0.69036322977018      1.97693487193807      0.25197449497651
