15
Coordinates from ORCA-job run
  C   0.89565490859495     -0.48131427318893     -0.36521904298534
  C   -0.33581058798658      0.07522578092817      0.40448065240104
  Cl  0.41287366865968     -1.00623475778976     -2.01488586096035
  H   0.05668246438415      0.32070965119674      1.39875405113902
  C   1.93339299999395      0.54422165216272     -0.49115368327538
  N   2.73878496451167      1.39725946648666     -0.55958127451471
  C   1.43665329693845     -1.63842964061176      0.34963392586455
  N   1.90005428527694     -2.53517108009988      0.95041511349998
  N   -1.27486757649456     -1.01797569305170      0.55946583192945
  H   -1.81296381361295     -0.91070547157732      1.40841183957014
  H   -1.91466817020370     -1.05898403781552     -0.22412568450644
  C   -0.89285890943362      1.34048395039906     -0.23842706620556
  H   -0.14245982296133      2.12949972315348     -0.32310760504752
  H   -1.28708059051347      1.12736663161810     -1.23419231124009
  H   -1.71238711715355      1.71504809818994      0.37853111433123
