15
Coordinates from ORCA-job run
  C   0.90676282472889     -0.56649313580342     -0.12301601688153
  C   -0.59555829553545     -0.25921052092092      0.22764750179357
  Cl  1.71728121254623     -1.42592322696709      1.22590133315543
  H   -1.02442978447507     -1.23366965540593      0.48689009233360
  C   0.94901068602731     -1.42832194780113     -1.30533202928155
  N   0.90682411202265     -2.11701328412520     -2.25686205373330
  C   1.61216978715209      0.68480284295350     -0.39922394187942
  N   2.11268617067974      1.72722430857829     -0.60978945267105
  N   -1.32278323131028      0.27704475453202     -0.89369295188440
  H   -1.33051710778750     -0.33876027668314     -1.69637556323813
  H   -0.98847366135340      1.19370716591680     -1.16435451623595
  C   -0.70450232438362      0.68905812209959      1.41012306768266
  H   -0.18082388242755      0.31396281218433      2.28873405241009
  H   -1.76073920962430      0.81024695772208      1.65166509417390
  H   -0.29890729625974      1.67234508372021      1.15568538425609
