15
Coordinates from ORCA-job run
  C   0.79331221240860     -0.68668279131025     -0.28657798832151
  C   -0.55619007461919     -0.25011286000040      0.39585218718921
  Cl  0.70378027982460     -2.43031778084357     -0.70856515635338
  H   -0.65471772924985     -0.91516855892290      1.26108010376202
  C   0.98409017293532      0.08356480309419     -1.51436466069545
  N   1.06152596368260      0.73795081512065     -2.48765731172229
  C   1.92464571850676     -0.49730576226757      0.61874342886572
  N   2.79597155617953     -0.33213735760531      1.39036041929385
  N   -1.71229136542639     -0.41998954704816     -0.44142719018165
  H   -1.69018274378341      0.20442593786625     -1.23911415890394
  H   -1.82008317841021     -1.37256976255274     -0.76352346379983
  C   -0.46213570759493      1.19650579976559      0.85813523750222
  H   -0.34048619929907      1.87162207251708      0.00587615602250
  H   0.36633418999918      1.35615564652958      1.54937465911401
  H   -1.39457309515357      1.45305934565754      1.36180773822854
