15
Coordinates from ORCA-job run
  C   0.87411866966765     -0.11735593650212     -0.51620432415783
  C   -0.47548566518337     -0.20014346042688      0.29535966261883
  Cl  0.85336073581672      1.29064332582142     -1.62904079570109
  H   -0.34242439836319     -1.08214119677251      0.93404359328452
  C   2.01480922752224      0.01075916148740      0.38843856145835
  N   2.89234918526686      0.11137267396860      1.16413555607686
  C   1.00952522047130     -1.33353655069695     -1.31801683578654
  N   1.04546501751102     -2.33660654092907     -1.92957489525690
  N   -1.63491991317468     -0.42062705329368     -0.52532862869147
  H   -1.58077698087131     -1.28481174595198     -1.04991839420956
  H   -1.79132971696889      0.34993032920899     -1.16275884024943
  C   -0.66777300118872      1.02644455167829      1.17223366573077
  H   -0.82544594343504      1.92012071823268      0.56512054429423
  H   0.18634397546216      1.19811960294894      1.82936696354109
  H   -1.55681641253275      0.86883212122686      1.78314416704817
