15
Coordinates from ORCA-job run
  C   0.81728795676803     -0.68545227004297     -0.14386656140911
  C   -0.63609933128898     -0.18311574282333      0.18744661263229
  Cl  1.43293944049950     -1.76413462726032      1.14937667829237
  H   -1.21494320197322     -1.09924227645480      0.34999568777343
  C   0.78068271242101     -1.44541669644205     -1.39431229097648
  N   0.67547080565952     -2.04520018319042     -2.39964399195774
  C   1.71234433375061      0.46217519598762     -0.29050017104685
  N   2.36983801530086      1.43019530812749     -0.40086101735916
  N   -1.22811618344709      0.54472074189763     -0.90483669216974
  H   -1.29510080563637      0.00325063357447     -1.75678535636283
  H   -0.75108382513376      1.41910736246676     -1.08676345942161
  C   -0.65227921145279      0.67308155746442      1.44282639684695
  H   -1.68786880901009      0.93357028875452      1.66253709915545
  H   -0.09458306213993      1.60052410865515      1.28513806632231
  H   -0.22748883431729      0.15393659928583      2.30124899968073
