15
Coordinates from ORCA-job run
  C   0.98923897152295     -0.42098207683609     -0.05426061921287
  C   -0.43459563172012     -0.08834733666988      0.52647025310344
  Cl  2.26982304664124     -0.07822890837350      1.15327331864306
  H   -0.49756413844646     -0.66783981272519      1.45432033514188
  C   1.04283409924125     -1.84553382087838     -0.38586186763052
  N   1.01237643724026     -2.99478212016579     -0.63039663135869
  C   1.22643511169596      0.37503352767528     -1.25820788083765
  N   1.34342829108025      1.03513371353329     -2.22364644257180
  N   -1.49712874792426     -0.50957335021082     -0.34929390803963
  H   -1.50835136929592      0.01174567245125     -1.21723296161760
  H   -1.48611532740987     -1.50256555553017     -0.54256740096848
  C   -0.57586601183130      1.39443545286203      0.82776285725618
  H   0.20040867404491      1.75354885602631      1.50252774694613
  H   -1.55005238945641      1.55526133211206      1.29011480468967
  H   -0.53587101538248      1.98169442672961     -0.09400160354312
