15
Coordinates from ORCA-job run
  C   0.77484549456220     -0.71743727099168     -0.25948282690421
  C   -0.56572585419914     -0.22162784595529      0.39937445182199
  Cl  0.63848734100333     -2.47024962326473     -0.62725046237192
  H   -0.68865393182808     -0.85601063110075      1.28427640301171
  C   0.99518950295234      0.00803792626296     -1.50944830349510
  N   1.09690111943034      0.63087836129881     -2.50102573817135
  C   1.90565698871522     -0.53173084840785      0.64740419142737
  N   2.77782101945039     -0.37115173455053      1.41902068257595
  N   -1.72111902591646     -0.38458485541507     -0.44027370037116
  H   -1.67619987635417      0.21376427294164     -1.25677544410405
  H   -1.85369916552899     -1.34330290386059     -0.73369554511427
  C   -0.43288012467186      1.23550489050206      0.81722401095220
  H   -0.28486448015247      1.87995949196711     -0.05436792069862
  H   -1.36129290039555      1.53452873029269      1.30466047631919
  H   0.39453389293293      1.39242204028121      1.51035972512225
