15
Coordinates from ORCA-job run
  C   0.79467312480841     -0.70089360214719     -0.24274185284877
  C   -0.56249656652918     -0.22878603987467      0.39926248295456
  Cl  0.70438960537987     -2.46221267353540     -0.58439583700512
  H   -0.67467733532802     -0.85144242397526      1.29389115817947
  C   1.00666005539724      0.01026041734451     -1.50235650682547
  N   1.10053255202916      0.61781025339305     -2.50423995951454
  C   1.91423899857284     -0.47373402056726      0.66871595285641
  N   2.77579719076828     -0.27867222137770      1.44422021813112
  N   -1.70788881492322     -0.43595449032462     -0.44415649946972
  H   -1.67186803522227      0.14648834289900     -1.27253445882928
  H   -1.81643930384809     -1.40337341863928     -0.71819950966244
  C   -0.47010839723777      1.23815628504949      0.79270045381995
  H   0.35328196879679      1.43008436232544      1.48172148599677
  H   -0.34115822371937      1.87126476717701     -0.09012966498841
  H   -1.40593681894467      1.52000446225287      1.27624253720545
