15
Coordinates from ORCA-job run
  C   0.85544694866023     -0.29137985406670     -0.47110034553550
  C   -0.49476549665900     -0.09561408151490      0.31861437125472
  Cl  0.97313359080129      0.88868443207281     -1.81822695555149
  H   -0.44905876783666     -0.85696010506708      1.10718534005385
  C   2.00436087993252     -0.11451704262705      0.41496561913126
  N   2.89443265440081      0.02521301224102      1.17009735396806
  C   0.87182606442010     -1.63932510220242     -1.03971922309456
  N   0.82913684671587     -2.73438701195326     -1.46468405447729
  N   -1.67081388896419     -0.34666844654452     -0.46923846641505
  H   -1.70288812664635     -1.29256308846213     -0.82868767410248
  H   -1.75036416028775      0.30726668166462     -1.23772858142662
  C   -0.56498069605630      1.28128706498513      0.95865211559327
  H   -1.46469780809549      1.32299825705697      1.57282517875148
  H   0.30239542850940      1.48445966824575      1.58899439979638
  H   -0.63416346889449      2.06250561617177      0.19905092205402
