15
Coordinates from ORCA-job run
  C   0.87764122357791     -0.15377328582781     -0.50289855418451
  C   -0.47961270039466     -0.18133686598265      0.30044136130902
  Cl  0.87931230376025      1.19439905817244     -1.68794532769534
  H   -0.36170876528235     -1.03256999744112      0.98242028768234
  C   2.01178439936775      0.01238369100341      0.40357499515854
  N   2.88367374098689      0.14605688537207      1.18068783562693
  C   1.00624829130524     -1.41122541191816     -1.23918152626876
  N   1.02838455011699     -2.44456173940054     -1.79886721558033
  N   -1.63494688874521     -0.42826221046710     -0.51812891422749
  H   -1.78187425442115      0.31540986762573     -1.18863332786430
  H   -1.58491876714837     -1.31449118943308     -1.00472576349955
  C   -0.66408484992269      1.08870508943748      1.11475752162220
  H   -0.80031725323094      1.95450713180699      0.46356124941948
  H   -1.56292515329285      0.97367445863412      1.72085889177402
  H   0.18434412332318      1.27908451841821      1.77407848672776
