15
Coordinates from ORCA-job run
  C   0.78555925497445     -0.70172673662292     -0.26128193807116
  C   -0.55762522942593     -0.23126021870827      0.41031211960414
  Cl  0.68562766214842     -2.46098093720491     -0.61023659486219
  H   -0.65472545145409     -0.86039848325257      1.30213859545929
  C   0.97352554181908      0.01628371153987     -1.52062902748606
  N   1.06232608912679      0.62889623347796     -2.51969539841522
  C   1.92472122035533     -0.48050142130524      0.62699644986819
  N   2.81786616804341     -0.28583455580107      1.36595699959772
  N   -1.71927898762051     -0.42830522566381     -0.41332331970433
  H   -1.83340852545328     -1.39237466455338     -0.69675578763750
  H   -1.69841367916796      0.16381903685914     -1.23529396381017
  C   -0.45302672394464      1.23225665121761      0.81344778168458
  H   0.37967192210922      1.41463497660944      1.49394224632640
  H   -0.33124180024923      1.87166504130489     -0.06593360260336
  H   -1.38157746126102      1.51482659210325      1.31035544004969
