14

C	0.0	0.0	0.0
C	-0.60004	0.287185	-1.401326
Br	1.949731	0.0	0.0
H	-1.564523	0.768853	-1.216979
H	-0.339478	-0.987712	0.308702
C	-0.381153	0.98038	1.014837
N	-0.584375	1.746089	1.882385
N	-0.819377	-0.843721	-2.225637
H	-1.704849	-1.249585	-1.939657
H	-0.069609	-1.520545	-2.175177
N	0.262253	1.312132	-2.094291
O	0.901801	0.979553	-3.086327
O	0.278695	2.425489	-1.572014
Br	-3.537442	0.0	0.0
