14

C	0.0	0.0	0.0
C	-0.567515	-0.141759	-1.406061
Br	1.952555	0.0	0.0
H	-1.653161	0.023438	-1.279101
H	-0.32421	-0.89155	0.536165
C	-0.401546	1.189495	0.746805
N	-0.595571	2.131013	1.422217
N	-0.306913	-1.432049	-1.936486
H	0.595981	-1.461246	-2.390944
H	-1.019907	-1.67184	-2.609799
N	-0.052718	0.988877	-2.286966
O	-0.22808	2.132402	-1.882091
O	0.489231	0.688776	-3.350486
Br	-3.605422	0.0	0.0
