15
Coordinates from ORCA-job run
  C   -0.36263535833637      0.25037259891528     -0.58115681034703
  C   0.89614021404554      0.24243203513045      0.33337123122561
  Br  0.10752315059368      0.76846804287129     -2.35842869657373
  H   1.28667071409149      1.26268280926877      0.24605457103295
  N   -1.08011007178315     -1.09137558366878     -0.62747887949014
  O   -0.68433326748098     -1.94042487874588      0.16565553344038
  O   -1.99665009159062     -1.19460717013722     -1.42589173946483
  N   -1.35420999519109      1.25343169035933      0.01543165081823
  O   -0.99130290487074      2.41919890581972     -0.02370485295882
  O   -2.35516928476771      0.79172400643442      0.54440288243602
  N   1.94418504194852     -0.67909994518182     -0.00182870764452
  H   1.62140525709635     -1.63591163217586      0.03792036856255
  H   2.34395866001793     -0.47361510582619     -0.90723110026958
  C   0.47655848001405      0.06337844546795      1.73039940713984
  N   0.14596945621312     -0.03665421853145      2.85248514209307
