15
Coordinates from ORCA-job run
  C   -0.42587807057795      0.34277506294850     -0.61129168338349
  C   0.93085858353082     -0.02164653705500      0.01053705510581
  Br  -0.23933700706269      1.64102334880124     -1.99501527075118
  H   1.55580120693747     -0.28129821160627     -0.84962459235786
  N   -0.98820158710247     -0.96776414318287     -1.18098330403538
  O   -0.31902046786498     -1.46173296703568     -2.07204023693925
  O   -2.00123435159520     -1.40802529406227     -0.66416756558150
  N   -1.43429569466803      0.83182073224887      0.42047375933117
  O   -2.46804609994229      1.31928215407509     -0.00400304559013
  O   -1.12525250778636      0.65280503669277      1.59483641952142
  N   0.79843043212880     -1.20132819968120      0.83280938017649
  H   0.47844419682096     -0.96775288459485      1.76250363819386
  H   1.67602756866400     -1.70035869047444      0.88428053862654
  C   1.52257311956531      1.16111017512918      0.65899599464057
  N   2.03713067895261      2.06109041779693      1.21168891304293
