15
Coordinates from ORCA-job run
  C   -0.46517493771030      0.34668980780397     -0.57860647406110
  C   0.92939001040018      0.03924090245583     -0.01233844008719
  Br  -0.40297674238432      1.72974950812413     -1.88951656475522
  H   1.54623673060557     -0.12838329128545     -0.90073108049424
  N   -0.95734910247105     -0.96411462511965     -1.20798045342717
  O   -1.92356886291006     -1.49941119999045     -0.69099690856297
  O   -0.28423503416665     -1.36194204975518     -2.14309435926559
  N   -1.47297585639038      0.71018148830539      0.50488366863259
  O   -2.54817257101687      1.15021362354087      0.13544282123194
  O   -1.11804157463060      0.48861769316128      1.65885588181373
  N   0.89733149973484     -1.19177922342770      0.74215770753410
  H   0.58856939964038     -1.03357020891213      1.69131533228304
  H   1.80696165124865     -1.63271477479934      0.74335847936035
  C   1.46123867355052      1.22040655457283      0.68874460533361
  N   1.94376671650007      2.12681579532560      1.25950578446414
