15
Coordinates from ORCA-job run
  C   -0.76270985496518      0.29600657180373      0.04023307597240
  C   0.67607640736751      0.27441877690264      0.57800105798340
  Br  -1.96124418824054      1.12838314086874      1.26746266388981
  H   0.87211627787498      1.31538071961375      0.85339650468845
  N   -0.70530534255348      1.09157075372896     -1.27178672766928
  O   -0.36361174100800      2.25472139830555     -1.14463208469919
  O   -0.95130423228444      0.48453728721933     -2.30043063324098
  N   -1.27738438567705     -1.09232521420196     -0.31914470653634
  O   -0.43220826925912     -1.98178480255219     -0.35490170561676
  O   -2.46524550576049     -1.19309174045003     -0.57448368215333
  N   1.59382743317927     -0.08340621775032     -0.47825537958999
  H   2.51044254182676      0.30402157673477     -0.30039389423822
  H   1.65767421456487     -1.08629063634923     -0.58541740880268
  C   0.74455913916427     -0.53746203208326      1.80489502050222
  N   0.86531750577063     -1.17467958179043      2.78445789951050
