15
Coordinates from ORCA-job run
  C   -0.48687085954192     -0.03853778743940     -0.50240585955760
  C   0.63747582723348     -0.15399407432946      0.53140475872775
  Br  0.04765973927705     -0.58343095319201     -2.24074295664543
  H   0.17708184677456      0.07725805247027      1.49556662460128
  N   -1.72883530450880     -0.82088579687192     -0.08419991538361
  O   -1.63717115632921     -1.49522682347386      0.93409235741335
  O   -2.70514810313978     -0.68552412767245     -0.80560011737868
  N   -0.95029496589085      1.42772658383020     -0.46826320482441
  O   -0.82323715780798      2.12039148323532     -1.45703039464094
  O   -1.40197846894281      1.74326570171036      0.62582281669829
  N   1.61634404399130      0.87130051853348      0.22955498739816
  H   2.22619301405015      0.58139512369274     -0.52552247165666
  H   2.18273398580802      1.06362461848288      1.04561648262149
  C   1.16614362953144     -1.52552794467327      0.58338403995507
  N   1.68190392949534     -2.57983457430288      0.63832285267195
