15
Coordinates from ORCA-job run
  C   -0.69693863004448      0.30887213476021      0.08470535414583
  C   0.78449079776636      0.30800751437116      0.58162836424073
  Br  -1.83293010507965      1.23593776948191      1.30211782124034
  H   0.99078173807196      1.35039411017447      0.84086100583682
  N   -0.81112888847373      1.00818661033754     -1.26274032686486
  O   0.02357519887633      1.87749861505725     -1.48411331732790
  O   -1.75023201450517      0.68146345244829     -1.97146176427210
  N   -1.15654842530808     -1.12591088708902     -0.14592419297478
  O   -2.02234475968247     -1.60247701471454      0.56596349735402
  O   -0.53129033543702     -1.68755530782338     -1.04188840000175
  N   1.80861361482795     -0.14035027804509     -0.31725688640472
  H   1.91267662076894      0.50136486648435     -1.09089488369360
  H   1.63378267695056     -1.07445465746948     -0.66205659632597
  C   0.81118240721732     -0.49095638749772      1.81513193238251
  N   0.83531010405116     -1.15102054047600      2.78592839266540
