15
Coordinates from ORCA-job run
  C   -0.68180292410014      0.01583982340357     -0.15949606846196
  C   0.74351685152876     -0.01152157976549      0.40073899636643
  Br  -1.85021662294909     -1.18841631513486      0.72817862304835
  H   1.27729932008938      0.79310051588571     -0.11177889823649
  N   -1.27960416459252      1.42002540796485     -0.12757579733108
  O   -2.36348806985246      1.54424955127975     -0.67673207087255
  O   -0.60348495825975      2.29332175685370      0.40185180046827
  N   -0.55686975581675     -0.29369775251229     -1.66108492382618
  O   0.09770165848081      0.55497935433221     -2.25421021569966
  O   -1.07592653246209     -1.29383420067797     -2.11265211746780
  N   1.33922423138243     -1.27691777066260      0.01903829015857
  H   1.03734667824735     -2.02092148038127      0.63680985705013
  H   2.34821258258181     -1.21317785173909      0.06163036404857
  C   0.74775187504728      0.26823805726054      1.84448377541509
  N   0.82033983067498      0.40873248389326      3.00879838534033
