14
Coordinates from ORCA-job run
  C   1.14400912353190      0.13321684459413     -0.33937183828749
  C   -0.13561518566401     -0.13436957989661      0.44832987611111
  Br  2.64591629098167      0.44057696207616      0.86513181849045
  H   0.02305452251280     -0.93410796392173      1.17272362960059
  H   1.02797620439347      1.05120069322842     -0.91897641034921
  C   1.44582414585794     -0.98682238846567     -1.21725122224943
  N   1.65403053032199     -1.90093581732117     -1.92563290389394
  C   -1.32885983870274     -0.40690889438826     -0.45411507602669
  H   -2.23027717136593     -0.51200398629508      0.15289483846036
  H   -1.47138320750773      0.41591402959282     -1.15715901832293
  H   -1.17829955438287     -1.33301644449419     -1.01022100831325
  N   -0.44180589540268      1.08881121833050      1.26454576766981
  O   -0.41958709900369      2.16526154137618      0.67325013101535
  O   -0.73398286557012      0.91318378558451      2.44285141609527
