14
Coordinates from ORCA-job run
  C   0.98692190554175     -0.75814798847863     -0.26531841401829
  C   -0.40383342682804     -0.38873055193803      0.26006537110759
  Br  0.81928228674946     -1.99330281444836     -1.76651158239835
  H   -0.92541460860731     -1.31670462131842      0.51612359926380
  H   1.54374474041652     -1.29698006478745      0.49880261409286
  C   1.73513194648357      0.42313032631252     -0.67129086054883
  N   2.31471483276376      1.39615329524669     -0.98401675144789
  C   -1.22921886347589      0.47033749464319     -0.67309868686555
  H   -0.74085378733615      1.43092992056301     -0.84580529491653
  H   -1.35243113739390     -0.04108894396509     -1.62794859218633
  H   -2.21165089885595      0.65517196201941     -0.24405292352077
  N   -0.21666951529500      0.31452610909691      1.59737660218763
  O   0.77644616924481      0.01281530618491      2.25566662809704
  O   -1.09616964340763      1.09089057086935      1.94900829115363
