14
Coordinates from ORCA-job run
  C   0.92011662101430     -0.28453368733681     -0.67399331138300
  C   -0.29372255029546     -0.24656370582855      0.26434832291892
  Br  1.19230353684637      1.41625083586519     -1.59092860172191
  H   -0.25763032482433     -1.15986322934992      0.86623744547891
  H   0.70306191639088     -1.00742432560304     -1.46459204966007
  C   2.15858674545792     -0.68192475902044     -0.01688602922681
  N   3.17233530556651     -1.03190066060431      0.46301191955011
  C   -1.61343337225884     -0.11960479973717     -0.46262076858690
  H   -2.43540886174146     -0.09300593033320      0.25291690481448
  H   -1.75089056025483     -0.98662684609087     -1.11339225860559
  H   -1.65164607302414      0.78961574164088     -1.05959823512448
  N   -0.10408846900270      0.86451496796479      1.26584090925268
  O   0.78971672461126      0.69158080206322      2.09052177519863
  O   -0.83030063848549      1.84948559637023      1.17913397709504
