14
Coordinates from ORCA-job run
  C   0.90669496759699     -0.42089036426000     -0.70540857292138
  C   -0.28829487013353     -0.27536876825707      0.24415806585562
  Br  1.02597174856980      0.90411644072513     -2.12977852779579
  H   -0.33479181236720     -1.19993886074115      0.82563723814426
  H   0.77768112022817     -1.37199352884868     -1.22877798331433
  C   2.16333128747971     -0.46624386563011      0.03130751519335
  N   3.16543247414214     -0.53594173261479      0.64085558167704
  C   -1.61380704812797      0.00255714458879     -0.43797202827434
  H   -1.60232385473618      0.98446072017969     -0.90970132054357
  H   -1.80851768787857     -0.75332564728722     -1.20169711873364
  H   -2.41715842969147     -0.03324146954421      0.30027355709621
  N   -0.03845018898264      0.79076741438153      1.27088565064821
  O   -0.26940313245072      0.48916485315535      2.43922568298063
  O   0.33363542635145      1.88587766415272      0.86099225998772
