10
Coordinates from ORCA-job run
  C   -0.86732765764095     -0.70943265643879     -0.03209029304236
  C   0.14044786410948      0.42629596948530      0.20557003739304
  Br  -1.08088652047523     -1.76953854789174      1.56919569894271
  H   -0.19174725531100      1.01842423319796      1.06607406900935
  H   -1.83894767245447     -0.28779803000134     -0.28613568577044
  H   -0.52374989923474     -1.36589315832536     -0.83022040944063
  C   0.17124735375632      1.30034974597259     -0.97451342081482
  N   0.15044689167604      1.98223031803208     -1.93004002886559
  C   1.48389096116194     -0.08706668902573      0.49440075151002
  N   2.55662593441261     -0.50657118500499      0.71975928107870
