10
Coordinates from ORCA-job run
  C   -0.79791734819299     -0.78709801636193      0.00620075949044
  C   0.31356538338826      0.23215294636410      0.30263028563333
  Br  -2.46783115224373     -0.21317089075302      0.79071737128786
  H   0.38042463687977      0.37600235835490      1.38718702851082
  H   -0.53638129591530     -1.74979015324616      0.44339054564770
  H   -0.94571030802072     -0.89131713204360     -1.06770192468256
  C   0.03946430083886      1.53364660059794     -0.31612980328154
  N   -0.18685012604173      2.56969558666517     -0.81896935953076
  C   1.59695708510614     -0.29959103219300     -0.17457196242835
  N   2.60327882420144     -0.77153026738440     -0.55275294064694
