10
Coordinates from ORCA-job run
  C   -0.77987769240207     -0.77917455858426     -0.20303868511878
  C   0.05397525050841      0.44406864966453      0.20990213776180
  Br  -1.30289339026009     -1.79674748182866      1.35392722678590
  H   -0.52117065392964      1.03636433977940      0.93080778223978
  H   -0.20404531337926     -1.43204006295787     -0.85734742602344
  H   -1.68716947027669     -0.44945368652662     -0.70738583019358
  C   0.31237454688407      1.27591514227774     -0.97293356641058
  N   0.48044047210951      1.92229250219289     -1.93852110083207
  C   1.31836667624764      0.05258657798374      0.84256758702919
  N   2.32899957449812     -0.27381142200090      1.34202187476179
