10
Coordinates from ORCA-job run
  C   -0.87266751679958     -0.75592758549746     -0.06116450089501
  C   0.36142767287939      0.10132389647971     -0.37532996814162
  Br  -1.56784942737154     -0.39298141582927      1.70232076113065
  H   0.69070885814598     -0.16327564107267     -1.38973410102647
  H   -0.60398172297036     -1.81106439522062     -0.10490086848135
  H   -1.66015688521359     -0.54038460787171     -0.78286516947088
  C   1.47198753532029     -0.18824231165569      0.53864106856769
  N   2.36542173873985     -0.45660658942451      1.25091753284682
  C   0.04458888059650      1.53382262485485     -0.37314530451148
  N   -0.23047913332694      2.67433602523737     -0.40473945001836
