10
Coordinates from ORCA-job run
  C   -0.79060199310284     -0.75108151476093      0.26304352646406
  C   0.31017912288809      0.11918255859836     -0.36371513956510
  Br  -2.46689370508423     -0.48795856636740     -0.66076228222285
  H   0.37416983008599     -0.10891824461668     -1.43393220470024
  H   -0.52074991464447     -1.80237579013549      0.17327969531439
  H   -0.93558708001068     -0.49002224086935      1.31016463571155
  C   1.60033007989575     -0.20938641399090      0.25735085274191
  N   2.61428385402388     -0.51637315750280      0.76315558297631
  C   0.02397989091949      1.55055175819556     -0.21689651592905
  N   -0.20811008497096      2.69438161144963     -0.09268815079099
