10
Coordinates from ORCA-job run
  C   -0.96170783950223     -0.57451623298797      0.08101516109817
  C   0.35300485409933      0.11173428974808     -0.32150761670088
  Br  -0.72851748494023     -2.49167888861972      0.14769853351883
  H   0.69317912244020     -0.30972377179409     -1.27444729290594
  H   -1.28487520748252     -0.23779084819942      1.06496896107415
  H   -1.72939213230880     -0.35662638260389     -0.66025661551990
  C   1.40893211391639     -0.10217976961748      0.67421320291786
  N   2.25201742393167     -0.27718173954368      1.47164706819714
  C   0.11438771929280      1.54870292805884     -0.51044339785181
  N   -0.11702856944659      2.68826041555932     -0.67288800382763
