13

C	0.0	0.0	0.0
C	-0.610563	0.244312	-1.363192
Br	1.944842	0.0	0.0
H	-1.668252	0.430224	-1.137487
H	-0.325344	-0.951123	0.418908
H	-0.296457	0.807124	0.665711
N	-0.434551	-0.940035	-2.219587
H	-0.906734	-1.717318	-1.762915
H	-0.971434	-0.767044	-3.064281
N	-0.062291	1.438654	-1.97347
H	0.819101	1.196545	-2.414234
H	-0.699431	1.763696	-2.690487
Br	-3.932276	0.0	0.0
