13

C	0.0	0.0	0.0
C	-0.487558	-0.348268	-1.420923
Br	1.945242	0.0	0.0
H	0.131593	0.245853	-2.105174
H	-0.342365	-0.723155	0.741412
H	-0.304658	1.006501	0.281759
N	-1.85459	-0.003232	-1.695254
H	-2.542105	-0.298761	-0.999097
H	-1.97465	0.994958	-1.806128
N	-0.294407	-1.76989	-1.724414
H	-1.210689	-2.198264	-1.760685
H	0.260418	-2.224942	-1.011919
Br	-4.795731	0.0	0.0
