13

C	0.0	0.0	0.0
C	-0.578127	-0.17315	-1.401525
Br	1.942587	0.0	0.0
H	-1.655811	-0.27209	-1.221372
H	-0.323179	-0.819268	0.640582
H	-0.324783	0.939738	0.445715
N	-0.1377	-1.351801	-2.124348
H	-0.557727	-2.171791	-1.7049
H	0.870727	-1.432594	-2.056689
N	-0.247914	0.991513	-2.221487
H	-0.616999	0.789506	-3.144661
H	-0.779075	1.780229	-1.863462
Br	-3.864789	0.0	0.0
