12
Coordinates from ORCA-job run
  C   -0.38337716847904      0.10682055178403      0.54917244051302
  C   0.87572776441685     -0.70258085418606      0.25075030185895
  Cl  -1.10905434794737     -0.46571741205523      2.05910082881542
  H   0.60870738354141     -1.75983998584893      0.20943474024142
  H   1.58394535911685     -0.54982732863090      1.06930959997442
  C   -0.11816030011234      1.53593988281696      0.62547484561947
  N   0.15799708339589      2.67580397401461      0.70522873303348
  N   -1.42774763797335     -0.13967414075684     -0.56282818745108
  O   -2.20025597071929      0.77737793741964     -0.79411000047080
  O   -1.40994878800173     -1.25235193345297     -1.06689141233012
  C   1.47368460151746     -0.28562383308842     -1.01440227272105
  N   1.94848202124466      0.06067314198411     -2.03023961708312
