12
Coordinates from ORCA-job run
  C   -0.35299291474030      0.08760722497904      0.42739169819913
  C   0.68288602322428     -0.56547054685448     -0.49828700721804
  Cl  -0.29233920169387     -0.60867241503885      2.03563217148769
  H   0.55228193865633     -0.15826143522597     -1.50606105631391
  H   0.48786514363774     -1.64181596112460     -0.51954145505229
  C   -0.19671235669049      1.53361566829741      0.48931017488065
  N   -0.01786021916070      2.69395980230891      0.54870086837829
  N   -1.71815594573766     -0.22620874520278     -0.24297872627552
  O   -2.26371272663292     -1.26988434726075      0.06842319223676
  O   -2.06265390831199      0.58033958169752     -1.09568809360346
  C   2.04215560704407     -0.31371584932009     -0.03571658460589
  N   3.13923856040551     -0.11249297725537      0.32881481788659
