12
Coordinates from ORCA-job run
  C   -0.32792842747410      0.13568215114534      0.53137705506072
  C   1.06761399562409      0.09583644093689     -0.10466796776137
  Cl  -0.44771107668070     -0.96130445625334      1.89067856936106
  H   1.80287242368782      0.37888606449709      0.65265108703897
  H   1.09919799171926      0.82759642564769     -0.91605400213377
  C   -0.66207029972628      1.49549758976282      0.93556172379692
  N   -0.89008948948484      2.59808914338420      1.27324960999566
  N   -1.33123374397774     -0.26581281988741     -0.59098032459968
  O   -1.94170900480883     -1.31130700511412     -0.48324350095667
  O   -1.35960048023186      0.53985326481819     -1.51124921905719
  C   1.37240946902111     -1.23355105716309     -0.62493411089383
  N   1.61824864233208     -2.29846574177426     -1.05238891985082
