12
Coordinates from ORCA-job run
  C   -0.37064017924279     -0.03347469845095      0.57144408454793
  C   0.95144504037153     -0.63471707953446      0.10053588595815
  Cl  -0.96903910303518     -0.94342316404694      1.96666432104468
  H   0.79234536727733     -1.69117991104548     -0.12229646588323
  H   1.67759350756327     -0.55113003219335      0.91330246828330
  C   -0.24938970272565      1.37822629514519      0.90354449765001
  N   -0.08462236771111      2.50563452746703      1.19293999620055
  N   -1.42276598927262     -0.19264857745740     -0.54926302791690
  O   -2.23429571900036      0.71155956416846     -0.67190841602735
  O   -1.36060687596685     -1.23735469892192     -1.17908147093685
  C   1.44283691037272      0.06040842873859     -1.08583919997661
  N   1.82813911136970      0.62809934613118     -2.03804267294367
