12
Coordinates from ORCA-job run
  C   -0.33089810849149      0.13606433171639      0.42402172857230
  C   0.71302704238302     -0.60528486930124     -0.42232138596945
  Cl  -0.13404304256460     -0.21596423744213      2.12712139030259
  H   0.60826772200091     -1.67810331936015     -0.23222004032650
  H   0.50554006257953     -0.40837436699233     -1.47769028264675
  C   -0.30337011808515      1.57302754703593      0.18751364648669
  N   -0.25396984000715      2.73256566895341      0.00033698313663
  N   -1.70650710430279     -0.38667991151793     -0.08991297529647
  O   -2.35266494536415     -1.12669162174444      0.62755192966699
  O   -1.96856426084313     -0.01695323584710     -1.22632385237008
  C   2.06569918663657     -0.17469094909449     -0.09016620699731
  N   3.15648340605844      0.17008496359408      0.17108906544137
