12
Coordinates from ORCA-job run
  C   -0.34760835818942      0.12437723674224      0.35550906323884
  C   0.70776482301378     -0.64834808722863     -0.43491847684129
  Cl  -0.37585060367244     -0.39946980450251      2.04388634074171
  H   0.50765571083312     -1.71608540448552     -0.33244927226839
  H   0.61963540439931     -0.38494246326041     -1.49358074579518
  C   -0.14823782560386      1.56433222161925      0.27204831446622
  N   0.06319996565032      2.71694876508606      0.17834356435702
  N   -1.74024699344663     -0.20000447483170     -0.23076563645807
  O   -1.85599355339677     -1.29431969651086     -0.76380764293061
  O   -2.60433171030969      0.64679488190072     -0.06710805280471
  C   2.04759200634113     -0.32970918454217      0.04567985101017
  N   3.12842113438113     -0.07857398998646      0.42716269328429
