12
Coordinates from ORCA-job run
  C   -0.34775185247082      0.16813460408599      0.33829789673090
  C   0.70502420289683     -0.69175113203756     -0.36032307546551
  Cl  -0.37559446884342     -0.16015309191137      2.07522029699262
  H   0.62088218925933     -0.54386695070517     -1.44168764058177
  H   0.49681133838505     -1.74052970111422     -0.14246278123710
  C   -0.14531788310519      1.58868568921782      0.09176804377390
  N   0.07100920265589      2.72248494970497     -0.13106356947709
  N   -1.73972714518201     -0.22227808491975     -0.20744538489246
  O   -1.86788644671732     -1.38641122984738     -0.55868712768175
  O   -2.59182317672439      0.65213358846431     -0.19415031672797
  C   2.04636663873586     -0.33302755377620      0.08661590715229
  N   3.12900740111018     -0.05442108716145      0.44291775141393
