12
Coordinates from ORCA-job run
  C   -0.33264599662724      0.07077593687393      0.43911077704023
  C   0.67370737960671     -0.56057661758321     -0.53305071314098
  Cl  -0.21958684891480     -0.65293230215440      2.02882387429807
  H   0.47334787840286     -1.63532716725396     -0.58208928265609
  H   0.51806008153157     -0.12354025622376     -1.52310172196506
  C   -0.17821991698483      1.51705830410813      0.51823897234271
  N   -0.02486103044064      2.68070982116390      0.58436497492759
  N   -1.72886473971339     -0.20798044713904     -0.19387506622093
  O   -2.45615929007186     -1.02532790735603      0.33806996880205
  O   -1.92321290252238      0.41758142980853     -1.22709041416979
  C   2.04576217266370     -0.33221837366614     -0.09662628900216
  N   3.15267321307029     -0.14922242057796      0.24722491974435
