12
Coordinates from ORCA-job run
  C   -0.25558854611317      0.28763267902621      0.50093609562157
  C   1.06986004035831     -0.03020136225691     -0.20099710780075
  Cl  -0.31734944700048     -0.41867697114654      2.10241369058119
  H   1.88708648223856      0.34767131025571      0.41826964072225
  H   1.08947176613809      0.48462619334002     -1.16383508260814
  C   -0.46632378547481      1.72893893656037      0.56431712088153
  N   -0.61245116535901      2.89442073546659      0.61076809620566
  N   -1.39700493588342     -0.28455935302900     -0.39645016137473
  O   -2.21335447991609     -1.03475541224354      0.10081924659339
  O   -1.33646087394823      0.11375326753122     -1.55133294678889
  C   1.22164543876443     -1.46739874734153     -0.40589961421536
  N   1.33246950619580     -2.62245127616260     -0.58100897781773
