12
Coordinates from ORCA-job run
  C   -0.38794963158026      0.09911446694487      0.55077234501336
  C   0.86236489549204     -0.71974161976943      0.23905206278512
  Cl  -1.13383273449304     -0.50539080023797      2.03780393066131
  H   1.56911592542005     -0.59794956324484      1.06398803659427
  H   0.57978570779677     -1.77153274137161      0.16933934954127
  C   -0.10261632826567      1.52117179373154      0.67108404210097
  N   0.19104236536376      2.65277529640960      0.79452618674642
  N   -1.42045065784554     -0.10679912359602     -0.58017799660743
  O   -2.11700284305012      0.85423068937276     -0.86729664954357
  O   -1.46514770822347     -1.23404517787121     -1.04856264778865
  C   1.47092594763367     -0.27885985264462     -1.01294773515833
  N   1.95276506175182      0.08702663227693     -2.01858092434472
