12
Coordinates from ORCA-job run
  C   -0.26751461650697      0.15829172323434      0.55839578182989
  C   1.04638678541653      0.11071493185655     -0.23238354204514
  Cl  -0.20163876197424     -0.86428720788606      1.97829159703596
  H   0.96657605648549      0.79921152253137     -1.07748228848388
  H   1.85644444847876      0.44673282894431      0.41953010129237
  C   -0.58857486743286      1.53144589597485      0.92681985049995
  N   -0.80669894329705      2.64536139621191      1.23210545510335
  N   -1.38225760545331     -0.32404184251463     -0.41705011757924
  O   -1.53670397374885      0.42894315537391     -1.36880005700704
  O   -1.94990516845417     -1.37325008693567     -0.18428342415438
  C   1.32188654132668     -1.23822397896224     -0.71685733918663
  N   1.54100010516000     -2.31889833782864     -1.11828601730519
