12
Coordinates from ORCA-job run
  C   -0.32653487324920      0.05699539403452      0.44536555230428
  C   0.67563777591656     -0.53811087953100     -0.55355207286795
  Cl  -0.17443455155349     -0.69103736239160      2.02025292249439
  H   0.49741534148174     -0.08546159938097     -1.53278139449843
  H   0.49348147693437     -1.61513599445121     -0.62018682581868
  C   -0.19861287421631      1.50453559367856      0.54647688422740
  N   -0.06521883993419      2.66947004407700      0.63052536068914
  N   -1.72768862753886     -0.23779043787502     -0.17018020912353
  O   -1.95080864876924      0.40214250076339     -1.18867249776114
  O   -2.43045164777081     -1.07822563327585      0.35855698700956
  C   2.04988872388260     -0.29268501670449     -0.13335781355872
  N   3.15832674481683     -0.09569660894332      0.19755310690367
