12
Coordinates from ORCA-job run
  C   -0.30819421643752      0.13871850047201      0.54146662522672
  C   1.06579111368503      0.07857341115129     -0.13825942764014
  Cl  -0.40397044247461     -0.96153249520193      1.90002472445687
  H   1.82853965683773      0.34915965304452      0.59598526102981
  H   1.08263487512499      0.81163185333233     -0.94877143632841
  C   -0.60679622514004      1.50249127751337      0.96089576239083
  N   -0.80922168933176      2.60698957317892      1.30840334415495
  N   -1.35332007258214     -0.24125668054342     -0.55008980499561
  O   -1.39695617774932      0.56835841713026     -1.46622842494641
  O   -1.97751721452400     -1.27689771926114     -0.42669292483483
  C   1.33299351442123     -1.25420948779590     -0.66982104915938
  N   1.54501687817042     -2.32202630302032     -1.10791264935441
