12
Coordinates from ORCA-job run
  C   -0.27854084874818      0.25230421712720      0.51556442148047
  C   1.05582475388262      0.03504713226817     -0.20917294506149
  Cl  -0.29959349117163     -0.53880907549374      2.07743183429789
  H   1.02904914306041      0.58224995526282     -1.15497028006977
  H   1.85791496893199      0.44355641750513      0.41060732603182
  C   -0.55298490133647      1.67687407239125      0.65589173757680
  N   -0.73489115539384      2.83175520923760      0.77814472043326
  N   -1.38223513349150     -0.33461412816867     -0.41453750651492
  O   -1.47872969097848      0.26870909135803     -1.47452068328092
  O   -1.99754658083971     -1.31561553599938     -0.04524824171582
  C   1.29510620355431     -1.38224762363426     -0.46319588181286
  N   1.48762673253048     -2.52020973185413     -0.67599450136447
