12
Coordinates from ORCA-job run
  C   -0.25011996555644      0.36368734347105      0.46205534808478
  C   1.05420360324497     -0.11821837412880     -0.18630505548240
  Cl  -0.36791894656294     -0.15036299713515      2.13156324110044
  H   1.89486338446421      0.29277832444988      0.37811068298613
  H   1.09518708459962      0.26732955595219     -1.20828029233133
  C   -0.35979563775645      1.81369349179383      0.36046546125435
  N   -0.40720184645545      2.98579485504433      0.28555365414373
  N   -1.40940589612465     -0.24177363594362     -0.38412146424860
  O   -2.13560669856997     -1.07117566636897      0.12767561298426
  O   -1.42963023001011      0.18160617168357     -1.53179996608133
  C   1.12771281595467     -1.57582485743555     -0.20447870606428
  N   1.18671233277254     -2.74753421138275     -0.23043851634575
