12
Coordinates from ORCA-job run
  C   -0.35712861997831     -0.05547492186109      0.57758038952371
  C   0.93118407743798     -0.67159098860406      0.03752084161834
  Cl  -0.95283809499713     -1.02564181966795      1.93275979099776
  H   1.67960043348251     -0.66018315073817      0.83415258997145
  H   0.73002050228741     -1.70698152326557     -0.24257181902177
  C   -0.17832069872741      1.32933473481149      0.98795975511695
  N   0.03257321837393      2.43195998680432      1.33676631979443
  N   -1.44227741235988     -0.11178235248476     -0.52124058713603
  O   -2.23259880703355      0.81833501507103     -0.55805975261289
  O   -1.42625551893454     -1.11261033809628     -1.22134473357201
  C   1.41736890386225      0.07655943878358     -1.11842265640369
  N   1.79867201658674      0.68907591924744     -2.04410013827624
