12
Coordinates from ORCA-job run
  C   -0.35833501458518      0.14126234860408      0.40001602572940
  C   0.71715914004773     -0.62609149969712     -0.38155996594301
  Cl  -0.31476062261644     -0.26117652192892      2.10274562130733
  H   0.54776566217178     -1.69720100814472     -0.23415168653416
  H   0.60641876379966     -0.39066494477417     -1.44355381018658
  C   -0.24807208895799      1.58071920080418      0.20648215339184
  N   -0.12978274805844      2.74047694287405      0.05522017557074
  N   -1.70922860160497     -0.30512963240072     -0.23587185044564
  O   -2.44204078564295     -1.03359307705049      0.40618472634423
  O   -1.86282576417088      0.10464202944097     -1.37831403677707
  C   2.05605881920175     -0.26935553941465      0.07178234689919
  N   3.13664324041592      0.01511170168752      0.43002030064373
