12
Coordinates from ORCA-job run
  C   -0.29512875490558      0.20230882659372      0.52944874197823
  C   1.06083963470939      0.06147686105534     -0.17454700994692
  Cl  -0.35051549909002     -0.72707845883328      2.01223481269855
  H   1.05483486518733      0.69420167196390     -1.06576958166231
  H   1.84188738706943      0.41589718722295      0.50262322307840
  C   -0.58596365336926      1.60663832201896      0.79006947368859
  N   -0.77912292205135      2.74519286059048      1.00928359060118
  N   -1.36676835929614     -0.30587313096538     -0.48004913247871
  O   -1.98331819128177     -1.31998072886516     -0.21770045402639
  O   -1.43841388161798      0.38865322242808     -1.48471994916849
  C   1.31815475877987     -1.32450186359902     -0.55285241175947
  N   1.52451461586607     -2.43593476961058     -0.86802130300266
