12
Coordinates from ORCA-job run
  C   -0.32844524776111      0.19758626621719      0.34069767803510
  C   0.70973813985101     -0.71065095981527     -0.31676298247759
  Cl  -0.21266854915640      0.11098567954267      2.10253962214194
  H   0.57402275921570     -1.72520701870749      0.06097272792031
  H   0.53541649677347     -0.72263054232582     -1.39718629292656
  C   -0.21350954615367      1.57704400475874     -0.11079562944943
  N   -0.06979916820883      2.67670737327078     -0.50084263674371
  N   -1.73876063625050     -0.31258882668949     -0.03408056561898
  O   -1.83310390145563     -1.51080930220493     -0.25897242898824
  O   -2.63338714405325      0.51825026354625     -0.02290341542856
  C   2.06097252626645     -0.23666951141212     -0.03892365465120
  N   3.15152427093278      0.13798257381950      0.17825757818694
