12
Coordinates from ORCA-job run
  C   -0.29209120471269      0.18558409597672      0.49916939984941
  C   1.08123876022667     -0.15976644598383     -0.07957392395204
  Cl  -0.71926738064623     -0.89359471062161      1.81745860740790
  H   1.32317922514465      0.54832393565326     -0.87376091331874
  H   1.81915728432428     -0.05622316219762      0.72010357506915
  C   -0.32523336509568      1.57478187946104      0.94332646309712
  N   -0.31847787083105      2.70021480377841      1.28341940320536
  N   -1.36477106981969      0.08008195881326     -0.63066941638057
  O   -2.50784040829693     -0.16209398020947     -0.29237994785561
  O   -0.94444478022969      0.31878193145725     -1.75402939166427
  C   1.10989408725509     -1.52018536428601     -0.60705348748203
  N   1.13965672268127     -2.61490494184140     -1.02801036797567
