12
Coordinates from ORCA-job run
  C   -0.40437401019277     -0.00074957765417      0.56739054806522
  C   0.86943838946779     -0.71949671413805      0.09843750493214
  Cl  -0.97334679946204     -0.75081272044572      2.05286304747143
  H   0.59833628915161     -1.73278274755532     -0.21216029526024
  H   1.53009843259903     -0.80507964990659      0.96518538638134
  C   -0.19761510619887      1.42803127882900      0.76358494840881
  N   -0.02273978851693      2.57982922191213      0.92329215054664
  N   -1.50091229905498     -0.13395733580043     -0.53412369380126
  O   -1.08287571688222      0.05854070451112     -1.66676920773223
  O   -2.64089874054173     -0.37672608440782     -0.18584731961668
  C   1.59156152313828     -0.03717718212915     -0.97091398139935
  N   2.23332782649282      0.48938080678500     -1.79993908799581
