12
Coordinates from ORCA-job run
  C   -0.33635879107191      0.19353640628888      0.33960307686801
  C   0.71834755669497     -0.69789564278639     -0.31590020721200
  Cl  -0.24119571636643      0.08791471701536      2.10167588317948
  H   0.55731803155109     -0.69641561247545     -1.39881550411913
  H   0.58446315622575     -1.71793187652803      0.04785448033647
  C   -0.22780181945788      1.57914103003623     -0.09362101706754
  N   -0.08671820123658      2.68482355878691     -0.46697673571319
  N   -1.73273109704039     -0.33276236808462     -0.06157999709497
  O   -1.82224615798765     -1.54375198946338     -0.20395154118530
  O   -2.62225631890431      0.49845969536196     -0.15595445761234
  C   2.06232140003966     -0.21794320660631     -0.01492721239686
  N   3.14685795755367      0.16182528845485      0.22259323201739
