12
Coordinates from ORCA-job run
  C   -0.34191600856183      0.14234548031635      0.52051965385672
  C   1.07005396479819     -0.12011293396391     -0.01923035536186
  Cl  -0.80489354469667     -1.04678282374943      1.71924869788992
  H   1.32229518615978      0.67360718289359     -0.72699286054273
  H   1.77397451919101     -0.08263833544423      0.81585830804573
  C   -0.43183843334067      1.48955664705699      1.06963902823729
  N   -0.46737404386440      2.57095271950265      1.52894254922318
  N   -1.29649229078013      0.08619345632630     -0.70912028033908
  O   -2.10946963951051     -0.81477065211686     -0.77795558701051
  O   -1.07904397685769      0.97708717520790     -1.51893380130856
  C   1.14944575409295     -1.41850958087167     -0.68111301058756
  N   1.21525851336998     -2.45792833515769     -1.22186234210253
