12
Coordinates from ORCA-job run
  C   -0.38901938361659      0.11306225660154      0.54797950941056
  C   0.85544292647441     -0.72184507052408      0.25633991426253
  Cl  -1.14588022328627     -0.45792737432538      2.04255566656472
  H   0.56450587760392     -1.77251102862357      0.20724803818181
  H   1.56083383574206     -0.58911861077533      1.08071805784504
  C   -0.09220905881144      1.53465751286557      0.64337944254251
  N   0.21143098007711      2.66562786285549      0.74682912352851
  N   -1.41841371647936     -0.10466852080132     -0.58400748270207
  O   -2.10554403177082      0.85680106013339     -0.89160330476612
  O   -1.46999574983230     -1.23965944156812     -1.03262598516952
  C   1.47107863334634     -0.31208907868492     -1.00268211397354
  N   1.95776991055294      0.02767043284673     -2.01513086572444
