12
Coordinates from ORCA-job run
  C   -0.33859839601142      0.17544232495318      0.40361674492937
  C   0.72592211605981     -0.63508796897586     -0.34899167335734
  Cl  -0.15854512558097      0.00631277971746      2.13630022566772
  H   0.53115417661865     -0.54894773937689     -1.42144967703688
  H   0.63003429861980     -1.68412279066735     -0.05230211293666
  C   -0.32574950928616      1.57998885476877      0.01780293099971
  N   -0.28632885305185      2.71361673198261     -0.29083660499337
  N   -1.69999882383673     -0.41796098069801     -0.06819647112312
  O   -1.95302995075670     -0.17201115794983     -1.23960001638029
  O   -2.34447093318771     -1.08985456581877      0.71487383638075
  C   2.06865944266194     -0.15529476845834     -0.04550071006920
  N   3.15195155775134      0.22791928052305      0.19228352791933
