12
Coordinates from ORCA-job run
  C   -0.32134897012872      0.13284182765772      0.43317159421329
  C   0.70315208502961     -0.60009966545396     -0.44417406230134
  Cl  -0.08314197732373     -0.23236903833798      2.12822388266093
  H   0.60125279739120     -1.67465060230710     -0.26352629319888
  H   0.47194962688373     -0.39142038288211     -1.49228470495434
  C   -0.30028283634850      1.57163159056386      0.20713878767846
  N   -0.25367716201141      2.73232376145843      0.02668725576726
  N   -1.70765015385090     -0.38816129817746     -0.05187082511650
  O   -2.33409196438828     -1.13703081278998      0.67387769604161
  O   -1.99825077457299     -0.00861528555263     -1.17802845452748
  C   2.06311075716596     -0.17300805946449     -0.13864606573527
  N   3.15997857215403      0.16855796528570      0.10043118947224
