12
Coordinates from ORCA-job run
  C   -0.37963664480889      0.10443752992534      0.55735254204222
  C   0.84637383407180     -0.74308444193103      0.22597024511072
  Cl  -1.12799659032157     -0.49547149584695      2.04469609106608
  H   0.53659390921542     -1.78682598581038      0.15077930158065
  H   1.56471560275095     -0.64604494230237      1.04404445458221
  C   -0.05597121769942      1.51730471372679      0.68810827785007
  N   0.26949607064370      2.63986820345357      0.81453116630331
  N   -1.42616105555743     -0.06361207918033     -0.56723281044655
  O   -1.50634774835598     -1.18571787174709     -1.04300799563776
  O   -2.09680249739917      0.91901579905608     -0.84267313593851
  C   1.45128289629256     -0.30848702418442     -1.03000106244603
  N   1.92645344116803      0.04961759484078     -2.04156707406642
