14

C	-0.526569	-0.036523	-1.404638
C	0.0	0.0	0.0
F	0.080887	0.830615	-2.234445
H	1.088808	0.0	0.0
H	-0.307937	-0.877367	0.561052
N	-0.263568	-1.454147	-1.996384
O	-0.422577	-2.40584	-1.245816
O	0.014025	-1.492912	-3.184349
C	-1.990984	0.116845	-1.506871
N	-3.163524	0.167532	-1.573043
N	-0.452898	1.17897	0.701428
O	-0.370293	1.157173	1.935745
O	-0.776501	2.177556	0.034486
H	2.505095	0.0	0.0
