14

C	-0.615769	-0.006355	-1.365301
C	0.0	0.0	0.0
F	-0.205836	1.1236	-2.031161
H	1.089751	0.0	0.0
H	-0.258896	0.934577	0.498643
N	-0.146269	-1.163385	-2.254241
O	0.901826	-1.713447	-1.961372
O	-0.836111	-1.360589	-3.253582
C	-2.087893	-0.016714	-1.360906
N	-3.257291	0.087649	-1.314034
N	-0.490366	-1.09567	0.787369
O	-0.98535	-2.072884	0.186324
O	-0.286936	-1.051997	2.007917
H	2.469617	0.0	0.0
