14

C	-0.513184	0.038306	-1.407318
C	0.0	0.0	0.0
F	0.166496	0.892246	-2.209779
H	1.08892	0.0	0.0
H	-0.305087	-0.900284	0.522572
N	-0.319083	-1.357149	-2.065353
O	-0.581718	-1.393504	-3.262637
O	0.070065	-2.28703	-1.371269
C	-1.95871	0.312195	-1.523905
N	-3.120958	0.478085	-1.582903
N	-0.453659	1.143138	0.75489
O	-0.417056	1.050043	1.989879
O	-0.736386	2.182085	0.13072
H	2.495962	0.0	0.0
