14

C	-0.595801	-0.081108	-1.369281
C	0.0	0.0	0.0
F	-1.967075	-0.148724	-1.337894
H	1.089918	0.0	0.0
H	-0.302106	-0.88103	0.565997
N	-0.239386	1.11171	-2.279331
O	-1.160815	1.78961	-2.701392
O	0.950484	1.224072	-2.52341
C	-0.094078	-1.27709	-2.064386
N	0.270478	-2.253816	-2.603366
N	-0.437319	1.164193	0.723911
O	-0.576285	1.051235	1.950694
O	-0.502338	2.238658	0.104018
H	2.480914	0.0	0.0
