14

C	-0.478121	0.047511	-1.42418
C	0.0	0.0	0.0
F	0.143954	0.979229	-2.171732
H	1.10115	0.0	0.0
H	-0.313272	-0.915074	0.495191
N	-0.130421	-1.327914	-2.050754
O	-0.631142	-2.29998	-1.498768
O	0.589395	-1.326624	-3.034237
C	-1.935773	0.187773	-1.583672
N	-3.099822	0.26917	-1.721697
N	-0.469142	1.125479	0.763693
O	-0.398461	1.02616	1.996871
O	-0.790985	2.162839	0.156373
H	2.484674	0.0	0.0
