14

C	-0.483279	0.007319	-1.42339
C	0.0	0.0	0.0
F	0.111752	0.938481	-2.192118
H	1.089674	0.0	0.0
H	-0.310869	-0.906149	0.513465
N	-0.10657	-1.372907	-2.024588
O	0.590835	-1.373714	-3.02428
O	-0.5732	-2.344395	-1.442738
C	-1.945819	0.106052	-1.575122
N	-3.113806	0.157572	-1.694301
N	-0.487309	1.135971	0.742436
O	-0.837631	2.151957	0.116587
O	-0.412747	1.059396	1.975966
H	2.506049	0.0	0.0
