14

C	-0.588163	-0.093187	-1.37219
C	0.0	0.0	0.0
F	-0.195525	1.014151	-2.083952
H	1.106849	0.0	0.0
H	-0.249842	0.969767	0.431155
N	-0.058208	-1.280076	-2.192101
O	0.899158	-1.899134	-1.759716
O	-0.617005	-1.434832	-3.276534
C	-2.058892	-0.15305	-1.413793
N	-3.232342	-0.088467	-1.415651
N	-0.500786	-1.033327	0.855738
O	-0.292755	-0.910535	2.071463
O	-1.014093	-2.041764	0.325138
H	2.445252	0.0	0.0
