14

C	-0.591457	-0.023865	-1.372444
C	0.0	0.0	0.0
F	-1.956854	-0.15917	-1.353546
H	1.101448	0.0	0.0
H	-0.289074	-0.914309	0.518317
N	-0.290678	1.239093	-2.204902
O	-1.243421	1.899623	-2.581755
O	0.891931	1.421458	-2.442668
C	-0.040001	-1.148275	-2.144769
N	0.325865	-2.077788	-2.762648
N	-0.445957	1.115761	0.786323
O	-0.530481	2.223811	0.228496
O	-0.5709	0.934672	2.007501
H	2.462975	0.0	0.0
