14

C	-0.610353	-0.045028	-1.366811
C	0.0	0.0	0.0
F	-0.205724	1.07265	-2.055959
H	1.089911	0.0	0.0
H	-0.257899	0.949586	0.47015
N	-0.120866	-1.219238	-2.224157
O	0.885936	-1.80692	-1.866485
O	-0.75368	-1.391312	-3.264494
C	-2.082577	-0.071194	-1.378536
N	-3.255049	0.008214	-1.353007
N	-0.492093	-1.070324	0.822026
O	-0.267539	-0.995557	2.037277
O	-1.014464	-2.053933	0.257542
H	2.47433	0.0	0.0
