14

C	-0.491886	0.155333	-1.410792
C	0.0	0.0	0.0
F	0.144154	1.119224	-2.102779
H	1.102427	0.0	0.0
H	-0.310095	-0.948637	0.429934
N	-0.194247	-1.182869	-2.138285
O	0.478534	-1.12859	-3.155007
O	-0.69497	-2.179372	-1.631418
C	-1.948314	0.337956	-1.540982
N	-3.113425	0.437819	-1.659928
N	-0.460166	1.066534	0.847412
O	-0.373154	0.879014	2.069944
O	-0.787292	2.146183	0.320759
H	2.481867	0.0	0.0
