13

C	-0.459374	0.106227	-1.448769
C	0.0	0.0	0.0
F	-1.801162	0.316715	-1.538326
H	1.095643	0.0	0.0
H	0.081051	0.90124	-1.962468
N	-0.153848	-1.168619	-2.19648
O	0.889643	-1.181902	-2.838616
O	-0.979077	-2.071147	-2.100134
C	-0.519142	-1.184539	0.679754
N	-0.941382	-2.128273	1.236681
C	-0.43786	1.210244	0.697895
N	-0.783781	2.192587	1.239945
Cl	3.122513	0.0	0.0
