13

C	-0.39109	0.059863	-1.464001
C	0.0	0.0	0.0
F	-1.744099	-0.031501	-1.644791
H	1.097409	0.0	0.0
H	-0.021092	0.973972	-1.925649
N	0.20953	-1.072316	-2.256204
O	0.621626	-0.779785	-3.37605
O	0.171409	-2.191306	-1.757841
C	-0.539572	-1.150698	0.720224
N	-0.983848	-2.02808	1.361456
C	-0.459483	1.235789	0.635756
N	-0.822631	2.240314	1.123675
Cl	3.115415	0.0	0.0
