13

C	-0.34422	-0.101586	-1.483454
C	0.0	0.0	0.0
F	0.08602	1.003475	-2.123149
H	1.097582	0.0	0.0
H	0.097549	-0.996501	-1.921929
N	-1.837794	-0.208684	-1.694142
O	-2.303459	-1.341667	-1.585505
O	-2.458941	0.822075	-1.924436
C	-0.463183	-1.16343	0.749817
N	-0.822792	-2.10094	1.358705
C	-0.512689	1.237643	0.581016
N	-0.942681	2.222025	1.054976
Cl	3.113435	0.0	0.0
