13

C	-0.454261	0.086849	-1.451944
C	0.0	0.0	0.0
F	-1.790304	0.328039	-1.550005
H	1.095624	0.0	0.0
H	0.109046	0.854056	-1.983492
N	-0.173946	-1.217852	-2.160972
O	-1.063344	-2.066101	-2.141133
O	0.927481	-1.304845	-2.690372
C	-0.520884	-1.178456	0.686992
N	-0.941927	-2.123867	1.243264
C	-0.440922	1.21457	0.687741
N	-0.7878	2.199555	1.22426
Cl	3.121846	0.0	0.0
