13

C	-0.474357	-0.035995	-1.457763
C	0.0	0.0	0.0
F	-0.241127	-1.252212	-1.990989
H	1.096784	0.0	0.0
H	-1.532728	0.213984	-1.570247
N	0.269699	1.002272	-2.273751
O	0.880438	0.629013	-3.261509
O	0.126371	2.152142	-1.874456
C	-0.481162	-1.207676	0.671271
N	-0.886195	-2.170422	1.207941
C	-0.499985	1.173368	0.714045
N	-0.90875	2.092475	1.320311
Cl	3.121704	0.0	0.0
