15

C	-0.407317	0.002528	-1.48791
C	0.0	0.0	0.0
Cl	0.263321	-1.480332	-2.253387
H	1.096621	0.0	0.0
C	-1.91647	0.011893	-1.705757
H	-2.142861	-0.004561	-2.773812
H	-2.345774	0.912685	-1.26006
H	-2.352113	-0.870286	-1.233891
C	0.184841	1.165618	-2.160283
N	0.534965	2.116493	-2.755943
C	-0.505676	-1.170053	0.686839
N	-0.862036	-2.137943	1.255024
C	-0.462892	1.211201	0.647719
N	-0.832704	2.195288	1.178089
H	2.456074	0.0	0.0
