15

C	-0.307203	0.024525	-1.500689
C	0.0	0.0	0.0
Cl	-2.094217	0.133452	-1.830313
H	1.098594	0.0	0.0
C	0.404369	1.206455	-2.139108
H	0.292812	1.179899	-3.223598
H	1.459833	1.13337	-1.850498
H	-0.016085	2.136778	-1.753971
C	0.144471	-1.23202	-2.103918
N	0.490471	-2.244046	-2.591097
C	-0.500365	-1.179372	0.675933
N	-0.852973	-2.152395	1.235497
C	-0.444037	1.217375	0.649378
N	-0.763674	2.233883	1.148272
H	2.48643	0.0	0.0
