15

C	-0.414993	0.013845	-1.484727
C	0.0	0.0	0.0
Cl	0.266699	-1.455249	-2.268947
H	1.096563	0.0	0.0
C	-1.925085	0.007933	-1.695313
H	-2.361261	0.898874	-1.236565
H	-2.158226	0.000119	-2.762375
H	-2.348612	-0.883581	-1.228668
C	0.16253	1.188857	-2.148395
N	0.497866	2.148488	-2.737305
C	-0.49882	-1.178895	0.678262
N	-0.857115	-2.149101	1.241018
C	-0.465098	1.203126	0.662449
N	-0.835638	2.182125	1.202277
H	2.457765	0.0	0.0
