19

C	0.0	0.0	0.0
C	-0.478886	4e-06	-1.454083
Cl	1.82181	0.0	0.0
H	-1.572955	-3e-06	-1.375976
C	-0.465784	1.249048	0.723376
H	-1.560616	1.247906	0.706152
H	-0.098783	2.146803	0.229672
H	-0.122175	1.228198	1.761062
C	-0.465784	-1.249051	0.72337
H	-0.098802	-2.146804	0.229646
H	-0.122156	-1.228219	1.76105
H	-1.560616	-1.247897	0.706165
N	-0.085009	-1.242875	-2.117266
H	-0.568597	-1.304773	-3.005537
H	0.912292	-1.216326	-2.302937
N	-0.085022	1.242893	-2.117254
H	-0.568594	1.304783	-3.005534
H	0.912283	1.216365	-2.302905
Br	-4.077872	0.0	0.0
