19

C	0.0	0.0	0.0
C	-0.353786	-0.176558	-1.506769
Cl	1.817525	0.0	0.0
H	0.190694	0.635161	-2.020262
C	-0.47466	1.348184	0.506093
H	-0.151965	2.152932	-0.160893
H	-1.567112	1.336453	0.562358
H	-0.074424	1.544949	1.503486
C	-0.510837	-1.129523	0.867268
H	-1.605923	-1.108804	0.851225
H	-0.178442	-0.994874	1.899997
H	-0.16625	-2.091132	0.490269
N	-1.739096	-0.044881	-1.871878
H	-2.345722	-0.665152	-1.342733
H	-2.097043	0.881583	-1.682607
N	0.060735	-1.50154	-1.959572
H	1.069938	-1.556178	-2.010087
H	-0.323134	-1.61057	-2.890057
Br	-4.514266	0.0	0.0
