19

C	0.0	0.0	0.0
C	-0.545058	0.135601	-1.426797
Cl	1.805577	0.0	0.0
H	-1.605426	-0.132785	-1.327731
C	-0.467894	1.143993	0.882268
H	-0.044518	2.092969	0.548942
H	-1.562152	1.176557	0.848933
H	-0.152206	0.970683	1.913814
C	-0.450207	-1.335615	0.570959
H	-0.115071	-2.148363	-0.073493
H	-1.542875	-1.333157	0.623488
H	-0.039613	-1.473836	1.574699
N	0.078319	-0.82603	-2.313712
H	0.98418	-0.462993	-2.590392
H	-0.493837	-0.933149	-3.142916
N	-0.386759	1.512038	-1.92671
H	-0.716735	1.505558	-2.887248
H	-1.046638	2.10013	-1.424296
Br	-4.065856	0.0	0.0
