19

C	0.0	0.0	0.0
C	-0.484768	-1.024121	-1.089855
Cl	1.803971	0.0	0.0
H	0.408142	-1.4567	-1.548337
C	-0.432092	1.431931	-0.288043
H	-0.009005	2.093014	0.47334
H	-1.522121	1.48974	-0.235395
H	-0.103801	1.752202	-1.275078
C	-0.431354	-0.376009	1.411445
H	-0.006125	0.341502	2.1185
H	-1.521422	-0.325843	1.472805
H	-0.104472	-1.381421	1.668435
N	-1.194114	-0.324504	-2.163611
H	-1.382518	-1.006221	-2.892017
H	-2.105103	-0.04268	-1.799439
N	-1.195791	-2.138771	-0.459513
H	-2.105598	-1.793033	-0.152144
H	-1.385448	-2.821579	-1.186212
Br	-4.071992	0.0	0.0
