19

C	0.0	0.0	0.0
C	-0.494511	-0.16574	-1.448762
Cl	1.82033	0.0	0.0
H	-1.582352	-0.052249	-1.366031
C	-0.461098	1.331533	0.564437
H	-1.555553	1.321048	0.578474
H	-0.116418	2.150118	-0.065031
H	-0.086873	1.463395	1.58316
C	-0.470429	-1.142841	0.878746
H	-0.07021	-2.102046	0.546158
H	-0.150212	-0.97754	1.91038
H	-1.564876	-1.161338	0.842965
N	-0.244219	-1.478507	-2.046239
H	0.689135	-1.795659	-1.800849
H	-0.911213	-2.146388	-1.676368
N	0.008786	0.917176	-2.280016
H	1.003142	0.769902	-2.42795
H	-0.438777	0.811082	-3.183495
Br	-4.041529	0.0	0.0
