19

C	0.0	0.0	0.0
C	-0.54696	-0.110609	-1.431938
Cl	1.792734	0.0	0.0
H	-1.640619	-0.111365	-1.295197
C	-0.482322	1.297784	0.628837
H	-1.576393	1.317116	0.580417
H	-0.058058	2.162462	0.114426
H	-0.173054	1.34338	1.676041
C	-0.481274	-1.185606	0.821369
H	-1.57587	-1.20186	0.792911
H	-0.073026	-2.120837	0.432758
H	-0.152432	-1.081848	1.858351
N	-0.092073	-1.344505	-2.075744
H	-0.315357	-1.285108	-3.064188
H	-0.665713	-2.100404	-1.716771
N	-0.115714	1.027612	-2.246341
H	-0.699024	1.816255	-1.989455
H	-0.348653	0.826387	-3.213259
Br	-4.106698	0.0	0.0
