19

C	0.0	0.0	0.0
C	-0.522019	-0.06728	-1.453422
Cl	1.802705	0.0	0.0
H	-1.604904	0.096863	-1.357776
C	-0.469993	1.285805	0.660231
H	-0.102548	2.164578	0.125172
H	-0.105143	1.338038	1.689198
H	-1.564984	1.283965	0.663937
C	-0.473394	-1.203719	0.795473
H	-0.052273	-2.123283	0.385875
H	-1.567927	-1.228534	0.751844
H	-0.162478	-1.115655	1.839855
N	-0.214414	-1.367554	-2.050729
H	-0.384445	-1.249925	-3.043368
H	-0.89627	-2.040238	-1.71492
N	-0.004556	0.949198	-2.355243
H	0.994704	1.047316	-2.211909
H	-0.447309	1.836336	-2.155447
Br	-4.055308	0.0	0.0
