18

C	-0.276378	-0.031426	-1.507213
C	0.0	0.0	0.0
Cl	-0.111047	-1.729228	-2.167521
H	1.095905	0.0	0.0
N	-1.729508	0.296052	-1.852981
O	-1.95018	0.792161	-2.953201
O	-2.58538	0.013596	-1.019357
N	0.546796	0.903927	-2.149226
H	0.476915	0.843126	-3.155423
H	1.509746	0.775935	-1.838123
N	-0.483186	-1.160801	0.714541
H	-1.373346	-0.961073	1.151118
H	0.19371	-1.4082	1.424143
C	-0.428072	1.34004	0.604285
H	0.048378	1.435657	1.58338
H	-0.10387	2.178533	-0.014005
H	-1.512822	1.387	0.736276
Br	3.534613	0.0	0.0
