18

C	-0.284606	0.111746	-1.5034
C	0.0	0.0	0.0
Cl	-0.202583	-1.539716	-2.316051
H	1.103952	0.0	0.0
N	-1.732996	0.559648	-1.756336
O	-1.903417	1.679751	-2.234319
O	-2.622734	-0.204686	-1.40675
N	0.599212	1.039685	-2.046471
H	1.554875	0.843136	-1.747488
H	0.524134	1.130145	-3.049059
N	-0.582262	-1.179476	0.627363
H	-0.092878	-1.998487	0.283569
H	-0.35776	-1.113999	1.614774
C	-0.497717	1.249145	0.712017
H	-0.189637	2.149957	0.182673
H	-0.065537	1.280558	1.715991
H	-1.588171	1.223079	0.801709
Br	3.566432	0.0	0.0
