18

C	-0.404715	-0.013484	-1.477571
C	0.0	0.0	0.0
Cl	-2.295212	0.196208	-1.569816
H	1.093058	0.0	0.0
N	0.074688	1.180647	-2.305578
O	0.554775	2.144599	-1.727502
O	-0.06106	1.066534	-3.52043
N	0.035609	-1.134176	-2.153888
H	-0.258451	-1.172519	-3.117704
H	-0.115076	-1.987066	-1.642273
N	-0.371941	-1.254266	0.650479
H	0.329941	-1.966644	0.503047
H	-1.296235	-1.577041	0.392695
C	-0.549571	1.15079	0.827592
H	-0.41386	2.116799	0.348724
H	-1.608998	0.995531	1.041439
H	-0.003877	1.146119	1.771716
Br	3.553392	0.0	0.0
