11
Coordinates from ORCA-job run
  C   -0.61199029535456     -0.06946284679604      0.15678574652775
  C   0.42866635117648      0.23840902718746      0.98445373974410
  H   0.28760312496730      0.54746465828783      2.00899340268808
  N   -0.57024293113528     -0.53348482403045     -1.11780090224154
  H   0.32231374317469     -0.47872081498649     -1.58501364752784
  H   -1.40907247798196     -0.47681620989373     -1.66999848950258
  C   -1.92498989777526      0.03655755010735      0.73906941859230
  N   -3.00408882660482      0.13226636880505      1.19771792550730
  N   1.79364690343388      0.20780640702883      0.55975275240428
  O   2.64146744172598      0.52669116710886      1.39285293656466
  O   2.04668686437355     -0.12971048281867     -0.60681288275652
