11
Coordinates from ORCA-job run
  C   -0.60879509745231     -0.09287143421453      0.17115239114773
  C   0.43277396037651      0.28391816092632      0.96863078253310
  H   0.29699716100619      0.62405862756603      1.98396565331252
  N   -0.57027276926636     -0.59994796969539     -1.08713450557476
  H   0.31144986453739     -0.52801454826066     -1.57221080731291
  H   -1.42000318013956     -0.59804460045453     -1.62520860417875
  C   -1.91589936363515     -0.01618197174136      0.77096237618640
  N   -2.99346781594144      0.05073287769156      1.23780575463200
  N   1.79056955811536      0.28892331042871      0.52093361010992
  O   2.03656160058572     -0.07722026451198     -0.63854448592611
  O   2.64008608181366      0.66564781226584      1.32764783507086
