11
Coordinates from ORCA-job run
  C   -0.42043607261374     -0.25813890073310     -0.03537092950620
  C   0.89349688343519     -0.08212220256444      0.24553098106979
  H   1.67465179985259     -0.69074851489669     -0.19060983471722
  N   -0.88466109380384     -1.28507314396484     -0.82830137168130
  H   -1.77371531175723     -1.12928644775779     -1.27608398403682
  H   -0.20328912484264     -1.74791605947056     -1.40990841519174
  C   -1.47155241185249      0.55204195329685      0.52128474166672
  N   -2.43872776297948      1.12735082405888      0.86329567408627
  N   1.39623824095797      0.91535398452929      1.15629289305741
  O   0.60436295120269      1.64706286896760      1.74688149515654
  O   2.62363190240098      0.95247563853481      1.26698875009655
