11
Coordinates from ORCA-job run
  C   -0.61297113839852     -0.06577171418897      0.16796248438835
  C   0.44592407587274      0.22183355423709      0.97949651789574
  H   0.33994714497380      0.37863580471132      2.04219147874601
  N   -0.62969463766049     -0.21227931365349     -1.18124401468827
  H   -1.42456776019247     -0.66707935502835     -1.59717466840528
  H   0.26800930038266     -0.29655543124744     -1.63398753000339
  C   -1.89480673610911     -0.14615975340942      0.81949614676953
  N   -2.94732547128929     -0.22433815477537      1.33887865815855
  N   1.78977760560782      0.31335206193082      0.49980173825008
  O   2.66269831719795      0.54700963567196      1.33510714114966
  O   2.00200929961491      0.15035266575185     -0.71152795226098
