11
Coordinates from ORCA-job run
  C   -0.61024398755401     -0.02292552046135      0.09974695535098
  C   0.36971576446037      0.33127113127812      0.98110980734537
  H   0.15710024295365      0.68649290136557      1.97805762178109
  N   -0.48332531306857     -0.41241220630078     -1.19418098551595
  H   0.44938391058959     -0.64307570360376     -1.50226557698291
  H   -1.26321965308880     -0.87683613815776     -1.62730464925742
  C   -1.96122132851147      0.10790479740449      0.58113338965252
  N   -3.07005713714353      0.19733361411530      0.96320676881617
  N   1.76281562796221      0.23635211712219      0.67267919558321
  O   2.09783773826666     -0.16339143975916     -0.45283539176726
  O   2.55121413513390      0.55928644699713      1.56065286499420
