11
Coordinates from ORCA-job run
  C   -0.41626101703381     -0.25196871805623     -0.04914480857278
  C   0.89871082847475      0.00265813865743      0.15599154010525
  H   1.68328149688594     -0.42668783841992     -0.45295892534374
  N   -0.86618756692828     -1.15005133813043     -0.99205514768629
  H   -0.20795195507894     -1.42455904067762     -1.70457031871560
  H   -1.80545570068783     -1.00650436062455     -1.32699523943916
  C   -1.47374865496211      0.32215424183997      0.74053709011937
  N   -2.44918249132331      0.71668493907837      1.26618804025862
  N   1.40046805986630      0.85308569585564      1.20594733014812
  O   2.62556422985878      0.98970983801879      1.22879659499391
  O   0.60976277092851      1.37647844245854      1.98826384413231
