11
Coordinates from ORCA-job run
  C   -0.61265620162474     -0.02746299660938      0.12124021589735
  C   0.40246456712094      0.57283129786219      0.80808606779708
  H   0.23449012836318      1.36583221536080      1.52084270851390
  N   -0.54832127704813     -1.07415940371398     -0.74051519643559
  H   0.37299569878371     -1.33480695737497     -1.05873360723570
  H   -1.33221035180730     -1.23151781890757     -1.35087408002686
  C   -1.93587086784181      0.46272482554866      0.40968816424446
  N   -3.02148640545956      0.85937438078449      0.62756648408398
  N   1.77710138094439      0.22547971320282      0.62315065446619
  O   2.06048568373091     -0.67749048413040     -0.17883526814470
  O   2.60300764483842      0.85919522797733      1.27938385683987
