11
Coordinates from ORCA-job run
  C   -0.60711028789096      0.01900807047644      0.08136350398324
  C   0.36413583278747      0.27360106614200      1.00578615175800
  H   0.14182744925657      0.59780897665092      2.01106825657022
  N   -0.46364342554342     -0.32058173517494     -1.22500903433805
  H   0.46239345261126     -0.59595572220469     -1.51621583422996
  H   -1.25684817188852     -0.71829052682395     -1.69890106541343
  C   -1.96236133339972      0.20968530708602      0.52994188101697
  N   -3.07599400172480      0.34732046836221      0.88268055314100
  N   1.75795848425665      0.10732788762731      0.73331419408492
  O   2.10360130298989     -0.26202053550465     -0.39936723598860
  O   2.53604069854558      0.34209674336335      1.65733862941567
