11
Coordinates from ORCA-job run
  C   -0.61202197034568     -0.00284016512764      0.10877769192788
  C   0.40504584338227      0.49401809800360      0.87146470298554
  H   0.24536321810001      1.21528748806836      1.65835833785247
  N   -0.55804523409572     -0.95671977925072     -0.85482029452465
  H   0.36210713005931     -1.21131270531521     -1.18103620231047
  H   -1.33544017691471     -1.03578020248079     -1.48799936652966
  C   -1.92630251413835      0.49686694071865      0.41937252103896
  N   -3.00508859584038      0.90341877027356      0.65274482604050
  N   1.77331841843654      0.12751620722422      0.67550023942015
  O   2.04851456296671     -0.69521705437614     -0.21131574784237
  O   2.60254931838999      0.66476240226212      1.40895329194167
