11
Coordinates from ORCA-job run
  C   -0.42023760891969     -0.19187046490886     -0.09418967420645
  C   0.89864708966864     -0.00707499957731      0.15643186208492
  H   1.67887367425847     -0.49497368206638     -0.41283285686253
  N   -0.88176091420807     -0.94497410572178     -1.15140280953505
  H   -1.80897937900045     -1.32609445967700     -1.05154567571826
  H   -0.21935802273687     -1.57011465166210     -1.58358438366547
  C   -1.47229695019711      0.43640408700294      0.66034894238608
  N   -2.44420457695610      0.84659580431495      1.18051671015877
  N   1.40903544570499      0.86200446876368      1.18621502945836
  O   0.62152440370001      1.49454155787080      1.88699199132165
  O   2.63775683868619      0.89455644566106      1.28305086457797
