11
Coordinates from ORCA-job run
  C   -0.58214815772555      0.02581747267293     -0.01448128877531
  C   0.53395784863344      0.76662960127899      0.24667062769573
  H   0.59933552347957      1.82090523533699      0.02442131751100
  N   -0.81895460952288     -1.27853843677938      0.27636014304301
  H   -0.02031453375023     -1.82610285541229      0.55984301219460
  H   -1.57678624716341     -1.73850377470162     -0.19886536796741
  C   -1.68320704445831      0.74191935374502     -0.60506948460923
  N   -2.58801214064283      1.30946474317692     -1.09780017240639
  N   1.72417903434845      0.20633204467037      0.80706709802900
  O   2.67469167935267      0.97100125047576      0.96940445743341
  O   1.73725864744908     -1.00092463446370      1.09244965785158
