11
Coordinates from ORCA-job run
  C   -0.42727294280670     -0.28966546025890      0.02376658024351
  C   0.89345205345032     -0.08055685647117      0.24288444554161
  H   1.66117790475462     -0.76959005602875     -0.08396251679098
  N   -0.91692948394668     -1.44107746270758     -0.55354691213666
  H   -0.25158029977419     -2.01468641276667     -1.04861485441052
  H   -1.81248096453113     -1.35994260355697     -1.00814420699115
  C   -1.45974747061333      0.62333131999947      0.43800827218845
  N   -2.41486161286664      1.26405043037728      0.68461014116424
  N   1.42313247877057      1.06268105014956      0.94263255518892
  O   0.65044723486934      1.90483242908763      1.39516936586650
  O   2.65266310269382      1.10162362217607      1.02619713013609
