11
Coordinates from ORCA-job run
  C   -0.61033868005993     -0.05569257197147      0.12209831569068
  C   0.37770668416032      0.41072510930009      0.94007091693180
  H   0.17440085331974      0.95806616975032      1.84798701771675
  N   -0.49393949026301     -0.81104739679188     -0.99868178419719
  H   -1.28446286863786     -0.86921589142287     -1.61753083228912
  H   0.43379045163845     -0.90487361474150     -1.38362223160024
  C   -1.95760441709757      0.22998765859097      0.54371877766700
  N   -3.06395405610529      0.46486819550177      0.86667066170646
  N   1.76797289209876      0.23642625127321      0.65476713477264
  O   2.09270603697708     -0.38134539295081     -0.37090872956151
  O   2.56472259396931      0.72310148346216      1.45643075316272
