11
Coordinates from ORCA-job run
  C   -0.42558265134255     -0.18296100819894     -0.09285583809723
  C   0.89406280036467      0.05017476350373      0.10807514378070
  H   1.66516840753304     -0.32580107991745     -0.55143983734692
  N   -0.90845646236233     -0.84000156085430     -1.20356036076006
  H   -0.23985653246817     -1.37355722174150     -1.73728930653237
  H   -1.80515766417485     -1.28692691526069     -1.09722722895837
  C   -1.46307684850010      0.29466563370803      0.78274663368657
  N   -2.42138350267960      0.58584695066570      1.39936266109977
  N   1.41751063493320      0.82765489031755      1.20297784662378
  O   2.64692931383317      0.91080751838663      1.24545479320070
  O   0.63984250486354      1.34109802939125      2.00475549330345
