11
Coordinates from ORCA-job run
  C   -0.41573452118583     -0.25064147406147     -0.05100720049874
  C   0.89955321252380     -0.01336144964889      0.17290057328934
  H   1.68693664600557     -0.46439493341950     -0.41685773685770
  N   -0.86297562857543     -1.15710006355840     -0.98759365732562
  H   -0.19789642159654     -1.44185006342005     -1.69013091985529
  H   -1.79515087404271     -1.00446360655329     -1.33784532414571
  C   -1.47706029870071      0.35147329710984      0.71176195823014
  N   -2.45627576180399      0.76536702206843      1.21490156869936
  N   1.39643214313582      0.84917046575952      1.21520045109368
  O   2.62253944691308      0.97228973439855      1.25320827683318
  O   0.60063205732694      1.39551107132527      1.97646201053735
