11
Coordinates from ORCA-job run
  C   -0.42189447336995     -0.24824028617314     -0.04440579273942
  C   0.86272332496540     -0.16453901242073      0.37864652865264
  H   1.60575781034942     -0.91876230287228      0.15512804994276
  N   -0.91809431083833     -1.34502847411406     -0.71481109787526
  H   -1.72403887768640     -1.17996689850268     -1.29635960883933
  H   -0.23858213487614     -1.97296251160437     -1.11554131968567
  C   -1.41893098742165      0.75325090676979      0.22732659358208
  N   -2.33823385462289      1.47835313609172      0.33883310012251
  N   1.38118626362735      0.92168354963286      1.17121974428400
  O   0.62724974811406      1.82769513634468      1.52052492785825
  O   2.58285749175912      0.84851675684822      1.43743887469744
