11
Coordinates from ORCA-job run
  C   -0.41381448570285     -0.16082164948154     -0.12307300390844
  C   0.88082484817312     -0.15349822042061      0.27705478856870
  H   1.62301495354432     -0.83474658166897     -0.11768293817110
  N   -0.87964849924592     -0.97308338344665     -1.13384097684837
  H   -1.86373389668157     -1.18778545111871     -1.11031460753312
  H   -0.29131619674676     -1.74899729714715     -1.39532201497924
  C   -1.41701220329649      0.72677327096758      0.40303583060027
  N   -2.35278021790966      1.35501251238124      0.73922354046397
  N   1.41754009516623      0.76117500869218      1.25297317625446
  O   2.61170086411286      0.60393045326072      1.51684085831058
  O   0.68322473858671      1.61204133798190      1.75110534724229
