11
Coordinates from ORCA-job run
  C   -0.59749113069216      0.04774412403962      0.04292981487370
  C   0.38669560441904      0.52573062165439      0.85872070178281
  H   0.19627252933318      1.24018640635607      1.64513254990824
  N   -0.48375183959682     -0.79081751130170     -1.01810595275262
  H   -1.31680054831625     -1.24239934393942     -1.35540763838208
  H   0.40056007800534     -1.26555161762841     -1.12040881871352
  C   -1.91961101370331      0.56153302291212      0.29175902258776
  N   -3.00802877511931      0.96155642487981      0.48882580770154
  N   1.74838265393733      0.10023701748831      0.76438211889534
  O   2.53846907041758      0.58285038681542      1.57509975941656
  O   2.05630337131538     -0.72106953127622     -0.11292736531773
