11
Coordinates from ORCA-job run
  C   -0.41542110387917     -0.19020123385709     -0.10343523324281
  C   0.89843980463818     -0.03468424806034      0.18906292047315
  H   1.68312709108681     -0.57699194143905     -0.32181610308824
  N   -0.86283188651501     -0.97762398275243     -1.14204866942121
  H   -1.80348282791064     -1.32826571906237     -1.05584543148950
  H   -0.20522928744585     -1.64372928815818     -1.51689459474627
  C   -1.47318500801128      0.50632060193262      0.58013297606960
  N   -2.44818228437939      0.97022973708108      1.04649474000373
  N   1.39831748015250      0.86290792822209      1.19981248281981
  O   0.60926825628212      1.57172910070714      1.82131448250806
  O   2.62017976598174      0.83930904538653      1.36322243011368
