11
Coordinates from ORCA-job run
  C   -0.55064629984356      0.02342988657580     -0.06892925888614
  C   0.44510789025761      0.83820197317193      0.38274046498296
  H   0.31577662820351      1.90294697854269      0.52171768898926
  N   -0.55480229817721     -1.33020997483274     -0.16332678805983
  H   0.32707926545620     -1.80775962679011     -0.05501334143355
  H   -1.28818522680089     -1.77943922312200     -0.68188418048644
  C   -1.82465426826458      0.62568424831592     -0.36041967296460
  N   -2.93292291839497      0.97905118931805     -0.54494198994999
  N   1.69362024969126      0.31827886243709      0.86852085371781
  O   1.92475606513941     -0.89439939329240      0.74908695269610
  O   2.44587091273320      1.12421507967576      1.41244927139442
