11
Coordinates from ORCA-job run
  C   -0.41654044830906     -0.28605558532871     -0.00752126887815
  C   0.89436113493125      0.03710384264773      0.10670775503904
  H   1.66417079155187     -0.40025812062019     -0.51536681067227
  N   -0.87383022953533     -1.26646933334435     -0.86106318998213
  H   -0.24108342485207     -1.55991883946350     -1.58917347373356
  H   -1.83381493172067     -1.18261472831883     -1.15528751108525
  C   -1.45625004348326      0.29837755558596      0.79786010666999
  N   -2.41917690635882      0.69001121722574      1.34813704362192
  N   1.41151785623835      0.97884932436579      1.06761532279386
  O   2.62912921117280      1.16527419427995      1.01485397411700
  O   0.63951699036495      1.52470047297041      1.85323805210956
