11
Coordinates from ORCA-job run
  C   -0.59874470616240      0.08643653342835      0.06983011685386
  C   0.59674557687513      0.71877908635038      0.25282833858173
  H   0.71637148813714      1.78534473925052      0.13884689402856
  N   -0.89886411677295     -1.22444293458446      0.25148440309854
  H   -0.11716762658846     -1.85231243228671      0.36320400655898
  H   -1.74744199917296     -1.57614557373240     -0.15800083995289
  C   -1.70678118048586      0.93585490652398     -0.28448064215498
  N   -2.62006449952304      1.61332612172657     -0.58525640206220
  N   1.80071463466499      0.02173520136529      0.58314301874105
  O   1.75463661261381     -1.20901476077075      0.73187872628475
  O   2.82159581641459      0.69943911272922      0.69652238002260
