11
Coordinates from ORCA-job run
  C   -0.60989475934018     -0.01797411619094      0.09972876095318
  C   0.39289406806343      0.60263766940904      0.78677051306386
  H   0.21640637749389      1.43699519340537      1.44853378204027
  N   -0.53621776044988     -1.11101970304872     -0.70081081691323
  H   0.38929300590834     -1.41001280990642     -0.96919653237537
  H   -1.30438575692931     -1.29538578700920     -1.32331060491659
  C   -1.93294504056036      0.50886666514210      0.31391730858937
  N   -3.01938707506066      0.93140150116646      0.47132204895735
  N   1.76529941292656      0.21809311857681      0.67332907356930
  O   2.05788114946673     -0.73289822786263     -0.06762757749890
  O   2.58005637848146      0.86829649631812      1.32734404453076
