11
Coordinates from ORCA-job run
  C   -0.38737204644105     -0.30686975890950     -0.03143278633391
  C   0.85132244931526      0.24000805480654      0.02026179891842
  H   1.56886805238027      0.14833233753988     -0.78444690197772
  N   -0.80864759290809     -1.10775688872625     -1.07049091670769
  H   -1.80460423386349     -1.15781111847146     -1.21463861791631
  H   -0.26773760919533     -1.06590994002585     -1.92029330309372
  C   -1.36211476357615     -0.17915920534346      1.01968521865673
  N   -2.27403938522059     -0.15414942454670      1.76211904568368
  N   1.35242355849738      0.99365310848119      1.14177451346033
  O   0.64610888762000      1.13381312917970      2.13815546534804
  O   2.48679268339179      1.45484970601590      0.99830648396215
