11
Coordinates from ORCA-job run
  C   -0.60012260098989      0.01298279103854      0.04517941911161
  C   0.44704863534407      0.76020734685488      0.50132899375145
  H   0.36667901678434      1.81916425250975      0.69491848217439
  N   -0.65346322990382     -1.32577532060608     -0.16941454575667
  H   0.22768406519145     -1.81686348963749     -0.16118974478162
  H   -1.40406892308226     -1.68597108793782     -0.73356970086644
  C   -1.83315378725057      0.72743609748774     -0.16212569651207
  N   -2.84464574770674      1.29914866981296     -0.34554753676962
  N   1.74720902880193      0.21363862547791      0.73518267447696
  O   2.61690906711798      0.99443552895841      1.12034802106757
  O   1.92892447569351     -0.99740341395881      0.53588963410445
