11
Coordinates from ORCA-job run
  C   -0.57536876586303      0.06432099649857     -0.02536535968904
  C   0.44730270827603      0.70302013298817      0.61418862313219
  H   0.40306522582786      1.74626809337550      0.88748448788599
  N   -0.67742961522902     -1.24708066943008     -0.35701893174528
  H   0.16393161273214     -1.79805048243280     -0.27890889341590
  H   -1.37294353566724     -1.51457843935701     -1.03236433616538
  C   -1.73124123197402      0.87288736444055     -0.31708769913388
  N   -2.67705773734120      1.52400039274014     -0.57201064074858
  N   1.67507417913204      0.05461926331149      0.95502927355517
  O   2.53324608721682      0.74336624241688      1.50572529233842
  O   1.80942107288964     -1.14777289455141      0.68032818398631
