11
Coordinates from ORCA-job run
  C   -0.60295395120541      0.06780463775737      0.04377180472291
  C   0.30000975464481      0.54788988517544      0.92396568256803
  H   0.07662607816167      1.23258736456305      1.72855783677987
  N   -0.33345272103863     -0.72213725991928     -1.05906041246709
  H   -1.09158403542202     -1.32231723249295     -1.34396615774686
  H   0.55810282457831     -1.19562015327847     -1.04840322414288
  C   -1.96819392548227      0.48683722456962      0.19572012929962
  N   -3.09429452008584      0.80402067588222      0.31637403596460
  N   1.69585273054648      0.13948904114157      0.79972029676266
  O   2.40619506481989      0.79373992236171      0.03713923676461
  O   2.05269270048301     -0.83229410576028      1.46618077149454
