11
Coordinates from ORCA-job run
  C   -0.42237202163799     -0.26887720633374     -0.02007443735971
  C   0.89532223183375      0.01769129280401      0.11223114954000
  H   1.65822049142380     -0.41071713403672     -0.52442039428844
  N   -0.89939409179322     -1.20258340975454     -0.91449412257721
  H   -1.85547630163687     -1.08165722752790     -1.20876652262492
  H   -0.27091925459956     -1.47890028354889     -1.65300972859738
  C   -1.45090770013251      0.30738229777765      0.80535664966148
  N   -2.40634583356293      0.69998232919772      1.36787477496364
  N   1.43036419146987      0.90813998839432      1.11149932830372
  O   0.67080528056499      1.42652180513440      1.92730807156067
  O   2.64970300807067      1.08301754789367      1.05749523141814
