11
Coordinates from ORCA-job run
  C   -0.54715630315957      0.03430884774700     -0.09457814625787
  C   0.39800945597696      0.75199409112749      0.57960753823629
  H   0.26479328427205      1.79078199017160      0.84097954807022
  N   -0.47752733687493     -1.24470904578170     -0.54282825843966
  H   -1.33504530532747     -1.70529003228286     -0.79629403132185
  H   0.28758647031827     -1.80133749554923     -0.19262971684512
  C   -1.74682447873912      0.75133114028704     -0.44239898455291
  N   -2.73898266527001      1.31658811546341     -0.72446131967968
  N   1.63338572768654      0.18480891997476      1.02293558412903
  O   1.86898245891187     -1.00546510566070      0.76459545277869
  O   2.39277869220540      0.92598857450319      1.64607233388284
