11
Coordinates from ORCA-job run
  C   -0.43132594231820     -0.27332933072849      0.00675304775661
  C   0.89044242696464     -0.10192199207408      0.25025833845150
  H   1.64739460585130     -0.79514056515573     -0.09224732483242
  N   -0.93716054231828     -1.39081434218956     -0.62199644140990
  H   -1.82322202126691     -1.27101900257571     -1.08689781194795
  H   -0.27589207335493     -1.95577527685228     -1.13230009849043
  C   -1.44995178265929      0.64490919347014      0.44316472647971
  N   -2.39341791804184      1.29758603607785      0.70225360209190
  N   1.43497147960234      0.99891586044669      1.00431735700659
  O   0.67470825637192      1.84101936964509      1.47742533711494
  O   2.66345351116925      1.00457004993608      1.10926926777946
