11
Coordinates from ORCA-job run
  C   -0.59321641802527     -0.01811071783128      0.01930657739721
  C   0.42913589663700      0.80720607624583      0.38843120049255
  H   0.29835476432024      1.86898350524196      0.53234363326527
  N   -0.54957539505267     -1.34499716897532     -0.26221528764292
  H   -1.41638909385053     -1.85511856861600     -0.27278622894253
  H   0.29525862309402     -1.83082730268461     -0.00106089999572
  C   -1.87092837437099      0.61784685260487     -0.17274231541085
  N   -2.92421453828431      1.11955119096176     -0.32236614820020
  N   1.75416135305332      0.33502357677844      0.64531235682673
  O   1.99349748192059     -0.87405441134884      0.50416014966941
  O   2.58291570055860      1.17249696762319      1.00061696254106
