11
Coordinates from ORCA-job run
  C   -0.41183964051469     -0.23901226625773     -0.06969402155080
  C   0.82351110809024      0.31235806699781      0.00766894821439
  H   1.52412605121655      0.30466663555524     -0.81689566351258
  N   -0.91843056367715     -0.77819776116931     -1.23236390543429
  H   -0.25094227997848     -0.98909674220447     -1.95801694782997
  H   -1.64043009019400     -1.47176191608613     -1.11906117373310
  C   -1.35169132892657     -0.24940702459806      1.02008799377105
  N   -2.22155295693024     -0.36319623812217      1.80350239321928
  N   1.33498630972385      0.98191921993681      1.17709628303094
  O   0.62156721578313      1.08695733684069      2.17268726669857
  O   2.48869617540738      1.40477068910734      1.07598882712650
