11
Coordinates from ORCA-job run
  C   -0.60593899774864     -0.02616084509540      0.07467411223314
  C   0.41704743167522      0.79442852292013      0.45238988558298
  H   0.28572007545020      1.85372623246810      0.61328168029042
  N   -0.59301534187368     -1.37362129776186     -0.08895454171641
  H   -1.34458987364025     -1.79312805985130     -0.60928692325414
  H   0.31516428492611     -1.81237601872184     -0.11155691085055
  C   -1.88701817500933      0.61029201954289     -0.09308063976741
  N   -2.93742329943312      1.11791062628390     -0.24267136200644
  N   1.75668645915381      0.33073939283098      0.63839676326246
  O   2.59692413155758      1.17277578981780      0.95368901391510
  O   1.99844330494212     -0.87458636243341      0.47211892231083
