11
Coordinates from ORCA-job run
  C   -0.40395634069695     -0.18691900965999     -0.12060382750698
  C   0.86877779216460     -0.16945976718903      0.34419090815771
  H   1.59982476788505     -0.92370325776329      0.08419050849672
  N   -0.85361739425769     -1.11395788288142     -1.03520321909341
  H   -0.28545362242495     -1.93764029927625     -1.15863710097282
  H   -1.84566010457524     -1.28970082800843     -1.03592521687336
  C   -1.39458106778020      0.79750153441960      0.22723457465195
  N   -2.31952762276046      1.49640902371032      0.42555607259544
  N   1.39499753356702      0.85106662505065      1.21498413234114
  O   2.56767434303652      0.69135229481484      1.56073238824946
  O   0.67252171584231      1.78605156678299      1.55448077995414
