11
Coordinates from ORCA-job run
  C   -0.59853156962897      0.00903704904492      0.03859506964909
  C   0.37713336554758      0.64977088477252      0.74592376439669
  H   0.17534533453059      1.50010497819097      1.37956876969177
  N   -0.47017923521628     -1.01537148762938     -0.84227187149159
  H   0.42139657011797     -1.48752030746667     -0.85317085436983
  H   -1.29614783982698     -1.53534035331850     -1.08555691072326
  C   -1.92870548740863      0.54078108527352      0.18687385016640
  N   -3.02259442859739      0.95688821864095      0.30419334464544
  N   1.74594874918323      0.23667974621936      0.73016495185067
  O   2.06710416316892     -0.73392656202236      0.02741870903441
  O   2.52823037812996      0.87989674829469      1.42926117715019
