11
Coordinates from ORCA-job run
  C   -0.42037256766523     -0.27791473057854     -0.01051233630987
  C   0.89723386405922      0.00179366330934      0.13613053539199
  H   1.66999999706324     -0.48783968400163     -0.44181703126231
  N   -0.88533410612808     -1.27789022272199     -0.83746448397653
  H   -0.24055274041587     -1.62231775421022     -1.53192543450356
  H   -1.83098409238003     -1.17063603486234     -1.16843655258575
  C   -1.46352766757859      0.37635049448929      0.73441905840256
  N   -2.42893463704319      0.82548258736381      1.23408909255403
  N   1.41756649314915      0.96291994127980      1.07530102925100
  O   0.64261623170653      1.55953681466573      1.82013908358892
  O   2.64128922523284      1.11151492526676      1.04907703944951
