11
Coordinates from ORCA-job run
  C   -0.43820622531394     -0.25197685530823     -0.00709267175082
  C   0.88631875591861     -0.13523683191885      0.25409091384173
  H   1.62314196946099     -0.83487644823817     -0.11804630124950
  N   -0.97516961834656     -1.32369893848348     -0.68665045792992
  H   -1.85494704886439     -1.15750997244035     -1.14877579125829
  H   -0.33029793383599     -1.89160058179132     -1.21416453707774
  C   -1.42974847326955      0.67927123023384      0.46281556728893
  N   -2.35309582646380      1.35095832968144      0.74509197174344
  N   1.46066342343927      0.91798033437822      1.05269753300893
  O   2.68926444309904      0.88855962378855      1.15273426278795
  O   0.72307653417631      1.75613011009835      1.56729951059529
