11
Coordinates from ORCA-job run
  C   -0.41844171193342     -0.23247503279495     -0.06111563897210
  C   0.85651781357969      0.22230155649232      0.01351817517027
  H   1.56694912326650      0.11624202307548     -0.79669331149890
  N   -0.93793226069840     -0.82593293385801     -1.18922829742997
  H   -1.73539035141298     -1.42493348794497     -1.05163394629627
  H   -0.28024812660301     -1.15320459367055     -1.87900401034920
  C   -1.38562348718850     -0.07181820898545      0.99289828402159
  N   -2.28618454534229     -0.03826841067083      1.74862190734739
  N   1.38701251338267      0.94751708640667      1.14050737435957
  O   0.67209731447429      1.15277637795797      2.11917056482439
  O   2.56024371847545      1.30779562399233      1.02295889882324
