11
Coordinates from ORCA-job run
  C   -0.40122682210268     -0.27654586945601     -0.07714308189626
  C   0.86507781426663      0.20553775681936      0.01359111424650
  H   1.57684954560085      0.13850015986598     -0.79854785167588
  N   -0.92583897007235     -0.87524625025711     -1.19857024724097
  H   -1.72852761451757     -1.47872074204754     -1.05457961442574
  H   -0.27630382004311     -1.23261444815544     -1.88228908389969
  C   -1.38201626593626     -0.02432949784775      0.94765359523562
  N   -2.22140172777750      0.19091415877258      1.74192679982148
  N   1.35541338770071      0.93082768449783      1.16117198424136
  O   2.33359626075400      1.65185663978698      0.95547569711431
  O   0.80437821212729      0.77082040802114      2.25031068847928
