11
Coordinates from ORCA-job run
  C   -0.56941575308167      0.03935166102498     -0.04568951965915
  C   0.40285570634005      0.72360001810473      0.62453657600653
  H   0.30919538948026      1.76793009037611      0.88115196585699
  N   -0.60955256086046     -1.27930617412165     -0.36430792077010
  H   0.25230557453892     -1.79265609909356     -0.25637087515148
  H   -1.26397000022218     -1.57533478495856     -1.06838409956816
  C   -1.74230425847474      0.79984750623257     -0.39229909003143
  N   -2.70251170060131      1.40888466598824     -0.69328205782319
  N   1.64079525317672      0.12676759472113      1.01906556226793
  O   2.45043895334684      0.85485106362803      1.59244642340867
  O   1.83216339635758     -1.07193554190203      0.76313303546339
