11
Coordinates from ORCA-job run
  C   -0.58761374446083      0.02336247952780      0.00280316362004
  C   0.43518451439031      0.75198573230721      0.53712001318006
  H   0.31558159433679      1.77533625435094      0.85912376994017
  N   -0.55580404654452     -1.23563485948553     -0.50298922092890
  H   0.27320837066915     -1.77644966275209     -0.30761073311198
  H   -1.43028610841768     -1.71720203957687     -0.62594829485431
  C   -1.84937857922405      0.70834345946928     -0.11102684645250
  N   -2.89013659413024      1.24890031680005     -0.20101130067592
  N   1.74430471796441      0.21592887973267      0.74482072203487
  O   1.96920230158710     -0.95533163479318      0.40321415853838
  O   2.57473757382956      0.96276107441971      1.26150456871009
