11
Coordinates from ORCA-job run
  C   -0.41574258663828     -0.19909914303203     -0.09568410722934
  C   0.89646918566299      0.05188976367943      0.13071720920208
  H   1.68850398729163     -0.36228789369435     -0.47917450965018
  N   -0.86416049443533     -0.91959347048306     -1.18089024963793
  H   -0.17923429414020     -1.47531753416901     -1.66918048301805
  H   -1.76130692905212     -1.36561890551947     -1.07473187352541
  C   -1.48074048132926      0.32087510979529      0.72102176310246
  N   -2.45821528955890      0.63758354909138      1.29344107310972
  N   1.38322311785668      0.89007925324253      1.19736016869020
  O   0.57853033502126      1.46677866319328      1.92627755415064
  O   2.61067344932152      0.95671060789601      1.29284345480580
