11
Coordinates from ORCA-job run
  C   -0.59294991639654      0.02083265281726      0.02107783803743
  C   0.55844873865666      0.74751937126209      0.11492215313410
  H   0.60304273084435      1.80170676219628     -0.11266406906051
  N   -0.77206754848013     -1.30991144651729      0.21175513537362
  H   -0.00777141283623     -1.81188592230894      0.63804880782950
  H   -1.70961781133826     -1.65167656523342      0.33412536084931
  C   -1.75822701730272      0.75301609347861     -0.40502223361963
  N   -2.71927586840337      1.34281624508685     -0.73942753001763
  N   1.79862999146951      0.18419139090584      0.54866282874384
  O   2.76296424285461      0.94565741936556      0.61381758688349
  O   1.83582387093212     -1.02226600105285      0.83570412184647
