11
Coordinates from ORCA-job run
  C   -0.59788919877806      0.04711963151100      0.04632409613546
  C   0.57146649255827      0.74171429283184      0.15895530864835
  H   0.63099424218248      1.80967033373191      0.01551640014217
  N   -0.79751692460777     -1.29255908428045      0.12963044045958
  H   -1.73663093121846     -1.62285380914386      0.27341064798660
  H   -0.03015313894605     -1.83788686667971      0.49268581505543
  C   -1.76138634555352      0.83047722634619     -0.28019053646408
  N   -2.72469995889949      1.45474766986999     -0.53708930244324
  N   1.81419158431018      0.12034814878309      0.49596056192102
  O   1.83464826689955     -1.10556430241744      0.68533802664021
  O   2.79797591205288      0.85478675944741      0.57945854191848
