11
Coordinates from ORCA-job run
  C   -0.58099680401377     -0.01155910086379     -0.01912167121547
  C   0.41670017397228      0.79983588809422      0.43796479165905
  H   0.27841716925288      1.85791196699441      0.60112116743898
  N   -0.52148597688181     -1.33041183525022     -0.33398597034669
  H   0.30511460106598     -1.82471793155065     -0.03318268119052
  H   -1.38661788612804     -1.83732189109816     -0.41238466543837
  C   -1.84326248619241      0.63359528953656     -0.27364203079179
  N   -2.88408137697526      1.14236176573915     -0.47688237894239
  N   1.72178475908474      0.31689494213290      0.76602664452606
  O   2.52700009105733      1.14171732268038      1.19694518546406
  O   1.96842773575807     -0.88830641641481      0.60614160883706
