11
Coordinates from ORCA-job run
  C   -0.40548933943190     -0.25674963606909     -0.07160775854093
  C   0.82677242941184      0.30091831622152      0.01402139403083
  H   1.57003380532848      0.20485323444946     -0.76663395827310
  N   -0.86526203172777     -0.88735876649371     -1.20580793384126
  H   -0.16489125353252     -1.15425022444484     -1.88158742303622
  H   -1.58781912362792     -1.57714807287780     -1.07475999528400
  C   -1.38703930925554     -0.16837149865944      0.97670973566888
  N   -2.27661047344378     -0.20672639251531      1.74458984722206
  N   1.29429327112039      1.05527383225021      1.14857283484754
  O   0.51786435821991      1.29352718067751      2.07157456702543
  O   2.47914766693882      1.39603202746149      1.10392869018079
