11
Coordinates from ORCA-job run
  C   -0.59305866792904      0.10149596709042      0.05205904174610
  C   0.63217595587186      0.69002794719513      0.17544152414043
  H   0.78133564392534      1.75359365997467      0.06804602078220
  N   -0.90548526729089     -1.21834076069983      0.09209327530392
  H   -1.86773957718164     -1.47270362733277      0.23652101441009
  H   -0.18400437676033     -1.83959973917589      0.42628665912910
  C   -1.68719890882652      0.99332764267455     -0.23398934974368
  N   -2.59292766054862      1.71019079745737     -0.45625049603822
  N   1.81934008448103     -0.04500569669402      0.48308673992906
  O   1.73820608206416     -1.27488806248309      0.62400905141418
  O   2.86035669219463      0.60190187199346      0.59269651892682
