11
Coordinates from ORCA-job run
  C   -0.57940681459445      0.02271544860581     -0.02302753540483
  C   0.44069834152662      0.76432919779291      0.49870712527217
  H   0.33633149073128      1.81175931475658      0.73798449233365
  N   -0.56157812921160     -1.27103184023070     -0.43278846170213
  H   -1.44258772123836     -1.74085160213136     -0.55401380349960
  H   0.24484147535141     -1.81435221686794     -0.16351806083580
  C   -1.81638883734408      0.72832960811097     -0.23808975127826
  N   -2.83585063677740      1.28959059683376     -0.40953691887153
  N   1.72603996068066      0.21479883517097      0.79864135539053
  O   1.93355760437540     -0.98326151607467      0.55233142482565
  O   2.55434326650053      0.97797417403368      1.29431013377015
