11
Coordinates from ORCA-job run
  C   -0.42237053333567     -0.21213378119244     -0.07184674827355
  C   0.87874025683293     -0.16448383856136      0.30491072308809
  H   1.59007488431991     -0.94097455007214      0.06016045853934
  N   -0.93309355167907     -1.19818408556740     -0.88558013837281
  H   -1.92206613231698     -1.36982130267176     -0.80696222828996
  H   -0.37112095372365     -2.02732915524987     -1.00312790313137
  C   -1.38741048548063      0.80165368897022      0.26335961502400
  N   -2.30567690094734      1.50560592908657      0.47438833957383
  N   1.45835890079446      0.92356735755560      1.05017986021960
  O   0.76028579459410      1.88822782999333      1.35649983411656
  O   2.65527872094194      0.79287190770924      1.31801818750629
