11
Coordinates from ORCA-job run
  C   -0.42479233831864     -0.20629511948134     -0.07717416341730
  C   0.89723960525403      0.00786036967654      0.12922637589347
  H   1.66993765127440     -0.48372524252630     -0.44705903754503
  N   -0.90377326505725     -0.99630338461125     -1.09948871650986
  H   -1.81921928293621     -1.39305475319367     -0.95904605133737
  H   -0.24240699758051     -1.62217751356218     -1.53245684817623
  C   -1.46557287041943      0.42488367168275      0.69063623631655
  N   -2.42779749156899      0.83233525500320      1.23055658150936
  N   1.42193993109415      0.91341229448768      1.12009649039989
  O   2.65219100503308      0.95977282743311      1.18794522400900
  O   0.64425405322536      1.56129159509147      1.81776390885752
