11
Coordinates from ORCA-job run
  C   -0.38662330710975     -0.30470361152827     -0.03749221585061
  C   0.84350596797181      0.26089207726368      0.01710677459421
  H   1.55502742054927      0.20238299680370     -0.79599378997494
  N   -0.80547735676801     -1.08390824013204     -1.09407319777280
  H   -0.27011163179158     -1.01362441235096     -1.94568745502741
  H   -1.80167613378826     -1.13913643388380     -1.23429661079553
  C   -1.35217429079872     -0.22135330477030      1.02642751163434
  N   -2.25444675626063     -0.23002818632416      1.78089297089270
  N   1.34715273515470      0.98408105443476      1.15782313007277
  O   0.64437046217996      1.09581558051977      2.16015252949382
  O   2.48045289066123      1.45058247996763      1.02314035273345
