11
Coordinates from ORCA-job run
  C   -0.42449719118986     -0.22237834835962     -0.06431091703499
  C   0.89203172852978      0.05872718768957      0.09036186195348
  H   1.66325007898269     -0.37473078650203     -0.53259433783940
  N   -0.90579435840172     -1.01090749899957     -1.08690829542210
  H   -0.23203880130257     -1.58886436615361     -1.56500936891006
  H   -1.79091175274680     -1.46113515007560     -0.91692641977070
  C   -1.46221764072680      0.33133673584656      0.76487250848034
  N   -2.41954741383539      0.67115843147409      1.35769409707365
  N   1.41119851092068      0.96589858503686      1.08279261366778
  O   2.63889995970007      1.07801002498338      1.09859836718632
  O   0.63162688006992      1.55288518505997      1.83042989061569
