12
Coordinates from ORCA-job run
  C   -0.32948542928413      0.44638566112455      0.00143929168416
  C   1.07450060519524     -0.16993983445873     -0.11099993115586
  Cl  -0.44521383544980      1.22915881236038      1.66229672302347
  H   1.82883177221640      0.58102193523689      0.12976952534087
  H   1.21575036848897     -0.49968114007529     -1.14414502579875
  N   -1.32268021582946     -0.52939529302622     -0.24975957308484
  H   -1.26964263596548     -1.29232339235452      0.41587917440764
  H   -2.25433350817936     -0.13407047133202     -0.24112335849668
  C   -0.44874492167769      1.53681742704703     -0.97189690233389
  N   -0.52558172395937      2.39729037626958     -1.76738121393700
  C   1.20531877077299     -1.31628354873526      0.78302972370514
  N   1.27028075367168     -2.24998053205641      1.49089156664573
