12
Coordinates from ORCA-job run
  C   -0.42001237161356      0.52758746958332      0.23931740694980
  C   0.80017500501909     -0.31920717023348      0.67379529978443
  Cl  -0.92103061134354      1.45127476772663      1.69603903310548
  H   1.61706866484286      0.32655180282165      1.00596844384190
  H   0.49911882319609     -0.94605299073568      1.51823273728144
  N   -1.55415807044805     -0.20923837783459     -0.24083313243419
  H   -1.34775981760826     -0.65186640540567     -1.12941718748828
  H   -1.84312815732259     -0.90689739964320      0.43483885075260
  C   -0.00110305270777      1.48203039805207     -0.79492597069500
  N   0.37311212509706      2.23007725045241     -1.61931784100433
  C   1.24026806121416     -1.16341816951293     -0.43330269439385
  N   1.55644940167449     -1.82284117527054     -1.35139494570002
