16
Coordinates from ORCA-job run
  C   -0.58912558346654      0.20554285875303      0.25754422684038
  C   0.86509654952008     -0.22548137974018      0.48071941584564
  F   -1.29705218284406     -0.24364229818408      1.35241146189740
  H   1.20375209571352      0.25646589222221      1.40469554188154
  C   -1.21799564088352     -0.29021489476059     -1.00790129606722
  H   -1.07973534985493     -1.36937786039874     -1.05344533114902
  H   -2.27735360122732     -0.04148152284095     -1.00919797439045
  H   -0.74520669000522      0.17135402550924     -1.87557353295205
  N   -0.67945681357944      1.72926212839018      0.35136027841621
  O   -1.61537070396781      2.26638750998960     -0.23088289393078
  O   0.15081206991489      2.29502475279050      1.05921687563451
  C   1.69249064283230      0.27373491927647     -0.61969866331026
  N   2.35666074253281      0.66269061031872     -1.50568419333412
  N   0.89955482161816     -1.68558160772932      0.51322531496701
  H   1.86048567087439     -2.00505515821554      0.50657219616598
  H   0.47144397282268     -1.99862797538052      1.37663857348523
