16
Coordinates from ORCA-job run
  C   -0.45549938142082      0.34474347563739      0.16015111960856
  C   0.82444884270450     -0.43033814899382     -0.15380141530460
  F   -0.21997246332487      1.13417368677722      1.24633677961789
  H   0.64994354612476     -0.97881954214493     -1.08277857480268
  C   -1.69541969689247     -0.47984654128708      0.37926519793949
  H   -1.90331163863235     -1.09708145263317     -0.49415390042653
  H   -2.53966367865054      0.18861350123557      0.55795169614621
  H   -1.55857951749654     -1.11357254975556      1.25633255978826
  N   -0.68075840215736      1.26652032942976     -1.03010245602625
  O   -0.72726967246664      2.46820904854546     -0.82600606798689
  O   -0.82231299751155      0.68920243691698     -2.10296470099795
  C   1.07217454279281     -1.40326261631821      0.92821432319227
  N   1.31033676198489     -2.16118601387646      1.79366060257620
  N   1.89199153547157      0.52451673826156     -0.37646574184385
  H   2.14043332110795      0.98510559273922      0.49037253686951
  H   2.71345889836663      0.06402205546608     -0.74601195834963
