16
Coordinates from ORCA-job run
  C   -0.42265160528626      0.29990457350125      0.16192513869483
  C   0.88835065815534     -0.48074789015421     -0.04967089265626
  F   -0.23067282523132      1.18899257728771      1.17571286371982
  H   0.73627082184557     -1.15307052069975     -0.89837526785933
  C   -1.65914264140535     -0.52016177170645      0.41320649444182
  H   -1.83349124628398     -1.21140015564368     -0.41092910688819
  H   -1.53560973548665     -1.07826712334145      1.34197572145258
  H   -2.51823779625850      0.14561855268168      0.51535884734802
  N   -0.61937489051715      1.11286553999912     -1.10850973814881
  O   -0.66740452159424      2.33076176253546     -1.01822985926385
  O   -0.70359131897156      0.44708737326926     -2.13773203963314
  C   1.12093090778658     -1.29870835259144      1.14935030643492
  N   1.27639214831085     -1.94692532996480      2.11530341202649
  N   2.04540635633799      0.34444509139325     -0.32044845664707
  H   2.10150484417091      1.11432699875243      0.33457865944556
  H   2.02132084442775      0.70427867468163     -1.26551608246740
