18

C	-0.545628	-0.005225	-1.432877
C	0.0	0.0	0.0
Cl	0.379277	1.031998	-2.529259
H	1.088537	0.0	0.0
N	-0.298433	-1.461479	-1.975177
O	-1.30388	-2.096083	-2.296773
O	0.853628	-1.859214	-2.019636
N	-1.904224	0.356638	-1.484958
H	-2.282527	0.211096	-2.411798
H	-2.446876	-0.164719	-0.808755
C	-0.473062	-1.181244	0.828971
H	-0.156492	-1.027241	1.860718
H	-1.554794	-1.324917	0.823233
H	0.024834	-2.081108	0.466624
N	-0.452822	1.288858	0.61683
O	0.186079	2.29997	0.345973
O	-1.451754	1.252396	1.340985
Br	3.478738	0.0	0.0
