18

C	-0.31347	-0.144591	-1.496182
C	0.0	0.0	0.0
Cl	-1.989317	-0.710266	-1.830041
H	1.093146	0.0	0.0
N	-0.268556	1.267822	-2.202687
O	0.660472	1.443923	-2.981972
O	-1.155236	2.066579	-1.936707
N	0.613917	-1.040752	-2.030283
H	0.565086	-1.08394	-3.039704
H	1.563561	-0.815002	-1.719071
C	-0.489208	-1.172568	0.820178
H	-1.574552	-1.18919	0.895528
H	-0.130363	-2.090434	0.354294
H	-0.059274	-1.100384	1.821272
N	-0.478177	1.290424	0.570843
O	-1.551643	1.292399	1.176067
O	0.243168	2.270746	0.405489
Br	3.44408	0.0	0.0
