18

C	-0.563604	0.006783	-1.427205
C	0.0	0.0	0.0
Cl	0.465013	1.035449	-2.511048
H	1.092241	0.0	0.0
N	-0.376415	-1.389622	-2.047272
O	-1.230921	-1.747913	-2.854095
O	0.634972	-2.005741	-1.751006
N	-1.94554	0.291438	-1.482875
H	-2.294317	0.101461	-2.414449
H	-2.078751	1.266128	-1.24618
C	-0.539536	-1.142392	0.844356
H	-1.63151	-1.123962	0.874681
H	-0.193283	-2.092218	0.44492
H	-0.140559	-1.041305	1.850929
N	-0.365323	1.293707	0.689896
O	-0.77924	2.24824	0.029358
O	-0.181914	1.333819	1.901959
Br	3.461802	0.0	0.0
