18

C	-0.381795	0.017052	-1.464951
C	0.0	0.0	0.0
Cl	0.254995	-1.428252	-2.265705
H	1.091269	0.0	0.0
N	-1.903465	-0.100187	-1.748969
O	-2.575961	-0.892741	-1.078928
O	-2.358506	0.546751	-2.708082
N	0.181687	1.159717	-2.100803
H	-0.35426	1.980126	-1.84457
H	0.1396	1.063718	-3.107622
C	-0.475158	-1.136812	0.882704
H	-0.195307	-2.089051	0.429054
H	-1.552806	-1.121834	1.040961
H	0.033063	-1.059385	1.848267
N	-0.45006	1.246477	0.66316
O	0.315042	1.779497	1.480542
O	-1.610509	1.664263	0.445068
Br	2.717728	0.0	0.0
