18

C	-0.264287	-0.052433	-1.510577
C	0.0	0.0	0.0
Cl	-1.961202	-0.385788	-1.95371
H	1.100642	0.0	0.0
N	0.060939	1.323262	-2.166965
O	0.368874	1.316188	-3.346963
O	-0.061293	2.313485	-1.454913
N	0.57126	-1.005515	-2.151141
H	0.225657	-1.943062	-2.00592
H	1.526555	-0.917134	-1.793285
C	-0.470583	-1.254435	0.717403
H	-0.145293	-1.193346	1.758282
H	-1.556175	-1.351883	0.680734
H	0.001161	-2.135682	0.282831
N	-0.567041	1.153973	0.751527
O	-1.787349	1.304085	0.691917
O	0.197267	1.815854	1.443306
Br	3.438011	0.0	0.0
