18

C	-0.446295	0.058551	-1.469337
C	0.0	0.0	0.0
Cl	0.126288	1.639333	-2.129407
H	1.099315	0.0	0.0
N	0.27816	-1.033042	-2.286139
O	0.515701	-0.797725	-3.461624
O	0.448801	-2.100861	-1.718265
N	-1.823521	-0.188856	-1.68306
H	-2.072111	0.028738	-2.641203
H	-2.351973	0.399817	-1.048857
C	-0.546825	-1.144857	0.839959
H	-0.101772	-2.078886	0.510603
H	-1.634397	-1.209261	0.779084
H	-0.248254	-0.967574	1.876338
N	-0.467788	1.253832	0.674224
O	-1.672644	1.526193	0.581031
O	0.337271	1.889337	1.337628
Br	3.465069	0.0	0.0
