18

C	-0.465807	0.056183	-1.457247
C	0.0	0.0	0.0
Cl	0.093914	-1.412328	-2.295732
H	1.103388	0.0	0.0
N	-2.044261	-0.025733	-1.485779
O	-2.619154	0.477774	-0.522086
O	-2.59378	-0.439142	-2.49943
N	-0.040111	1.165941	-2.186981
H	-0.113699	2.024539	-1.657639
H	-0.427059	1.20043	-3.119483
C	-0.451027	-1.235315	0.759545
H	-1.526309	-1.23972	0.939706
H	0.066668	-1.257568	1.715407
H	-0.160044	-2.124757	0.205746
N	-0.367783	1.231346	0.787783
O	-0.648739	1.081311	1.97232
O	-0.294119	2.334239	0.243499
Br	3.411137	0.0	0.0
