18

C	-0.541838	0.04484	-1.434632
C	0.0	0.0	0.0
Cl	0.37288	1.130652	-2.485618
H	1.088239	0.0	0.0
N	-0.279758	-1.396434	-2.006039
O	-1.284148	-2.084684	-2.19387
O	0.876067	-1.744304	-2.175994
N	-1.906912	0.390381	-1.479876
H	-2.447232	-0.196938	-0.858694
H	-2.269284	0.306306	-2.420598
C	-0.450829	-1.222315	0.781025
H	-0.128908	-1.100888	1.815472
H	-1.529277	-1.385656	0.776899
H	0.06125	-2.099676	0.383917
N	-0.477721	1.252869	0.668057
O	-1.461575	1.165909	1.409037
O	0.118329	2.291376	0.408577
Br	3.472663	0.0	0.0
