13
Coordinates from ORCA-job run
  C   -0.57614682474513     -0.50850826594049     -0.58288038996104
  C   0.52139106188264     -0.08177815875674      0.39166497169901
  Cl  -0.36227769815120      0.19744421758438     -2.16760443142620
  H   0.28188466191689     -0.56575325174955      1.34284139515859
  H   -0.57170987302331     -1.59430897370505     -0.66429538443995
  N   -1.91562300961888     -0.13601885137622      0.03033241412538
  O   -2.59772264670719      0.73989820254560     -0.47586562088504
  O   -2.16801890630165     -0.77779985947955      1.04668949198600
  C   0.48031835242552      1.37975390175546      0.59843197371761
  N   0.50979337471757      2.54250155084425      0.76369415618411
  N   1.79264758020139     -0.60070463755587     -0.07428358507208
  H   2.12235293649590     -0.06657968943232     -0.86957788855604
  H   2.48511099090744     -0.52914618473391      0.66085289746965
