13
Coordinates from ORCA-job run
  C   -0.82555408004958     -0.45772906415242      0.23004569244056
  C   0.65850335148776     -0.14807003808482      0.05497826986839
  Cl  -1.11557070812876     -2.17005596964254      0.49763553750133
  H   0.99891849481185     -0.73522006447830     -0.80224858153880
  H   -1.28038273365479      0.11523699483581      1.03662483656015
  N   -1.52106248510054     -0.01827050671479     -1.03326503629826
  O   -2.47097711834388      0.74200949627696     -0.89110304000114
  O   -1.07495953938287     -0.45502175260320     -2.08553790818220
  C   1.40520773319739     -0.57340398153547      1.25069037581753
  N   2.02038500686699     -0.83471417481892      2.21674231006255
  N   0.78152279382872      1.26262105033959     -0.26153361414755
  H   0.79818697154563      1.82963601393013      0.57694822775308
  H   1.62478231292208      1.44298199664798     -0.78897706983567
