13
Coordinates from ORCA-job run
  C   -0.62704237439329     -0.42273283262702     -0.59868932058318
  C   0.52404491162112     -0.14626364510473      0.36822044938269
  Cl  -0.40456244675441      0.37943561349650     -2.13577277314715
  H   0.27538559798218     -0.67946358637267      1.29027868622652
  H   -0.70358353032567     -1.49736124568480     -0.75660647142328
  N   -1.91929958999954     -0.00226405551434      0.08126735212553
  O   -2.54992745207735      0.95318378067670     -0.34082066846043
  O   -2.19012592292352     -0.69623131220596      1.05782399023625
  C   0.59468956988172      1.29577675371883      0.67833700063857
  N   0.71262465220218      2.43864123967184      0.92353013945170
  N   1.74142556812786     -0.71832445914978     -0.17314745596685
  H   2.45625556081251     -0.75018361563081      0.54306419019149
  H   2.08811545584622     -0.15221263527376     -0.93848511867185
