13
Coordinates from ORCA-job run
  C   -0.61416001641704     -0.51166046840428     -0.54017573286559
  C   0.53849467299012     -0.08231665102571      0.36742193211902
  Cl  -0.46558603148808      0.14847531542355     -2.15198407953527
  H   0.33753409565749     -0.53686265703737      1.34173355754802
  H   -0.63406421950919     -1.59907607175119     -0.59273022026741
  N   -1.91413106300073     -0.09631828500470      0.12770994304558
  O   -2.60494867496876      0.77818279670591     -0.36900112154071
  O   -2.12709456578872     -0.70460540197300      1.17312572374580
  C   0.53502549566632      1.38448598601573      0.53747449940083
  N   0.59409928848483      2.55022017205906      0.67088032943204
  N   1.77492740497757     -0.63782196012927     -0.14694931237399
  H   2.50361768311542     -0.56562767637234      0.55200152323777
  H   2.07628593028076     -0.12907509850640     -0.96950704194608
