13
Coordinates from ORCA-job run
  C   -0.71827051527130     -0.77308501293388     -0.07454400333052
  C   0.68351280763938     -0.27258288183385      0.30121909134906
  Cl  -0.61748840531988     -1.91839888451614     -1.40285245805257
  H   1.29812966217409     -1.17733330627985      0.42795526907359
  H   -1.21452330490426     -1.25175706130092      0.76787140690975
  N   -1.57182709751590      0.42592741013106     -0.43907051337808
  O   -1.79570601303418      0.67205825499356     -1.61118441907037
  O   -1.93256341762275      1.06819867582668      0.54154772768687
  C   0.66507997734487      0.41058101716991      1.60019533175661
  N   0.73012361851622      0.94307196304098      2.64416456116147
  N   1.15038492900835      0.64581206087812     -0.72316667399962
  H   1.30428320381215      0.14906067837873     -1.59268129570744
  H   2.01986455517321      1.07944708644558     -0.44045402439876
