13
Coordinates from ORCA-job run
  C   -0.73892156142897     -0.74208821068398     -0.13822182531202
  C   0.64995466988176     -0.30057025666214      0.34415762525841
  Cl  -0.58599355803516     -1.87346283511569     -1.47322453399790
  H   1.22009807444189     -1.22958942578687      0.49984934794617
  H   -1.31217004515706     -1.21130531089076      0.65949147278346
  N   -1.51850100916121      0.49343600054310     -0.54432255015320
  O   -1.92246036537228      1.13816062258480      0.41761372526317
  O   -1.65023419699188      0.76131311869336     -1.72562977817773
  C   0.56314074384913      0.36372829287345      1.65011674975461
  N   0.56670882516758      0.86010684263762      2.71372427182154
  N   1.22295311633438      0.61253060919975     -0.62995119164611
  H   2.08545719936750      1.00875706138953     -0.27909046951558
  H   1.42096810710431      0.12098349121784     -1.49351284402484
