13
Coordinates from ORCA-job run
  C   -0.57967307245819     -0.78003069588386     -0.24771678979062
  C   0.73261700610823     -0.27939853616627      0.40781429853700
  Cl  -0.24239761188734     -1.60236735208240     -1.76316388435210
  H   1.28507779785634     -1.18906376341297      0.66988670045774
  H   -1.11902407226293     -1.45836601117205      0.41114248249121
  N   -1.50769523963326      0.38125928661193     -0.47858519374986
  O   -2.52911658546455      0.39738255067912      0.20138016500838
  O   -1.14568777043875      1.23651001600105     -1.28076755695726
  C   0.36452221997915      0.39096574418941      1.66429164770325
  N   0.03815259356552      0.92414453648943      2.65794661029680
  N   1.60713719830947      0.56377477988322     -0.36723766421454
  H   1.98841443135205      0.04710591993873     -1.14911076261871
  H   1.10667310497426      1.36708352492468     -0.72688005281128
