13
Coordinates from ORCA-job run
  C   -0.90505928489932     -0.26295236190475      0.23749536785500
  C   0.61759114416302     -0.24334357590757      0.13538031358418
  Cl  -1.50920539191293     -1.82068875335679      0.78147049583826
  H   0.89132282658849     -1.03322819632234     -0.56936059052885
  H   -1.29128808313140      0.52026101319990      0.88804641720135
  N   -1.44323613317765      0.03794461039128     -1.13832693947614
  O   -2.23494624726079      0.96921677886232     -1.21744402310665
  O   -1.03900614339703     -0.66866685774369     -2.05171353819892
  C   1.21306184612177     -0.54655200127722      1.44757418381592
  N   1.72069285624116     -0.71365637798121      2.49367501020187
  N   1.00744151738311      1.03900443295208     -0.42111453455517
  H   1.06938257224854      1.74921756416053      0.29779781639744
  H   1.90324852103301      0.97344372492746     -0.88547997902831
