13
Coordinates from ORCA-job run
  C   -0.51552476643678     -0.38767775934794     -0.54459027472295
  C   0.61322515453384     -0.01416104403643      0.43295816297685
  Cl  -0.47794581320922      0.60844442919926     -1.98829997746759
  H   0.49351201798307     -0.64860946751553      1.31427765124385
  H   -0.41543303551248     -1.43191060281302     -0.85156193646636
  N   -1.88395307169429     -0.30588120274066      0.12452048945353
  O   -2.86605698575035     -0.23333220175462     -0.59636055560378
  O   -1.87661494936027     -0.40191441927440      1.34872438884650
  C   0.44288447039247      1.37880255687677      0.86543975493879
  N   0.31191032538482      2.49917186978061      1.18843353620694
  N   1.95037237852218     -0.20502040912266     -0.08703267149076
  H   2.09235093949870      0.32602850257432     -0.93676846382219
  H   2.13127333564832     -1.18394025182571     -0.26974010409284
