13
Coordinates from ORCA-job run
  C   -0.73738863483672     -0.74875810372701     -0.10968712977099
  C   0.65110553253270     -0.28655725253451      0.35396862525450
  Cl  -0.58346942962272     -1.92877868500003     -1.40205560897105
  H   1.22336825487034     -1.20794744282577      0.54340153104368
  H   -1.30849334739559     -1.18996036750112      0.70535909138963
  N   -1.52047745429837      0.46886759072934     -0.56028443837333
  O   -1.65441284617575      0.69236768748297     -1.75056230154044
  O   -1.92501253155561      1.14791823812798      0.37747534595339
  C   0.56424259780939      0.42583544295895      1.63435113809102
  N   0.56798727864294      0.96065091206740      2.67914416498687
  N   1.22060668649539      0.59105340749456     -0.65398422311819
  H   2.08135852905250      1.00414059355104     -0.31888250187797
  H   1.41958536448151      0.06916797917620     -1.49924369306711
