13
Coordinates from ORCA-job run
  C   -0.78343259110331     -0.56284766659987      0.12489209222858
  C   0.66872405997806     -0.10192561541946      0.03239807549246
  Cl  -0.92632168098047     -2.31205940379360      0.04528397095327
  H   1.05337582284363     -0.47950648156275     -0.91888866389035
  H   -1.28107750394154     -0.20106082004587      1.02338217928894
  N   -1.51737256686592      0.06035682819556     -1.03527166202019
  O   -2.51601862689726      0.71236871831775     -0.75623346000565
  O   -1.04905298189811     -0.13458091429818     -2.14859947040115
  C   1.45378669479690     -0.68790514952673      1.13166312632773
  N   2.09417522683969     -1.07955473521301      2.03524988075587
  N   0.67115836187602      1.34876128672535     -0.00249105164144
  H   1.50269644182652      1.69784707322241     -0.45967222681036
  H   0.62835934352578      1.74010687999840      0.93028720972229
