13
Coordinates from ORCA-job run
  C   -0.92722598279205     -0.02431577959946      0.28879983538696
  C   0.57357761877133     -0.29023014613292      0.21388481246300
  Cl  -1.76098115037303     -1.22039442551531      1.26948372309357
  H   0.69039231807507     -1.28919018852388     -0.21511239162868
  H   -1.15831450250581      0.97217150423912      0.66241305967140
  N   -1.45396215682557     -0.06913577376478     -1.12323890043162
  O   -1.20172471327739     -1.07608343263406     -1.77084197785207
  O   -2.08367520160534      0.91292080112273     -1.49659756223816
  C   1.15428648897739     -0.28059493636260      1.56687836769208
  N   1.66263934757802     -0.20792690161621      2.62342809804184
  N   1.14967775172407      0.68187264933881     -0.69692429745275
  H   1.34409302414646      1.55711923954231     -0.22623565691699
  H   2.01121715810683      0.33478738990625     -1.09693710982858
