13
Coordinates from ORCA-job run
  C   -0.56449613799124     -0.48727585870461     -0.46865122962466
  C   0.59368982811726      0.02390445281493      0.41611535281837
  Cl  -0.41211767107412      0.04022806446554     -2.12771780791384
  H   0.38310913425182     -0.34548281020804      1.42510845287237
  H   -0.59670235025114     -1.57649684083091     -0.43836290165112
  N   -1.86954469366424     -0.03312515911807      0.15918993370489
  O   -2.54170578359173      0.82897506477420     -0.38225400912540
  O   -2.09641688051382     -0.58911542605698      1.23131903178546
  C   0.55531127261125      1.49188425069968      0.45759230061748
  N   0.51846245482768      2.66465505110403      0.48020950582635
  N   1.91134833268187     -0.42429924835943      0.03269933751813
  H   2.12322710967481     -0.16533328670318     -0.92256050591276
  H   1.99583538492158     -1.42751825387716      0.13631253908471
