13
Coordinates from ORCA-job run
  C   -0.87765920453850     -0.06736639943353      0.27579377739029
  C   0.63964827068706     -0.31907833595189      0.31560552585383
  Cl  -1.77587854259842     -1.32967815988163      1.10361288262565
  H   0.79800615516074     -1.34406299554781     -0.03269519832457
  H   -1.15176834645072      0.90134778179861      0.69165209763232
  N   -1.27822134351803     -0.02319783479389     -1.17411042015958
  O   -0.98134694102337     -0.99751799096259     -1.85662067683717
  O   -1.82465682106689      1.00560657516526     -1.56028346123923
  C   1.07859457396123     -0.22253101929590      1.71344132153693
  N   1.41596160030246     -0.10603659602289      2.83145889821231
  N   1.42489013455550      0.56980921590135     -0.50929419328844
  H   1.28401268757854      0.38535042179881     -1.49306695875008
  H   1.24941777695039      1.54535533722610     -0.30649359465227
