13
Coordinates from ORCA-job run
  C   -0.76941134869980     -0.57560628491198      0.16112255110313
  C   0.67968126191735     -0.12004967305491      0.01250548131009
  Cl  -0.95627339634177     -2.30847197848947     -0.08282637212643
  H   1.03665352327103     -0.47348251876648     -0.96028735834731
  H   -1.18272948510700     -0.29181675178049      1.12674258820522
  N   -1.59111229886442      0.15088959745084     -0.87292140151305
  O   -1.07086818078623      0.32907788491449     -1.96994047965813
  O   -2.72004273528499      0.48143757249036     -0.53488497002423
  C   1.49128092239134     -0.74433397416723      1.05960009689653
  N   2.15153786831376     -1.19945669168514      1.91699890599504
  N   0.68771224963293      1.33472829870572      0.12042898501155
  H   0.88505238243716      1.75329981528296     -0.77754115453677
  H   1.35951923712064      1.66378470401133      0.79900312768435
