13
Coordinates from ORCA-job run
  C   -0.91558493431900     -0.12131717492064      0.27996752919903
  C   0.62261628454233     -0.18415457827963      0.15510688565710
  Cl  -1.60158936247261     -1.43102336193558      1.21058288726217
  H   0.86134153931581     -0.93796313862964     -0.61260550575182
  H   -1.18766443916717      0.83468587104020      0.72987604271019
  N   -1.51226964299786     -0.10153873871627     -1.12759646633404
  O   -0.96896735932677      0.69303974045588     -1.89254550927061
  O   -2.45887234660857     -0.82093694453884     -1.39452709692288
  C   1.20692691709748     -0.65076436554594      1.41738067270328
  N   1.74100459929442     -1.00226746152889      2.40132066550963
  N   1.14603721905058      1.15082745005332     -0.11065148561327
  H   2.15261208699605      1.15395508854412      0.00148762102304
  H   0.91640943859530      1.41745761400192     -1.05879624017179
