13
Coordinates from ORCA-job run
  C   -0.71887230884197     -0.76991960553833     -0.10224948695280
  C   0.67476574430995     -0.27970903238997      0.31473107808613
  Cl  -0.58889679925105     -1.89806895631702     -1.44256825313656
  H   1.28245458778760     -1.18848791325433      0.44581304714511
  H   -1.23763392083605     -1.25749477928903      0.72134173623749
  N   -1.55955055574018      0.43656291846618     -0.47219019222468
  O   -1.75505863627500      0.69752358184335     -1.64619809029875
  O   -1.94239265291625      1.06794696925823      0.50712271750044
  C   0.62587497214173      0.38826446151702      1.62084083395157
  N   0.66621061109337      0.91262677121565      2.67018238787142
  N   1.17115173349588      0.64907761573193     -0.68624652973351
  H   1.35179895667533      0.16096984896326     -1.55548390101270
  H   2.03114826835663      1.08070811979305     -0.37309534743314
