13
Coordinates from ORCA-job run
  C   -0.87878979134821     -0.04920517284806      0.27760337454082
  C   0.63472169032787     -0.32201160336348      0.32141080204663
  Cl  -1.79537193610162     -1.28239826879637      1.12863667603430
  H   0.77835556415210     -1.35506210685042     -0.00898570105722
  H   -1.13823208717792      0.93112424148253      0.67529159593464
  N   -1.27900421537209     -0.02592358819796     -1.17296631986475
  O   -1.80599493192588      1.00531379110463     -1.57922435169756
  O   -1.00012680663294     -1.01844765407056     -1.83652805523085
  C   1.07626482710295     -0.20747901890087      1.71709400765236
  N   1.41610073643226     -0.07768421832941      2.83287843897431
  N   1.43154875612359      0.54112166609699     -0.51956303697588
  H   1.29006487706653      0.33913932593397     -1.49982742143757
  H   1.26846331735337      1.52251260673901     -0.33582000891922
