13
Coordinates from ORCA-job run
  C   -0.81061797206337     -0.42059949214728      0.13056613735054
  C   0.71469804611847     -0.23691994605495      0.20781196513409
  Cl  -1.27617084859663     -2.11124736667832      0.23560468883114
  H   1.15185442182018     -0.91286108801095     -0.53310656062095
  H   -1.33898564141847      0.14609212591745      0.89618053246206
  N   -1.25612482672132      0.15028509769621     -1.18858604131466
  O   -0.71451626944648     -0.29813140964331     -2.19301053896912
  O   -2.08799314854301      1.05146325736519     -1.14251369358276
  C   1.15512454567215     -0.65414561974260      1.54502347497456
  N   1.48378119484239     -0.95718573866515      2.63013619027868
  N   1.17920281370924      1.10344656064284     -0.06665803332236
  H   1.06641915649283      1.34367945237645     -1.04203772918535
  H   0.73332852813403      1.79712416694442      0.51958960796412
