13
Coordinates from ORCA-job run
  C   -0.70530246632477     -0.77575582341821     -0.02398290193930
  C   0.72742915358795     -0.30891431226326      0.24500918782309
  Cl  -0.78538576582285     -1.91992192328598     -1.35364416127949
  H   1.25510308765311     -1.21390182687043      0.56678033273369
  H   -1.12548958619530     -1.25276148421824      0.86156501633219
  N   -1.63630139268134      0.37869644164815     -0.31774556749224
  O   -2.82256113311898      0.17494403839886     -0.09518906737109
  O   -1.14290002072434      1.41291850805627     -0.75999090453800
  C   0.69131333901103      0.60565063672550      1.40829499518981
  N   0.68626665671020      1.34172378786119      2.32401234111758
  N   1.40258149897938      0.19719087952654     -0.92559696600720
  H   2.39862605839587      0.24670437093915     -0.75967614952434
  H   1.05462057053003      1.11442670690047     -1.16783615504470
