13
Coordinates from ORCA-job run
  C   -0.56989693609762     -0.48012605114647     -0.47102904741579
  C   0.60788472284801      0.02030234190523      0.39442305231907
  Cl  -0.49320510361498      0.12877657772923     -2.10725756175219
  H   0.44458889907583     -0.40099673804867      1.39172921287140
  H   -0.57320874058484     -1.57015819204249     -0.49167368022030
  N   -1.86077631520252     -0.09076262692387      0.22574399862805
  O   -2.03178592806593     -0.70083643027127      1.27873348168945
  O   -2.57515194913446      0.77664218483209     -0.24944974847242
  C   0.53400172444937      1.48319269803811      0.50700897370986
  N   0.46902949348233      2.65223524645101      0.58757806822716
  N   1.92075203373247     -0.37407588822116     -0.05738352043985
  H   2.03624527328466     -1.37779594408333     -0.00196522423281
  H   2.09052282582768     -0.06639717821842     -1.00645800491165
