13
Coordinates from ORCA-job run
  C   -0.65880624606875     -0.54411650631831     -0.44687120493649
  C   0.56127869928651     -0.06131625342723      0.33693795749248
  Cl  -0.60983821298510     -0.04089474662592     -2.12019573260992
  H   0.41964179132836     -0.41891291673015      1.36088552672728
  H   -0.70328808247042     -1.63078903709911     -0.39484651731411
  N   -1.90185493943325     -0.03605105112584      0.26421457964076
  O   -2.60941520635369      0.80471146828110     -0.26609067011211
  O   -2.05320004070885     -0.53867690442699      1.37459405121007
  C   0.59631752918723      1.41472094118726      0.36862180981781
  N   0.68570942559561      2.58601525455503      0.38761488063902
  N   1.74901248485128     -0.69254306859247     -0.20439975679109
  H   1.99866092578945     -0.27304001961949     -1.09212276222836
  H   2.52678187198163     -0.56810716005789      0.43165783846467
