13
Coordinates from ORCA-job run
  C   -0.65639521706659     -0.74783100969711     -0.12314968007097
  C   0.73131533507475     -0.29565945670095      0.39810622246530
  Cl  -0.48434147271608     -1.76174525857815     -1.54786628470425
  H   1.22200989476506     -1.21602807994490      0.73509901592216
  H   -1.20609453095353     -1.29813034218807      0.63850482876190
  N   -1.49974717778234      0.45717935405435     -0.43906338747734
  O   -2.47268588654190      0.63816615241654      0.28658389395746
  O   -1.11935600825598      1.18318876663347     -1.35236667480322
  C   0.50061148268569      0.54183856462256      1.58499240047210
  N   0.28380015313641      1.21084616143271      2.52496433122645
  N   1.62202906304180      0.37378119223441     -0.51568939373751
  H   1.16867342915825      1.17472481795052     -0.93764351079427
  H   1.90718093545445     -0.25833086223537     -1.25247176121780
