13
Coordinates from ORCA-job run
  C   -0.72522028013838     -0.75682027848802     -0.02920898662931
  C   0.70534057882122     -0.31818884484149      0.29352093591091
  Cl  -0.77212595017343     -1.95163279723768     -1.31533963971269
  H   1.18992511935358     -1.22332749753532      0.67680186875869
  H   -1.20253813501611     -1.18615653590556      0.85176052281261
  N   -1.60664062589524      0.40920689304363     -0.41489502142688
  O   -1.06232047573664      1.41062835193850     -0.87262764717209
  O   -2.80782964873140      0.24698511892977     -0.24427278331641
  C   0.63818760256010      0.64370182805156      1.41650236305808
  N   0.60927299168458      1.41633730724261      2.30113011938846
  N   1.45214653863188      0.12129807046239     -0.86042873372681
  H   2.43967290139913      0.15110401774553     -0.64588090650268
  H   1.14312938324072      1.03686436659409     -1.15606209144188
