19

C	-0.419228	-0.053421	-1.481135
C	0.0	0.0	0.0
Cl	0.090335	1.536761	-2.293549
H	1.094846	0.0	0.0
C	0.338453	-1.137097	-2.22483
H	0.116115	-1.097209	-3.295162
H	1.410427	-0.996226	-2.071083
H	0.041894	-2.114919	-1.840429
N	-1.835514	-0.241406	-1.609488
H	-2.325083	0.557635	-1.224208
H	-2.085726	-0.316657	-2.588758
N	-0.407614	-1.238515	0.680372
H	-1.245029	-1.604439	0.241519
H	0.334607	-1.920805	0.590166
C	-0.548719	1.188112	0.774862
H	-0.268435	2.142362	0.328818
H	-1.640719	1.131306	0.863867
H	-0.13988	1.137305	1.78458
Br	3.669846	0.0	0.0
