19

C	-0.50062	-0.045471	-1.458313
C	0.0	0.0	0.0
Cl	-0.06719	1.503713	-2.278103
H	1.100049	0.0	0.0
C	0.20026	-1.16275	-2.209886
H	-0.084862	-1.129567	-3.262037
H	1.283005	-1.061908	-2.103921
H	-0.118232	-2.124057	-1.795988
N	-1.945284	-0.201582	-1.582128
H	-2.389819	0.648031	-1.248235
H	-2.172684	-0.935886	-0.91319
N	-0.471398	-1.267175	0.618902
H	0.288331	-1.936903	0.543707
H	-0.593394	-1.106453	1.612969
C	-0.527976	1.168821	0.810221
H	-0.077039	1.144603	1.806329
H	-1.616805	1.110861	0.923785
H	-0.266512	2.122404	0.353721
Br	3.656984	0.0	0.0
