19

C	-0.529484	0.003448	-1.436134
C	0.0	0.0	0.0
Cl	0.261041	-1.362505	-2.323192
H	1.099667	0.0	0.0
C	-2.033022	-0.240608	-1.522244
H	-2.561789	0.582108	-1.030016
H	-2.310436	-1.168609	-1.02604
H	-2.338154	-0.271129	-2.571661
N	-0.104652	1.225628	-2.108256
H	-0.140918	1.086511	-3.111332
H	-0.761295	1.962697	-1.873401
N	-0.513864	-1.193085	0.702624
H	-0.032428	-1.994701	0.303501
H	-0.167453	-1.132823	1.655672
C	-0.4436	1.243847	0.759764
H	-0.006445	1.214246	1.761846
H	-1.53162	1.299214	0.866684
H	-0.058943	2.143762	0.278801
Br	3.770015	0.0	0.0
