19

C	-0.289898	-0.017225	-1.505574
C	0.0	0.0	0.0
Cl	-2.114323	-0.099557	-1.748435
H	1.09976	0.0	0.0
C	0.218115	1.22526	-2.208132
H	1.27757	1.347991	-1.959608
H	-0.329626	2.116224	-1.902007
H	0.107153	1.093333	-3.28571
N	0.272511	-1.18546	-2.137197
H	1.282503	-1.042926	-2.138384
H	0.09942	-1.954024	-1.492751
N	-0.423958	-1.272832	0.584453
H	0.193441	-1.494208	1.35597
H	-1.369736	-1.193519	0.940906
C	-0.50378	1.221174	0.754715
H	-0.20125	1.140427	1.802569
H	-0.075765	2.146663	0.363969
H	-1.595845	1.29054	0.709384
Br	3.590696	0.0	0.0
