12

C	-0.505332	-0.016048	-1.437083
C	0.0	0.0	0.0
F	-0.167745	1.200962	-2.011963
H	1.091745	0.0	0.0
H	0.04283	-0.769139	-2.01508
H	-0.357243	0.918226	0.47348
N	-1.93673	-0.14166	-1.503863
H	-2.223675	-0.42541	-2.431254
H	-2.268168	-0.828149	-0.839603
C	-0.501204	-1.154158	0.735839
N	-0.958956	-2.091962	1.274823
Cl	3.395127	0.0	0.0
