12

C	-0.410325	-0.171421	-1.455652
C	0.0	0.0	0.0
F	-1.781821	-0.44203	-1.504991
H	1.092894	0.0	0.0
H	-0.252003	0.753344	-2.012809
H	-0.33109	-0.883502	0.551362
N	0.299278	-1.218688	-2.12107
H	0.456054	-1.985779	-1.480461
H	1.222183	-0.879443	-2.36414
C	-0.564431	1.187958	0.622773
N	-1.024699	2.143917	1.125275
Cl	3.379774	0.0	0.0
