12

C	-0.497952	-0.032873	-1.435135
C	0.0	0.0	0.0
F	-0.067555	1.167641	-2.03109
H	1.092079	0.0	0.0
H	-0.016137	-0.835403	-1.996442
H	-0.331506	0.935904	0.462619
N	-1.911196	-0.172952	-1.522458
H	-2.20665	-0.132336	-2.489551
H	-2.363884	0.577022	-1.013905
C	-0.506477	-1.127102	0.775195
N	-0.921594	-2.022557	1.410122
Cl	3.409581	0.0	0.0
