12

C	-0.529533	-0.115693	-1.416303
C	0.0	0.0	0.0
F	-0.093244	0.996432	-2.146571
H	1.091991	0.0	0.0
H	-0.086142	-0.988535	-1.900952
H	-0.327223	-0.881842	0.55836
N	-1.953838	-0.221645	-1.448127
H	-2.259865	-0.29471	-2.409531
H	-2.3522	0.621646	-1.054357
C	-0.540651	1.187574	0.654047
N	-1.030127	2.127763	1.159064
Cl	3.396515	0.0	0.0
