12

C	-0.502962	-0.072596	-1.43632
C	0.0	0.0	0.0
F	-0.177598	1.126647	-2.053625
H	1.091691	0.0	0.0
H	0.054558	-0.840109	-1.986195
H	-0.358945	0.935217	0.437404
N	-1.933249	-0.215001	-1.501788
H	-2.256587	-0.89163	-0.82347
H	-2.213425	-0.523932	-2.423336
C	-0.49989	-1.125918	0.779132
N	-0.956203	-2.042517	1.354594
Cl	3.396141	0.0	0.0
