12

C	-0.538095	0.012426	-1.428119
C	0.0	0.0	0.0
F	-0.157774	1.241	-1.967245
H	1.091602	0.0	0.0
H	-0.031957	-0.746107	-2.03027
H	-0.33718	0.915922	0.49672
N	-1.957415	-0.126664	-1.519529
H	-2.410358	-0.115821	-0.61818
H	-2.235905	-0.952718	-2.024653
C	-0.507395	-1.157783	0.727787
N	-0.951925	-2.099875	1.269466
Cl	3.397821	0.0	0.0
