16

C	0.0	0.0	0.0
C	-0.500608	-0.099413	-1.446062
F	1.403796	0.0	0.0
H	-1.593714	-0.226366	-1.291894
N	-0.531247	1.166821	0.607231
H	-1.567185	0.965235	0.499406
H	-0.310761	1.13915	1.597004
C	-0.332034	-1.253452	0.746679
N	-0.475663	-2.18938	1.442015
C	0.085774	-1.259487	-2.1092
N	0.573212	-2.159095	-2.686814
C	-0.201549	1.178364	-2.231329
H	-0.531046	1.064395	-3.2666
H	-0.735955	2.008644	-1.773457
H	0.868148	1.399674	-2.223045
F	-2.756237	0.0	0.0
