16

C	0.0	0.0	0.0
C	-0.248632	0.105304	-1.575855
F	1.389358	0.0	0.0
H	0.666407	-0.319992	-2.00305
N	-0.564295	0.961105	0.855808
H	-0.375775	1.882456	0.470639
H	-1.600701	0.742579	0.719841
C	-0.403497	-1.357187	0.440631
N	-0.559332	-2.471354	0.774746
C	-0.229341	1.525881	-1.923439
N	-0.18207	2.672034	-2.178291
C	-1.444295	-0.609098	-2.211793
H	-1.344062	-1.682701	-2.035462
H	-1.431604	-0.429587	-3.291723
H	-2.356247	-0.273445	-1.715542
F	-2.772915	0.0	0.0
