16

C	0.0	0.0	0.0
C	-0.524414	-0.068106	-1.439956
F	1.377861	0.0	0.0
H	-1.616597	-0.203455	-1.267224
N	-0.536746	1.15309	0.636634
H	-1.5714	0.955821	0.530963
H	-0.304152	1.106625	1.623986
C	-0.346199	-1.271844	0.713362
N	-0.537942	-2.252511	1.33069
C	0.05666	-1.209238	-2.138087
N	0.52712	-2.102573	-2.740267
C	-0.248029	1.229613	-2.200084
H	-0.587911	1.133957	-3.234164
H	-0.787664	2.043555	-1.719768
H	0.819254	1.465525	-2.199842
F	-2.773206	0.0	0.0
