16
Coordinates from ORCA-job run
  C   -0.60593454075723      0.50990565976174     -0.22865708975710
  C   0.63387363442561      0.06027629453434      0.54266285363596
  F   -0.20160965549444      1.51812628170424     -1.09582764605874
  H   0.89182763897265      0.93867215913233      1.15023895008418
  N   -1.16504862558120     -0.56243523376372     -1.15964166360304
  O   -2.11823207198308     -0.20112308043810     -1.84014973299798
  O   -0.64898494238408     -1.67358312810765     -1.15231288228645
  N   -1.66421140766765      0.87343239429457      0.60560524560840
  H   -1.39064966593437      1.54183134212096      1.31211578975838
  H   -2.45946898644964      1.20325732798979      0.07294646289077
  C   1.84879355350391     -0.27055825772362     -0.33063737732956
  H   1.68745161212650     -1.18679580423953     -0.89349973457204
  H   2.04418699067655      0.55158761382798     -1.01856496530911
  H   2.72227771202923     -0.40333166478017      0.30938242799965
  C   0.31267145505767     -1.02277432555918      1.47245104849269
  N   0.11405729945958     -1.87748757875400      2.25188831344400
