16
Coordinates from ORCA-job run
  C   -0.70016353300512      0.48418296754642     -0.07806859135838
  C   0.77785614462319      0.36094306896621      0.28576379505119
  F   -1.10669780259973      1.77824632577114      0.23593908883910
  H   1.28445656566556      1.21420008239316     -0.17177874818948
  N   -0.86746628803241      0.45206949162396     -1.60003904801145
  O   0.03373151497394      0.95829580298548     -2.25899258199773
  O   -1.91975165110445     -0.00160828208630     -2.03430311225712
  N   -1.49307879297083     -0.51871708964414      0.47176701972429
  H   -1.46175207710405     -0.50370925356926      1.48314112416393
  H   -2.44418158483632     -0.47960025151240      0.13064890570117
  C   1.40287190989401     -0.95232060433939     -0.19091707870706
  H   0.86157286024901     -1.80399170494985      0.21936015323824
  H   2.44359675447147     -1.00291450575786      0.13203384717220
  H   1.38158071141877     -1.00368417341633     -1.27953488680987
  C   0.87640402210135      0.48494346850277      1.74167171862148
  N   0.93302124625561      0.53566465748639      2.91330839481950
