16
Coordinates from ORCA-job run
  C   -0.68188829901974      0.56670352826679     -0.21837667805062
  C   0.82642895126791      0.35597804391780     -0.12466329007153
  F   -0.94823779412444      1.80424130367310     -0.71337017361990
  H   1.21795726403516      0.56288101574195     -1.12549150286420
  N   -1.16654575690605     -0.39674955917665     -1.35556693667804
  O   -0.68245996475368     -0.21235853324473     -2.46559191434401
  O   -1.96797091444838     -1.27192710021861     -1.04134733699186
  N   -1.36627663959687      0.39836291662694      0.98609883448367
  H   -1.27924741888238     -0.54035540542519      1.34805869235707
  H   -2.34686851703681      0.62699933148965      0.88095295527351
  C   1.20163887242517     -1.06889177729167      0.29326877642657
  H   2.28607569434992     -1.18104198921786      0.27517270320900
  H   0.86492281258285     -1.28473207933896      1.30882639819625
  H   0.77512227033113     -1.80265555348460     -0.39328052135714
  C   1.38663323411037      1.34147226730382      0.79972467343342
  N   1.87771620566584      2.10307359037823      1.54558532059783
