16
Coordinates from ORCA-job run
  C   -0.60185221513371      0.50346298614095     -0.25474817916507
  C   0.61211209980350      0.07154162540500      0.56603825181376
  F   -0.17478331500160      1.50691691612948     -1.11571985183679
  H   0.83910078126466      0.95605436780864      1.17724847170685
  N   -1.11704036608142     -0.58267513265096     -1.19599198126607
  O   -0.59046028846606     -1.68818074248888     -1.16183376684455
  O   -2.04730680507639     -0.23580555631978     -1.91447260674954
  N   -1.69373949573351      0.86468906034353      0.53646080633954
  H   -2.47101363230093      1.18252938824625     -0.02912433410970
  H   -1.45208532828266      1.54381578738445      1.24464199741909
  C   1.86188916617188     -0.25557302352795     -0.25819881282275
  H   2.07381045273757      0.55988992047578     -0.94904484408689
  H   2.71259970465116     -0.37100947666115      0.41497366970867
  H   1.73083265788788     -1.18035206704122     -0.81466974319173
  C   0.26634120118593     -1.00893939552840      1.49060608889082
  N   0.05159538237368     -1.86536465771572      2.26383483419433
