16
Coordinates from ORCA-job run
  C   -0.57544886778578      0.20307332838046     -0.43671550998431
  C   0.55467291904209     -0.29732466602322      0.46446602029228
  F   -0.25829534901652      0.03212864192283     -1.73769896126535
  H   0.23477862774955     -0.13801628173416      1.49933853131453
  N   -1.80587776301126     -0.70245359851536     -0.17166586045030
  O   -2.24808140473664     -1.38892552340359     -1.07942649910272
  O   -2.23899738607614     -0.61680033637659      0.97583802792387
  N   -0.87833332551591      1.56365172037493     -0.21069819925989
  H   -1.27673248230533      1.69329814040986      0.71060239133360
  H   -1.52221524515372      1.90353741967520     -0.91580203131746
  C   1.85601302334627      0.45746521602683      0.18091119703282
  H   1.70365465065401      1.52551148678463      0.32911992204835
  H   2.63991983467330      0.10713434572382      0.85363605064198
  H   2.17662140608880      0.28466238756538     -0.84651996959866
  C   0.73300130977627     -1.73828479797806      0.27159560268500
  N   0.90532005227102     -2.88865748283296      0.11301928770625
