16
Coordinates from ORCA-job run
  C   -0.59525932623069      0.21136833756279     -0.40699695349370
  C   0.57926220410488     -0.30602814912050      0.42494992312276
  F   -0.30334335179339      0.16369270782887     -1.72423808307231
  H   0.28065070672519     -0.24443047475425      1.47651147637003
  N   -1.77542431032236     -0.77097837104698     -0.19244555058909
  O   -2.18433162361351     -0.79997084908452      0.96665228681949
  O   -2.20322870675070     -1.40625879643723     -1.14359582777361
  N   -0.95445965886949      1.53263329923147     -0.06117160893140
  H   -1.63444363255319      1.89713248145128     -0.71843544913425
  H   -1.33085814701424      1.56659068320306      0.87775732569225
  C   1.83756167421447      0.52880922936255      0.17418416614301
  H   2.65429205376555      0.16194049762270      0.79717630277954
  H   1.64188233041743      1.57290855673743      0.41372065749730
  H   2.13744991079176      0.45571254831162     -0.87121681324607
  C   0.81554041861900     -1.71848738710793      0.11669279772204
  N   1.03370945850929     -2.84563431376035     -0.12854464990599
