16
Coordinates from ORCA-job run
  C   -0.78827214802368      0.52693209029930     -0.17921880742367
  C   0.73700733089198      0.50907254040342      0.04069124311598
  F   -1.13778315152545      1.83089566137619     -0.38650848577901
  H   1.17239911313905      1.13143130843507     -0.74754958058274
  N   -1.01897603106281     -0.18873421170684     -1.51685251216382
  O   -0.61878200921735      0.41150787514938     -2.50484659103503
  O   -1.51866671869222     -1.30914432910619     -1.49385362352880
  N   -1.61598280997915     -0.05665026438663      0.78515509802958
  H   -1.30394897227444      0.10389086540001      1.73189075074388
  H   -1.83219357938060     -1.02236387252017      0.59300406906515
  C   1.32317390889345     -0.90335912551841     -0.00667595959178
  H   2.38561816282480     -0.87339098152258      0.23684203802441
  H   0.82441200853655     -1.55518285411317      0.71253874837473
  H   1.21653192160349     -1.33083638118085     -1.00480032240471
  C   0.99726261072746      1.13737389880098      1.33519972885334
  N   1.17720036353890      1.58955778019051      2.40398420630248
