16
Coordinates from ORCA-job run
  C   -0.64359137723719      0.08575150776412     -0.50557398608220
  C   0.49266508374459     -0.28003849796821      0.46706464618266
  F   -0.21438252007932     -0.12328128342284     -1.76908830484644
  H   0.08838861141891     -0.16824152277288      1.47825556760675
  N   -1.79746046608972     -0.87581401175025     -0.22682375844979
  O   -2.10085321597770     -1.68628513984078     -1.08542983095105
  O   -2.31248073763326     -0.72631913020245      0.87865983810538
  N   -1.20156364485587      1.38676575507716     -0.42752232118521
  H   -1.56538267513767      1.58309063716478      0.49469805205554
  H   -0.53625696034547      2.08936039424886     -0.71896302593293
  C   1.70585483626278      0.63321692208739      0.27560589466244
  H   2.07808967872317      0.56675045378129     -0.74719170857909
  H   2.50621211995379      0.33603092935424      0.95397851951715
  H   1.44438790463158      1.66876827854371      0.49956518929813
  C   0.86750567300230     -1.68413471991179      0.28632902026196
  N   1.18986768961908     -2.80462057215235      0.14743620833670
