16
Coordinates from ORCA-job run
  C   -0.58814641062036      0.60726581779889     -0.12989050974333
  C   0.85146840855136      0.22262063265006      0.20394545012051
  F   -0.69648676612376      1.98966984703629     -0.00575286729252
  H   1.49537197472660      0.87200541304477     -0.39423218355259
  N   -0.85143075964907      0.39334787450075     -1.62342096865613
  O   0.09172126066443      0.60157150084355     -2.37827894656410
  O   -1.99787446535319      0.11136635631525     -1.95180748748667
  N   -1.53659724176816     -0.11254079500280      0.59078377886034
  H   -1.44192678883668      0.04302967079513      1.58626264747031
  H   -2.47787952112659      0.07831687533027      0.27449857541221
  C   1.15874749154509     -1.24872059546985     -0.08435432874119
  H   0.48357546137457     -1.89677495602487      0.47305701256901
  H   2.18649416988738     -1.47281180450904      0.20414791336774
  H   1.05293293554078     -1.45188550955600     -1.14991507302029
  C   1.06499771488451      0.52996739443002      1.61960343688725
  N   1.20503253630309      0.73457227781757      2.76735355036944
