16
Coordinates from ORCA-job run
  C   -0.66078987037159      0.59599317001954     -0.27673821955530
  C   0.62839712847335      0.23088000564600      0.49025373389004
  F   -0.35642976318821      1.67161301189733     -1.04392466504624
  H   0.93566117838324      1.17483173662087      0.95855508493456
  N   -0.98298246616007     -0.56295452993767     -1.21378612250477
  O   -1.47208217069585     -1.54622769804133     -0.66472556739578
  O   -0.69182592425067     -0.44262168325689     -2.39369728277587
  N   -1.84044350271574      0.86596226385072      0.45382824726510
  H   -1.68818577187583      1.61139177729251      1.12140009390750
  H   -2.17350842076397      0.03440504369984      0.92449166987611
  C   1.75117110710260     -0.26965713770103     -0.42297769488242
  H   1.51329417382727     -1.25458806461828     -0.82787098791767
  H   2.68112073009886     -0.34898305350971      0.14145361772794
  H   1.89642000824034      0.42696419222508     -1.24910118341937
  C   0.33738791924015     -0.71795720407113      1.56405914880543
  N   0.12179564465612     -1.47105183011585      2.43878012709071
