16
Coordinates from ORCA-job run
  C   -0.57715335704141      0.66687793524661     -0.17375810063676
  C   0.69661232796929      0.18399086137037      0.52819342910751
  F   -0.26348672481797      1.73076268765567     -0.95249215164090
  H   1.08051761669785      1.08964083335033      1.01137709495410
  N   -1.00903584434202     -0.44866131594745     -1.16339130266261
  O   -1.54279468473680     -1.41564601393922     -0.62544099325398
  O   -0.76307053651078     -0.31140112519396     -2.35391113842691
  N   -1.59683117295746      1.03012599484395      0.71938054046920
  H   -2.38698874504461      1.42905773323344      0.22679012969752
  H   -1.89690868820122      0.24494005460466      1.28265458270298
  C   1.73717144611374     -0.36677565433910     -0.45034850892531
  H   2.68563801199637     -0.51345621360195      0.06741444030388
  H   1.88762921260615      0.33782875799896     -1.26883704056752
  H   1.42081748754960     -1.32625133434200     -0.86188494891116
  C   0.38201759222773     -0.78002772863368      1.58133812896089
  N   0.14586605849154     -1.55200547230666      2.43391583882908
