16
Coordinates from ORCA-job run
  C   -0.59598266252203      0.65262983581380     -0.16693742523739
  C   0.67954450064733      0.19342537052541      0.54731082367167
  F   -0.30459488409740      1.75038798160940     -0.90600444066974
  H   1.02563362124704      1.09913790661648      1.05818110235817
  N   -0.96758458391781     -0.44619676440649     -1.19835199803828
  O   -0.73343254242083     -0.25159553796743     -2.38299393228056
  O   -1.44931172982974     -1.45861457717228     -0.69616593825426
  N   -1.64675449608764      0.95199895616012      0.71406416298575
  H   -1.93098509953092      0.13944232821057      1.24582384866010
  H   -2.43935673776881      1.33981549305076      0.21678415605735
  C   1.75358444442410     -0.30061179662976     -0.42541671549123
  H   1.89662730854250      0.42831724641770     -1.22384282191752
  H   1.47347634178719     -1.25900867418174     -0.86488909267110
  H   2.69714847602817     -0.43164677116462      0.10544850422657
  C   0.38016618586763     -0.80487543038675      1.57247913175446
  N   0.15982185763121     -1.60360556649517      2.40451063484601
