16
Coordinates from ORCA-job run
  C   -0.58365237455115      0.66098486903899     -0.17515409847977
  C   0.67531671681052      0.18317287422882      0.55598508441999
  F   -0.26584195595754      1.75400513142211     -0.91069622637536
  H   1.02793546129114      1.08390941801541      1.07121308825558
  N   -0.95856972951183     -0.43215141010896     -1.21140700276225
  O   -0.70703135447567     -0.24080957210793     -2.39294988511671
  O   -1.46276294840528     -1.43691725269848     -0.71572791074059
  N   -1.64133672274545      0.97657724208032      0.69168755709487
  H   -2.42353554395989      1.37139075733851      0.18342073874657
  H   -1.94136265669704      0.17039869917465      1.22446696548829
  C   1.75484889969003     -0.32639294078555     -0.40244125180645
  H   1.46657353280370     -1.28024175183293     -0.84639800088372
  H   1.91917078696241      0.40082452633152     -1.19825656191662
  H   2.68914814314920     -0.47130601354912      0.14084210094632
  C   0.34762436952101     -0.80938287410930      1.57801175810944
  N   0.10447537607582     -1.60306170243806      2.40840364502041
