16

C	-0.359639	-0.037858	-1.480143
C	0.0	0.0	0.0
Cl	-2.124686	-0.358746	-1.776214
H	1.098626	0.0	0.0
H	0.169329	-0.866366	-1.956282
C	-0.026121	1.197517	-2.186511
N	0.221314	2.189738	-2.764364
C	-0.430172	-1.285145	0.698968
H	0.039768	-1.323162	1.684226
H	-0.094289	-2.165934	0.144067
H	-1.515147	-1.344164	0.824289
C	-0.523103	1.239504	0.707615
H	-1.617832	1.279416	0.693682
H	-0.192161	1.226194	1.7489
H	-0.131555	2.151871	0.252128
Cl	3.419357	0.0	0.0
