16

C	-0.359929	-0.046852	-1.480229
C	0.0	0.0	0.0
Cl	-2.124403	-0.368932	-1.773979
H	1.098661	0.0	0.0
H	0.168167	-0.878874	-1.950661
C	-0.026746	1.184208	-2.194097
N	0.212572	2.181303	-2.767188
C	-0.430109	-1.280626	0.707547
H	0.041773	-1.313117	1.692125
H	-1.514966	-1.338101	0.835269
H	-0.096164	-2.164887	0.157178
C	-0.522782	1.243334	0.701109
H	-0.19358	1.234295	1.742902
H	-1.617383	1.284529	0.685334
H	-0.1294	2.152991	0.242068
Cl	3.418797	0.0	0.0
