17

C	-0.452419	0.101092	-1.446756
C	0.0	0.0	0.0
F	0.116322	-0.946324	-2.188177
H	1.090354	0.0	0.0
N	-1.869813	0.149113	-1.627049
H	-2.241802	-0.722838	-1.268743
H	-2.082312	0.21908	-2.615617
C	0.116507	1.337843	-2.036447
N	0.501737	2.308874	-2.570828
N	-0.490048	-1.229097	0.644654
O	-0.196096	-1.392388	1.82766
O	-1.152442	-2.053521	-0.004068
C	-0.400817	1.203415	0.836499
H	-1.485207	1.34126	0.895125
H	0.053338	2.095021	0.401968
H	0.019156	1.077425	1.833142
F	2.510013	0.0	0.0
