17

C	-0.46392	0.037609	-1.449029
C	0.0	0.0	0.0
F	-0.023177	-1.153686	-2.063058
H	1.090305	0.0	0.0
N	-1.864568	0.215404	-1.637869
H	-2.088362	0.116013	-2.618779
H	-2.336367	-0.498133	-1.095917
C	0.239548	1.142651	-2.140995
N	0.759058	2.014966	-2.730284
N	-0.469329	-1.277612	0.61683
O	-1.661804	-1.604823	0.485894
O	0.333434	-1.930846	1.272473
C	-0.538971	1.14665	0.829969
H	-0.200951	2.087722	0.393235
H	-0.112012	1.083857	1.832952
H	-1.630392	1.149766	0.884657
F	2.553214	0.0	0.0
