17

C	-0.489008	-0.014706	-1.433167
C	0.0	0.0	0.0
F	-1.852318	-0.448718	-1.469887
H	1.091	0.0	0.0
N	-0.381789	1.277155	-2.016714
H	-0.673451	1.23997	-2.985293
H	-0.969691	1.927359	-1.512014
C	0.241638	-0.954954	-2.309281
N	0.734101	-1.628883	-3.133982
N	-0.412149	-1.257296	0.652566
O	-0.759958	-1.230041	1.836879
O	-0.330381	-2.294285	-0.008535
C	-0.44222	1.208674	0.793312
H	0.065907	2.084666	0.387032
H	-1.528206	1.358992	0.803675
H	-0.103018	1.088102	1.819585
F	2.50432	0.0	0.0
