17

C	-0.206557	0.122776	-1.523274
C	0.0	0.0	0.0
F	-1.385744	0.861128	-1.804132
H	1.091667	0.0	0.0
N	0.924298	0.833635	-1.998186
H	1.765643	0.587377	-1.432233
H	1.070081	0.709795	-2.990108
C	-0.446879	-1.140266	-2.26957
N	-0.640416	-2.026354	-3.017023
N	-0.486017	-1.268404	0.57416
O	-1.221155	-1.22649	1.566185
O	-0.080032	-2.313291	0.064181
C	-0.53195	1.207896	0.731332
H	-0.139925	2.094231	0.231537
H	-0.167428	1.19655	1.758998
H	-1.621702	1.247525	0.738174
F	2.623813	0.0	0.0
