17

C	-0.128269	-0.028438	-1.538921
C	0.0	0.0	0.0
F	-0.076554	1.348098	-1.948388
H	1.09215	0.0	0.0
N	0.934271	-0.780834	-2.04072
H	1.051896	-0.666049	-3.038828
H	1.78865	-0.575544	-1.476689
C	-1.444203	-0.47448	-2.054814
N	-2.493979	-0.815793	-2.452663
N	-0.492901	-1.293502	0.540784
O	0.231216	-2.28105	0.437665
O	-1.614543	-1.307801	1.068424
C	-0.667101	1.170193	0.673625
H	-0.162651	2.079652	0.358314
H	-1.729995	1.241082	0.442097
H	-0.558886	1.073327	1.753409
F	2.64265	0.0	0.0
