17

C	-0.165818	0.070862	-1.532848
C	0.0	0.0	0.0
F	-1.347583	0.753113	-1.894277
H	1.091877	0.0	0.0
N	0.965982	0.787681	-1.993115
H	1.806658	0.543864	-1.416845
H	1.118079	0.666979	-2.983535
C	-0.321506	-1.257708	-2.185709
N	-0.377695	-2.272414	-2.776627
N	-0.545272	-1.250807	0.567855
O	0.122219	-2.276463	0.421958
O	-1.637713	-1.21069	1.147858
C	-0.556881	1.227139	0.678859
H	-0.089152	2.097993	0.218428
H	-0.285867	1.20847	1.736455
H	-1.639295	1.300924	0.587592
F	2.656558	0.0	0.0
