13

C	0.0	0.0	0.0
C	-0.581518	-0.145214	-1.395658
Cl	1.761715	0.0	0.0
H	0.150508	-0.639962	-2.038874
H	-0.365723	0.88413	0.512954
H	-1.469964	-0.772307	-1.31276
N	-0.359962	-1.172673	0.884363
O	-0.441897	-0.94817	2.086238
O	-0.452061	-2.27107	0.348056
N	-0.879951	1.197023	-1.895841
H	-1.799009	1.418541	-1.511892
H	-1.005328	1.13838	-2.89969
Br	-3.63313	0.0	0.0
