13

C	0.0	0.0	0.0
C	-0.506699	0.047968	-1.427309
Cl	1.771843	0.0	0.0
H	-0.405148	1.094566	-1.745618
H	-0.357669	0.831899	0.600084
H	-1.576488	-0.165016	-1.372976
N	-0.435676	-1.235267	0.751521
O	-0.409073	-1.138087	1.975895
O	-0.739792	-2.23185	0.112439
N	0.196147	-0.885981	-2.299517
H	0.905947	-0.413708	-2.842178
H	-0.461523	-1.323133	-2.928186
Br	-3.718748	0.0	0.0
