13

C	0.0	0.0	0.0
C	-0.543446	0.003737	-1.423026
Cl	1.761455	0.0	0.0
H	-1.576833	-0.342365	-1.366239
H	-0.370164	0.831781	0.594769
H	0.043913	-0.693847	-2.022794
N	-0.389273	-1.246845	0.752858
O	-0.607201	-1.118274	1.951933
O	-0.397051	-2.297355	0.119498
N	-0.54619	1.323677	-2.030339
H	0.330651	1.804547	-1.865427
H	-1.30047	1.859018	-1.614613
Br	-3.702049	0.0	0.0
