14

C	0.0	0.0	0.0
C	-0.549441	-0.014169	-1.408807
F	1.348621	0.0	0.0
H	-1.653861	-0.159697	-1.301447
H	-0.403933	0.82735	0.574688
N	-0.377561	-1.266762	0.734374
O	-0.698024	-2.252031	0.080057
O	-0.234912	-1.211466	1.951749
C	0.083342	-0.991522	-2.277727
N	0.609377	-1.751453	-3.002258
N	-0.381853	1.359275	-2.018504
O	-0.326324	2.31348	-1.250635
O	-0.364736	1.421839	-3.242876
Br	-3.464041	0.0	0.0
