14

C	0.0	0.0	0.0
C	-0.361949	-0.026297	-1.507329
F	1.347878	0.0	0.0
H	0.564501	0.330713	-1.967756
H	-0.405889	0.881343	0.488795
N	-0.394113	-1.169353	0.870498
O	-0.285935	-0.935216	2.07045
O	-0.661769	-2.246158	0.360252
C	-1.403419	0.866726	-2.010431
N	-1.853825	1.69784	-2.714236
N	-0.466965	-1.415192	-2.113919
O	0.587849	-2.043681	-2.104714
O	-1.52427	-1.772144	-2.604205
Br	-3.189567	0.0	0.0
