19
Coordinates from ORCA-job run
  C   -0.87716179434106      0.23283592945729      0.29494857778094
  C   0.64905741472746      0.33012368991622      0.41549657538009
  Cl  -1.62931854086174      0.47092031240909      1.89672831295148
  H   0.83934096760224      1.24128579147769      0.99157516555369
  N   -1.30451696206137      1.43116198698689     -0.55423924417074
  O   -1.04594499068693      2.54215745797489     -0.10882273936062
  O   -1.80094330712900      1.19386810396915     -1.65230905010117
  C   -1.41281040943483     -1.04429939190051     -0.30832446715400
  H   -2.49212476919318     -0.97523823072111     -0.43791148149393
  H   -1.19565452390317     -1.87377126374927      0.36413083944081
  H   -0.96204619012410     -1.23602689428988     -1.28153293795086
  C   1.31466992576506      0.48481634200188     -0.95342488395371
  H   2.39697674203265      0.54299890090467     -0.81652674881964
  H   1.00280095680366      1.39558985387799     -1.46766758555734
  H   1.11111265408216     -0.36870070894522     -1.60458201012147
  C   1.22923733139964     -0.86636526520391      1.16473627714561
  H   0.72455967083166     -1.03769611525358      2.11677270947699
  H   1.16610879364180     -1.77789820385259      0.56530578781517
  H   2.28565703084902     -0.68376229505967      1.37464690313871
