19
Coordinates from ORCA-job run
  C   -0.87875848036760      0.22498726415660      0.29574684449619
  C   0.64647249154425      0.29393228602197      0.44586198698785
  Cl  -1.65315936934700      0.36997841297603      1.89809273613728
  H   0.83822646709018      1.16335086023343      1.08278398722731
  N   -1.27771285206766      1.48107133712377     -0.48121740797068
  O   -1.75975120312783      1.32047224104792     -1.59928321746007
  O   -1.01297238058951      2.55761087834221      0.03850667806186
  C   -1.42024126218817     -1.00376108985213     -0.39611138853494
  H   -2.49690045876908     -0.91333710370574     -0.53469642296996
  H   -0.95882104536053     -1.13752988845387     -1.37400566320582
  H   -1.22178527889223     -1.87759339474003      0.22386445891298
  C   1.33602188581149      0.52806225136176     -0.89961968872977
  H   1.04756454229475      1.47677961783095     -1.35563964570770
  H   2.41690672063546      0.55728073258639     -0.74361952751468
  H   1.12806880906408     -0.27592546987799     -1.60981834764685
  C   1.19979964452263     -0.95604773845332      1.12475189467749
  H   0.67665201736684     -1.18310006996934      2.05491837541148
  H   2.25439821640277     -0.80068986111536      1.36370948750667
  H   1.13699153597714     -1.82554126551326      0.46577486032135
