19
Coordinates from ORCA-job run
  C   -0.82231173785941     -0.09937447221560      0.17116477007780
  C   0.66266154962691      0.14628843168197     -0.13286576630098
  Cl  -1.03312870641020     -1.16396126290097      1.57182652300461
  H   0.65332567825997      0.81399856673878     -1.00202827845673
  N   -1.41520115407758      1.27715763497103      0.50445983707950
  O   -1.79821611025596      1.52889418898172      1.63691906755901
  O   -1.42053960515096      2.05396967850540     -0.44795391730692
  C   -1.62149716892371     -0.65130156352188     -0.99572936931811
  H   -2.68514033372478     -0.65515280099504     -0.74999008842910
  H   -1.31737424531513     -1.67666303583301     -1.20064529411945
  H   -1.46107615728820     -0.03515573527116     -1.88059720660509
  C   1.38740296201165     -1.14048506991824     -0.51861292709389
  H   2.42322641263168     -0.90540490030720     -0.77443706585452
  H   1.39985673838227     -1.85086868381874      0.31021904134824
  H   0.93864908778924     -1.62658163549479     -1.38654035911644
  C   1.38041770412196      0.86044432324679      1.00992247279226
  H   1.38578409173216      0.25082325630055      1.91559168558493
  H   0.92410244492545      1.82352511767876      1.24757897850263
  H   2.41705854952464      1.05084796217163      0.72271789665224
