16

C	-0.319026	-0.127693	-1.465946
C	0.0	0.0	0.0
F	-1.638501	-0.497976	-1.709393
H	1.094086	0.0	0.0
H	-0.381159	0.942238	0.387902
N	-0.328121	1.289615	-2.154399
O	-0.814583	2.230034	-1.537138
O	0.082224	1.343252	-3.312471
N	0.544595	-1.01075	-2.110726
H	0.519988	-0.889436	-3.114458
H	1.494223	-0.899569	-1.758936
C	-0.519264	-1.193598	0.792577
H	-0.143522	-2.126296	0.36947
H	-1.611184	-1.230244	0.801291
H	-0.163557	-1.12471	1.822847
Cl	3.443667	0.0	0.0
