16

C	-0.36596	-0.196681	-1.453109
C	0.0	0.0	0.0
F	-1.686382	-0.580925	-1.617988
H	1.095998	0.0	0.0
H	-0.312218	-0.933585	0.479528
N	-0.359552	1.171245	-2.216761
O	0.55441	1.368381	-3.01253
O	-1.269349	1.958487	-1.973451
N	0.482507	-1.130398	-2.051995
H	1.439618	-0.998146	-1.73343
H	0.444753	-1.086097	-3.06106
C	-0.587617	1.198519	0.726311
H	-0.336532	1.118496	1.786998
H	-1.67376	1.246957	0.625624
H	-0.167163	2.137001	0.362831
Cl	3.44479	0.0	0.0
