16

C	-0.390182	-0.009352	-1.468955
C	0.0	0.0	0.0
F	-1.575337	-0.675608	-1.655391
H	1.091294	0.0	0.0
H	-0.300125	-0.987722	0.369684
N	-0.660975	1.43061	-1.911574
O	-1.823702	1.820342	-1.911607
O	0.325485	2.106525	-2.169375
N	0.566816	-0.558667	-2.373849
H	1.503247	-0.304056	-2.064267
H	0.496379	-1.564801	-2.309829
C	-0.607401	1.099217	0.858604
H	-0.305127	0.955314	1.89798
H	-1.699324	1.101487	0.808107
H	-0.242773	2.080147	0.547381
Cl	3.455868	0.0	0.0
