18

C	0.0	0.0	0.0
C	-0.48925	-0.31261	-1.411782
Cl	1.814201	0.0	0.0
H	-1.572366	-0.457665	-1.32061
H	-0.045699	-1.267143	-1.718494
C	-0.472488	1.358248	0.485934
H	-1.566241	1.368166	0.435941
H	-0.158256	1.518702	1.520799
H	-0.066096	2.167465	-0.123692
C	-0.458505	-1.091733	0.952156
H	-1.5525	-1.0759	0.978169
H	-0.06606	-0.919095	1.958058
H	-0.116916	-2.072008	0.608359
C	-0.2088	0.756755	-2.461038
H	-0.798278	1.655657	-2.269522
H	-0.49116	0.389624	-3.451903
H	0.850203	1.028567	-2.488728
Br	-4.07051	0.0	0.0
