16

C	0.0	0.0	0.0
C	-0.603064	0.135595	-1.399694
Br	1.956325	0.0	0.0
H	-1.704876	0.003781	-1.233675
C	-0.458399	1.172123	0.873004
H	-0.068382	1.039639	1.882911
H	-0.079871	2.11077	0.464615
H	-1.552088	1.17097	0.890958
C	-0.379528	-1.25956	0.647077
N	-0.594969	-2.232412	1.270755
N	-0.132504	-0.951011	-2.328812
O	-0.358192	-2.098277	-1.96025
O	0.419766	-0.62338	-3.375801
C	-0.322498	1.436466	-1.989035
N	-0.135824	2.499538	-2.452609
Cl	-3.520329	0.0	0.0
