18

C	-0.098964	0.016057	-1.534391
C	0.0	0.0	0.0
Br	-1.9798	0.384643	-2.113918
H	1.093789	0.0	0.0
N	0.782468	0.986089	-2.149858
H	0.522433	1.903237	-1.804447
H	1.681822	0.782837	-1.685149
C	0.309012	-1.35717	-2.034525
H	1.308436	-1.528691	-1.620427
H	-0.36294	-2.137918	-1.687242
H	0.355181	-1.327737	-3.124257
N	-0.561597	-1.148002	0.622037
H	-0.111765	-1.284197	1.518222
H	-1.552158	-1.011983	0.786546
N	-0.490602	1.282653	0.618994
O	-0.097489	2.358891	0.166825
O	-1.26215	1.198674	1.579931
F	2.609743	0.0	0.0
