16

C	0.0	0.0	0.0
C	-0.381983	-0.065712	-1.49864
Cl	1.800041	0.0	0.0
H	0.041625	0.848044	-1.942337
C	-0.430235	1.262528	0.595478
N	-0.594602	2.309486	1.105246
C	-0.380985	-1.212589	0.843028
H	0.098772	-1.128556	1.820979
H	-0.008201	-2.104972	0.34078
H	-1.4642	-1.209704	0.919661
C	-1.830535	-0.045261	-1.832085
N	-2.57461	-0.071222	-2.757527
N	0.205934	-1.270079	-2.104323
H	-0.342776	-1.49756	-2.922864
H	1.150133	-1.067227	-2.407763
F	-2.554846	0.0	0.0
