16

C	0.0	0.0	0.0
C	-0.33522	-0.023175	-1.55934
Cl	1.797674	0.0	0.0
H	0.40533	-0.724716	-1.961867
C	-0.440944	1.231773	0.650612
N	-0.698828	2.237394	1.200332
C	-0.579303	-1.218445	0.683265
H	-0.247104	-1.268141	1.722782
H	-0.254657	-2.122565	0.159554
H	-1.671914	-1.076487	0.62105
C	0.012123	1.296361	-2.125691
N	0.270343	2.338067	-2.603331
N	-1.641754	-0.417518	-1.993082
H	-2.362691	-0.110579	-1.259333
H	-1.673658	-1.430153	-1.980042
F	-3.087702	0.0	0.0
