16

C	0.0	0.0	0.0
C	-0.63379	-0.24824	-1.375522
Cl	1.783755	0.0	0.0
H	-1.710158	-0.410867	-1.056638
C	-0.413546	1.328566	0.471723
N	-0.639538	2.403678	0.887571
C	-0.474064	-1.066242	0.986222
H	-1.567041	-0.982131	0.985021
H	-0.045881	-0.881471	1.973496
H	-0.141519	-2.047507	0.635312
C	-0.060046	-1.426462	-2.006806
N	0.350021	-2.389071	-2.543221
N	-0.50065	0.939029	-2.234016
H	-1.310034	1.515642	-2.015555
H	-0.59598	0.657781	-3.203152
F	-2.854761	0.0	0.0
