15

C	-0.298779	-0.00054	-1.476994
C	0.0	0.0	0.0
F	-0.126413	1.258492	-1.972808
H	1.101987	0.0	0.0
H	-0.343683	-0.954464	0.408
N	0.504131	-0.903022	-2.235993
H	1.464318	-0.757686	-1.907811
H	0.238275	-1.846546	-1.979074
N	-1.763874	-0.356642	-1.742238
O	-2.075328	-1.519525	-1.485089
O	-2.523805	0.508334	-2.155187
N	-0.665386	1.106508	0.68996
H	-0.203688	1.956556	0.384316
H	-0.443012	1.016662	1.675364
H	2.964921	0.0	0.0
