15

C	-0.297975	-0.025082	-1.483277
C	0.0	0.0	0.0
F	-0.07327	1.198856	-2.01983
H	1.092957	0.0	0.0
H	-0.339469	-0.949436	0.422777
N	0.464598	-0.9904	-2.207986
H	1.429579	-0.868427	-1.884128
H	0.162284	-1.911597	-1.912329
N	-1.77396	-0.332998	-1.733812
O	-2.13191	-1.471267	-1.427402
O	-2.506638	0.543202	-2.174761
N	-0.599567	1.150455	0.66916
H	0.147582	1.803265	0.874062
H	-1.003596	0.864624	1.550131
H	2.939563	0.0	0.0
