15

C	-0.57908	0.003833	-1.386736
C	0.0	0.0	0.0
F	-1.99218	-0.212964	-1.306729
H	1.090432	0.0	0.0
H	-0.357057	-0.891983	0.51982
N	-0.262489	1.147521	-2.099318
H	-0.338042	1.93325	-1.465395
H	-0.808756	1.245637	-2.94118
N	-0.178739	-1.225843	-2.191612
O	0.056154	-2.257242	-1.572629
O	-0.211652	-1.122292	-3.415884
N	-0.386075	1.263459	0.648795
H	-1.158553	1.126657	1.285885
H	0.42253	1.570019	1.179928
H	2.910443	0.0	0.0
