15

C	-0.296696	0.267629	-1.453002
C	0.0	0.0	0.0
F	-0.145099	1.598039	-1.708412
H	1.101469	0.0	0.0
H	-0.34169	-1.013479	0.226244
N	0.520915	-0.470398	-2.360807
H	0.252453	-1.445392	-2.297108
H	1.476337	-0.390691	-1.997106
N	-1.75809	-0.056412	-1.785955
O	-2.537078	0.863477	-1.998516
O	-2.046442	-1.254579	-1.780483
N	-0.667503	0.95998	0.88157
H	-0.239865	1.864439	0.696468
H	-0.394857	0.720537	1.831235
H	2.962728	0.0	0.0
