15

C	-0.578026	-0.018464	-1.387392
C	0.0	0.0	0.0
F	-1.98607	-0.265279	-1.308132
H	1.0894	0.0	0.0
H	-0.355044	-0.885861	0.531252
N	-0.285036	1.126325	-2.107383
H	-0.382479	1.9152	-1.479945
H	-0.827447	1.204104	-2.953784
N	-0.149063	-1.245955	-2.18078
O	0.091146	-2.270133	-1.551426
O	-0.165271	-1.149902	-3.406161
N	-0.390135	1.270116	0.633089
H	0.422068	1.591871	1.149486
H	-1.152774	1.136272	1.282675
H	2.909565	0.0	0.0
