16
Coordinates from ORCA-job run
  C   0.79152110630813     -0.24989293361963      0.12741710436967
  C   -0.61447094210496     -0.46856143377342     -0.45697698975409
  Br  1.55745396046816     -2.05221789095046      0.51824996612145
  H   -0.47634515165174     -0.97053988785564     -1.41736929226926
  N   1.54093941593725      0.54491255633469     -0.73989505532456
  H   1.62134148781889      0.14573897776656     -1.66520836238300
  H   2.44370584374759      0.79381500704156     -0.35903904173455
  N   0.79667173086113      0.44298380402654      1.49713085914960
  O   1.74157254804961      1.18785768248750      1.71773074380147
  O   -0.10186260905564      0.16501983386897      2.27733102447297
  N   -1.10256628146551      0.93354089379810     -0.86078057528395
  O   -1.44246676916120      1.67718370591436      0.05366488017326
  O   -1.13828074094258      1.18441482654902     -2.06160585419724
  N   -1.52295043514376     -1.19044648036757      0.33738085639578
  H   -2.36359188459666     -1.41793647277003     -0.17420320199577
  H   -1.72967127906871     -0.72387218845054      1.20817293845824
