16
Coordinates from ORCA-job run
  C   0.74611530365934     -0.20508827190012      0.33962225366526
  C   -0.57351213199375      0.09327037997088     -0.41059738958419
  Br  0.44566539020126     -1.65618306576454      1.57993788182232
  H   -0.41872486942384      1.02229043048436     -0.96452215772948
  N   1.83660013922242     -0.52927744514648     -0.51953328677869
  H   1.54818245836642     -1.28016408923755     -1.13642598613813
  H   2.06340834366583      0.28754491458127     -1.07866046567793
  N   1.19058047018236      1.06706000583092      1.08106237475378
  O   1.31422806673028      1.06614244334614      2.29070956582789
  O   1.41508156914473      2.00092810307457      0.31538813035467
  N   -1.67760560081142      0.42886205152604      0.59745486948728
  O   -1.46979959329465      1.40716951343936      1.30835930375268
  O   -2.67082255664040     -0.28900049812039      0.61612920407775
  N   -0.89606826516799     -0.97348620903477     -1.28242503496838
  H   -1.27641280938377     -1.75616946093953     -0.76378983844208
  H   -1.57691591445681     -0.68489880211018     -1.97170942442275
