16
Coordinates from ORCA-job run
  C   0.73115346524856     -0.05616114881494      0.26499854565818
  C   -0.62734523834393      0.09552242030832     -0.42906474436204
  Br  0.54672330320207     -1.44180245033764      1.68350657560627
  H   -0.58668931874125      1.01741129354192     -1.01214673930507
  N   1.70384962148401     -0.33278405860791     -0.69941617143620
  H   1.36673742307869     -1.02157467024723     -1.36022390178370
  H   2.59865264498593     -0.58508365881383     -0.30081585346282
  N   1.16371797022240      1.27043587059763      0.92877072557999
  O   0.92052382367329      2.26620551885922      0.26300415610940
  O   1.79066198732078      1.21925711112251      1.97368135275427
  N   -1.72128752837697      0.34551346149641      0.61648789720677
  O   -2.77141526007475     -0.27054779912629      0.47467271765002
  O   -1.47343158462462      1.17166497920356      1.48554155931668
  N   -0.87846677430953     -1.02322283047827     -1.26125879920342
  H   -1.14465151975559     -1.82886254396988     -0.70726727066106
  H   -1.61873301498910     -0.82697149473356     -1.92047004966727
