16
Coordinates from ORCA-job run
  C   0.68792939314273     -0.21990801359918      0.27696221541867
  C   -0.64372576323984      0.10574238265952     -0.41996731854056
  Br  0.42789672558114     -1.51137814717735      1.70615713366235
  H   -0.52939456354932      1.06758924719855     -0.92594972500212
  N   1.60534797686379     -0.73456019035964     -0.65191110067491
  H   1.57228990959510     -0.25536073951671     -1.54115566869331
  H   2.54510019135862     -0.80424978463155     -0.28508407791449
  N   1.22627933880199      1.11635936155416      0.90718690039087
  O   1.55833305672212      1.15875301731407      2.07765739380377
  O   1.35077907384826      2.00829517762291      0.07385582605538
  N   -1.69117796514477      0.40692955845813      0.66780117430343
  O   -1.41360525812820      1.32134529539238      1.43618341043201
  O   -2.72043908911871     -0.25662978303206      0.66158434106451
  N   -1.01079535500992     -0.90238018291639     -1.33179310478845
  H   -1.89865780482986     -0.69126969221211     -1.76716665482913
  H   -1.06715986689313     -1.80827750675473     -0.88336074468800
