16
Coordinates from ORCA-job run
  C   0.61855258234179     -0.21624668375939      0.36942505856869
  C   -0.70333240283076      0.02964042053669     -0.37529161804188
  Br  0.34481946082843     -1.25536175152649      1.95662692477786
  H   -0.50091072756081      0.78543700057221     -1.14826668776048
  N   1.49913164453528     -0.91438823069953     -0.51503768771760
  H   2.31342979169400     -1.26025607623773     -0.02169204873768
  H   1.79033250686604     -0.29064834197844     -1.26225415321321
  N   1.25235701015567      1.16112133524586      0.73595678962801
  O   1.62910119015555      1.39061391344089      1.86901476953066
  O   1.39679808059141      1.88452415510027     -0.24782690243283
  N   -1.71358447496373      0.72451298295587      0.51798100867863
  O   -1.27654354506004      1.57886137899089      1.28268931106449
  O   -2.89035714145097      0.43754001749141      0.34552659311969
  N   -1.24583579435053     -1.21144238730621     -0.81457465315128
  H   -0.51104854917261     -1.77264645232227     -1.22462435631810
  H   -2.00390963177871     -1.07126128050402     -1.46665234799497
