16
Coordinates from ORCA-job run
  C   0.82840645502818     -0.04958498418376     -0.11360106028709
  C   -0.63267482922328     -0.51959915125279     -0.09043529810391
  Br  1.95709309033657     -1.06721775595942     -1.30741319927983
  H   -0.66615148362573     -1.56647221149379      0.20039317071200
  N   0.92684622538509      1.31771017916157     -0.40129806630391
  H   0.44967512381449      1.85083470075224      0.31727544280800
  H   1.89100681966098      1.61952276547063     -0.45113571833520
  N   1.35891692157673     -0.40967392983962      1.32471152551717
  O   1.08324586265214     -1.51583197493683      1.76699842075322
  O   2.01817764461952      0.45775715415282      1.88019858006628
  N   -1.20221701056626     -0.46409113206196     -1.50042875993119
  O   -1.07840318034098     -1.47483486998997     -2.18435975949512
  O   -1.74930559869329      0.58193276986981     -1.83797911097340
  N   -1.34718743683031      0.31965707930840      0.81737067971146
  H   -1.73992398291602      1.10747524516817      0.31284464877539
  H   -2.09650462087784     -0.18658388416549      1.26885850436614
