16
Coordinates from ORCA-job run
  C   0.74009057052332     -0.07999481606746      0.02792160638029
  C   -0.73849976142486     -0.47870654074008     -0.08843619984519
  Br  1.83621639524788     -1.43973194742620     -0.95517484998288
  H   -0.86837811267525     -1.49336743720358      0.27604177147382
  N   0.98001136988710      1.25250307454827     -0.29524520984855
  H   0.69861244559764      1.46104489444642     -1.24495913092924
  H   1.93158209375187      1.53279794803088     -0.09773572609705
  N   1.16795248754199     -0.28005187922850      1.48777897533678
  O   0.54300432368939     -1.09665738920019      2.15253367633566
  O   2.12382985394927      0.38440090465512      1.86245056653461
  N   -1.10879492641509     -0.54348532254280     -1.55817640194585
  O   -0.92903952830310      0.47658821908961     -2.22203923329237
  O   -1.60986585682594     -1.58492284048097     -1.96122821132150
  N   -1.62851121569314      0.42343664521437      0.55490404642946
  H   -1.88126841025774      0.10235243668217      1.47700473802572
  H   -1.25794172859334      1.36379405022293      0.58235958274626
