16
Coordinates from ORCA-job run
  C   0.90361850743599     -0.30137540616577      0.06303634388641
  C   -0.57579810366986     -0.47157262799804     -0.39777052646527
  Br  1.67991137459222     -2.06761904137240      0.09860571708498
  H   -0.55286052228727     -1.06292308579070     -1.31442889823619
  N   1.78478304234792      0.57015503378398     -0.63407243841233
  H   1.30628461206815      1.41323107547917     -0.92716249100248
  H   2.18583256217056      0.11501995001419     -1.44183330403060
  N   0.82951666756722      0.26728963677644      1.48995291598645
  O   1.42674850050072     -0.24987682518445      2.41392454807713
  O   0.15712234379000      1.29878297464258      1.52808973876627
  N   -1.17682653613323      0.87045529701680     -0.87110218044163
  O   -2.16384743828336      1.29207953171186     -0.28478320853300
  O   -0.63879733583238      1.39403032425300     -1.84538075178257
  N   -1.35094408804374     -1.10023356494219      0.60039060075089
  H   -1.63780472337402     -0.43587359206135      1.30888428359715
  H   -2.17693886284893     -1.53356968016312      0.21264965075480
