16
Coordinates from ORCA-job run
  C   0.77576440616156     -0.01141861085689      0.18464771957089
  C   -0.65236526826614      0.03035353627035     -0.39015515422295
  Br  0.93339423204776     -1.34849620399940      1.67059725447035
  H   -0.65551236012452      0.82906914849372     -1.13304673133418
  N   1.64320675820853     -0.22889524964084     -0.88497392021390
  H   1.36512942378167     -1.05139247917967     -1.40439373043435
  H   2.61311891127531     -0.25118195003798     -0.60072726128707
  N   1.17694508093903      1.29689654615793      0.85522183487327
  O   0.28554756542371      1.93875759974383      1.39511605067661
  O   2.36663218325493      1.57794992636462      0.82102662805245
  N   -1.75063456808301      0.43244840425774      0.58527207431643
  O   -2.30525840651618      1.50464299671632      0.36844706541615
  O   -2.05938525255425     -0.38877935823886      1.44237406245979
  N   -0.91864863094298     -1.23232222172846     -1.00001379478890
  H   -1.71226040945551     -1.17056911502165     -1.62507521745999
  H   -1.10767366514990     -1.92606296930077     -0.28431688009460
