13

C	-0.454126	-0.038225	-1.464111
C	0.0	0.0	0.0
Br	0.140194	1.543226	-2.464045
H	1.095105	0.0	0.0
H	-1.546317	-0.015324	-1.544663
C	0.024365	-1.243507	-2.141273
N	0.351529	-2.216057	-2.715681
N	-0.328804	-1.222479	0.718682
H	0.487418	-1.827002	0.654776
H	-1.132277	-1.705293	0.337598
C	-0.566486	1.16705	0.661697
N	-1.011916	2.114635	1.198672
H	2.613228	0.0	0.0
