13

C	-0.47797	-0.027959	-1.453377
C	0.0	0.0	0.0
Br	0.218228	-1.591839	-2.393982
H	1.094014	0.0	0.0
H	-0.070342	0.83769	-1.981931
C	-1.932137	-0.045289	-1.561074
N	-3.106411	-0.055278	-1.61828
N	-0.423216	-1.171015	0.74259
H	0.367773	-1.475914	1.301101
H	-1.214373	-0.983795	1.343958
C	-0.439195	1.262906	0.590941
N	-0.799822	2.271487	1.07928
H	2.649496	0.0	0.0
