13

C	-0.541021	-0.102829	-1.426169
C	0.0	0.0	0.0
Br	-0.112559	1.494001	-2.481255
H	1.094099	0.0	0.0
H	-1.632292	-0.160259	-1.422263
C	-0.028599	-1.283338	-2.115
N	0.298159	-2.233658	-2.723155
N	-0.352431	-1.241643	0.693348
H	-1.035516	-1.087787	1.422817
H	0.510483	-1.585537	1.113837
C	-0.511329	1.185252	0.668121
N	-0.926345	2.11199	1.263615
H	2.628047	0.0	0.0
