13

C	-0.266964	0.090713	-1.49275
C	0.0	0.0	0.0
Br	-2.156895	-0.267157	-1.99825
H	1.103484	0.0	0.0
H	0.306945	-0.705941	-1.974433
C	0.111152	1.37112	-2.074489
N	0.411522	2.395886	-2.565608
N	-0.343354	-1.265056	0.611005
H	0.453373	-1.884343	0.491564
H	-1.1753	-1.673966	0.202555
C	-0.56448	1.128768	0.720116
N	-0.998324	2.053705	1.30336
H	2.576026	0.0	0.0
