15
Coordinates from ORCA-job run
  C   0.79542014571910     -0.34041134080568     -0.38953246456427
  C   -0.69471710377823      0.06924334616583     -0.45813995445468
  Cl  1.42189805843539     -0.36216548590150     -2.12104378964159
  H   -1.16886300248234     -0.55699579087855     -1.21983309143225
  C   0.90165741701858     -1.72188224272381      0.08961627558373
  N   0.96790546594004     -2.82715938933454      0.48192510504316
  N   1.51819271081927      0.52111449649110      0.47003454956767
  H   2.47874553733394      0.22333196395512      0.58555809013890
  H   1.49625946329952      1.47762066809378      0.13290844922605
  C   -0.76638396985920      1.46251545663579     -0.90215826318756
  N   -0.80557474553037      2.59686102119909     -1.20368078547665
  C   -1.40285654772913     -0.10304671905381      0.88894083837623
  H   -1.39277707888888     -1.15228603787211      1.18827619387663
  H   -0.90770140923313      0.49033225911752      1.65659782543040
  H   -2.44120494106457      0.22092779491178      0.80153102151422
