15
Coordinates from ORCA-job run
  C   0.78623378584125     -0.36363700395084     -0.46117933134682
  C   -0.71441140062924     -0.00367125063460     -0.46930554730008
  Cl  1.34305101622304     -0.56397532385026     -2.14776472762961
  H   -1.23308403639058     -0.80912222285833     -1.00105459810176
  C   0.95346430879977     -1.67072807662732      0.20549932516132
  N   1.08784332704765     -2.67522657748296      0.80193637254602
  N   1.55332608291009      0.70059030821763      0.13647155922888
  H   1.37462670344238      0.74300086889790      1.13395856595121
  H   2.54452593028997      0.54111964699201     -0.00347716653024
  C   -0.91833301362791      1.23677060128941     -1.21950946955428
  N   -1.14770632927493      2.23504702292727     -1.79261621751008
  C   -1.29063719230153      0.12998191452092      0.94470295357322
  H   -1.11601833637830     -0.77979982175117      1.52268410379448
  H   -2.36745555657398      0.29358588060406      0.88324376123724
  H   -0.85842528937769      0.98606403370629      1.46541041648051
