15
Coordinates from ORCA-job run
  C   0.83778342395483     -0.32573902106828     -0.13048981373479
  C   -0.57068820014128      0.24794360672451     -0.40444702859789
  Cl  0.87083271410042     -2.01310075395229     -0.87768210831688
  H   -0.69009774387236      0.24851409772600     -1.49544597272309
  C   1.05127202674850     -0.51345070579259      1.30716281246662
  N   1.20753089562733     -0.65919541114213      2.46219234229068
  N   1.83223848393171      0.53087725858145     -0.65471539983589
  H   2.76867256343254      0.20289794223017     -0.45436760815961
  H   1.72044933004745      0.66525919132937     -1.65241455866871
  C   -0.61366721547912      1.63830578540210      0.05801575128399
  N   -0.71809335454106      2.74416465575882      0.43895296377585
  C   -1.70980596865864     -0.55035386526941      0.23327366628124
  H   -1.60180957189317     -0.57027365705440      1.31931873253765
  H   -1.72459909098541     -1.57182622717776     -0.14398803064209
  H   -2.66201829227173     -0.07502289629556     -0.00636574795708
