17

C	-0.290487	0.068612	-1.49577
C	0.0	0.0	0.0
Br	-0.17665	-1.75875	-2.340712
H	1.10288	0.0	0.0
N	-1.734855	0.457971	-1.810537
O	-2.610062	-0.053575	-1.125366
O	-1.922572	1.249542	-2.732169
N	0.584855	1.000765	-2.046141
H	0.53306	1.05993	-3.054387
H	1.535694	0.803027	-1.705095
N	-0.514877	-1.136397	0.697654
H	0.136383	-1.383217	1.429382
H	-1.415438	-0.904234	1.095084
N	-0.484226	1.276729	0.576498
H	0.018135	1.367898	1.453654
H	-0.117135	2.020302	-0.012677
H	2.853482	0.0	0.0
