17

C	-0.603611	0.01448	-1.39963
C	0.0	0.0	0.0
Br	0.127132	1.46273	-2.491693
H	1.092983	0.0	0.0
N	-0.20684	-1.270729	-2.17395
O	0.757392	-1.913464	-1.786459
O	-0.914343	-1.553636	-3.14299
N	-2.014961	0.131747	-1.341875
H	-2.413184	-0.022569	-2.260246
H	-2.315438	-0.599887	-0.70046
N	-0.552787	-1.21165	0.642394
H	0.19782	-1.895655	0.65778
H	-0.726519	-0.934416	1.601117
N	-0.407238	1.177795	0.745245
H	0.38015	1.817751	0.753084
H	-1.205931	1.627369	0.313538
H	2.877131	0.0	0.0
