17

C	-0.627187	-0.008845	-1.389095
C	0.0	0.0	0.0
Br	0.110966	1.402925	-2.52085
H	1.09293	0.0	0.0
N	-0.267331	-1.319037	-2.142193
O	0.708278	-1.957822	-1.776063
O	-1.013748	-1.624131	-3.074098
N	-2.035001	0.141289	-1.309916
H	-2.453109	-0.028347	-2.216894
H	-2.339274	-0.567457	-0.645129
N	-0.545664	-1.202432	0.667608
H	0.205194	-1.887361	0.682993
H	-0.704235	-0.91098	1.624911
N	-0.398765	1.188777	0.732205
H	0.385446	1.830266	0.716707
H	-1.206139	1.628841	0.310096
H	2.862924	0.0	0.0
