17

C	-0.37515	0.025111	-1.45781
C	0.0	0.0	0.0
Br	-2.433734	0.57126	-1.685646
H	1.102262	0.0	0.0
N	0.290537	1.192398	-2.198818
O	0.218928	2.305987	-1.69699
O	0.860968	0.937609	-3.256026
N	-0.119117	-1.153469	-2.09647
H	0.454248	-1.064222	-2.919014
H	0.118546	-1.870548	-1.423689
N	-0.326708	-1.312667	0.537348
H	-1.222252	-1.245035	1.009119
H	0.396595	-1.54123	1.213374
N	-0.550592	1.07008	0.821776
H	0.150838	1.231291	1.543987
H	-0.57737	1.920345	0.268632
H	2.717204	0.0	0.0
