18
Coordinates from ORCA-job run
  C   -0.55861917186433     -0.28056552793501     -0.38299440572174
  C   0.89335152223480     -0.40771306361999      0.07761738404193
  Br  -0.65808337709758     -1.40266155545848     -1.99826599588664
  H   1.13064631929131     -1.43658965496688      0.34050079974436
  C   -1.45654405083407     -0.92286479167758      0.67129985792988
  H   -1.12461043941213     -1.93018051070712      0.92847807327314
  H   -2.47530196327079     -0.98229191068145      0.28591503919807
  H   -1.46724852611601     -0.31662911758415      1.58045922566102
  C   -1.03884311464933      1.12362987028819     -0.71618895321997
  H   -0.45919569698677      1.57849679176805     -1.51348342485875
  H   -0.97311320344794      1.75743935541018      0.17215011151529
  H   -2.08569985151531      1.06906440836081     -1.02042395082408
  N   1.12870978002941      0.40914302185274      1.32427618013073
  O   1.40073919549432      1.59599628812637      1.17563222108181
  O   0.99590761636462     -0.19071012702997      2.38647840769431
  N   1.97005287421685      0.01336967052270     -0.88685242516130
  O   1.72712773093548      0.86896363777295     -1.72639949802835
  O   3.04872435662747     -0.54489678444138     -0.69919864656973
