18
Coordinates from ORCA-job run
  C   -0.54379845354963     -0.03128196531434     -0.49070317086889
  C   0.95009685179291      0.14291951689154     -0.21777286371038
  Br  -0.63219522975096     -0.60696849347655     -2.37190090755763
  H   1.37441631281143      0.91962233224715     -0.85077408967924
  C   -1.27373275708344     -1.04304829286088      0.37930833613048
  H   -1.21696151536323     -0.73838827842537      1.42770896462436
  H   -2.32460820024572     -1.05963148249607      0.08463608689875
  H   -0.86075724507857     -2.04243482086961      0.28311814624802
  C   -1.21240701776694      1.33829591534157     -0.40375904298837
  H   -1.22409496601421      1.68947810715669      0.63100629393777
  H   -2.24343185675374      1.25608645286325     -0.75038649828404
  H   -0.69920304246991      2.08055656379414     -1.01749727457178
  N   1.83883336738293     -1.05665076357876     -0.41253331707591
  O   1.37606030551766     -2.17985138447543     -0.27055977112547
  O   3.00631097207593     -0.77132931408788     -0.66942783922873
  N   1.18181240855776      0.58788729637323      1.20529777382252
  O   1.24441452056288     -0.28560594536271      2.06425948448421
  O   1.25824554537485      1.80034455628004      1.37797968894432
