18
Coordinates from ORCA-job run
  C   -0.54781696754304     -0.23568810769696     -0.28126945985380
  C   0.79546066028808      0.15122947501452      0.33871475079698
  Br  -0.35915034616727     -1.77177262753769     -1.48056220297684
  H   0.62632988580059      0.85400146750420      1.15578235119130
  C   -1.52393177009017     -0.63641210030834      0.82327835201262
  H   -1.18827392849224     -1.51360653097458      1.37252653990133
  H   -1.64758090382769      0.19127209206940      1.52929358882302
  H   -2.49273121981209     -0.85715535606443      0.37292647643466
  C   -1.10366147245146      0.94888356891871     -1.06729282522661
  H   -2.11382918418284      0.71125497543279     -1.40366389536327
  H   -0.49594422054736      1.18185634608689     -1.93912279234830
  H   -1.15826664236233      1.82979577159302     -0.41765906731854
  N   1.77762121236885      0.83848495669920     -0.56845065470797
  O   1.78910728475015      0.55771599308719     -1.75949777504825
  O   2.52706068673841      1.62423586133219      0.00900287734787
  N   1.53569377039012     -1.00964972098274      0.95136920335472
  O   1.11561004850601     -1.37085600965336      2.04557930537690
  O   2.46630310663429     -1.49159005451999      0.32004522760418
