18
Coordinates from ORCA-job run
  C   -0.57427143016469      0.13464846034102     -0.29458043907762
  C   0.83041665795276     -0.05706492291533      0.27858233237911
  Br  -0.50860069008964      0.93760128918911     -2.07915070532490
  H   0.75708850331271     -0.29419606297531      1.34088452999399
  C   -1.27654073509869     -1.21803779654712     -0.37897019319079
  H   -2.31612032730832     -1.06254909517306     -0.67083374193625
  H   -0.80885477782469     -1.87649238675729     -1.10793133989270
  H   -1.26646257738737     -1.70083440306178      0.60481238874300
  C   -1.36766027666608      1.08223165741025      0.60313021817253
  H   -0.92695096798208      2.07607960713172      0.64615933086424
  H   -2.38285955243331      1.16800003164987      0.21308225804453
  H   -1.41711864441767      0.67798908600900      1.61947829202311
  N   1.68982233546881      1.17851766417377      0.19941675535758
  O   2.53529958798115      1.23141703363755     -0.68328248436354
  O   1.44397258295502      2.03380726821442      1.04337484921707
  N   1.64769456382178     -1.17112696811160     -0.31343210336369
  O   1.49866101879571     -1.45994653544652     -1.49323415584510
  O   2.44348472908459     -1.68104392676871      0.47349420819942
