18
Coordinates from ORCA-job run
  C   -0.58222402755070     -0.17448079565248     -0.25579991450934
  C   0.82166846514685      0.06322210656420      0.30189507430826
  Br  -0.61355121384302     -1.71366713300063     -1.46561752373382
  H   0.76593466741635      0.77344155783797      1.12807543121258
  C   -1.54372964905008     -0.47672769546930      0.89198826588581
  H   -2.54997554302175     -0.59115856803114      0.48640507244290
  H   -1.54674701871935      0.35514909199251      1.60388340286869
  H   -1.27803465254870     -1.38776490282638      1.42418017068949
  C   -1.04420097447428      1.06783340276466     -1.01296118561914
  H   -0.97454372923051      1.94501877013731     -0.35972556122805
  H   -0.45617840893133      1.24075870142798     -1.91185045995584
  H   -2.08841491900971      0.94136438934222     -1.30228906038606
  N   1.82802746352674      0.64961565114107     -0.64832864803528
  O   1.75599234261959      0.37602096900521     -1.83892471831406
  O   2.68080810105905      1.34978424492750     -0.10511353469982
  N   1.46187798467234     -1.17440090996660      0.87629539465640
  O   2.30561447875365     -1.74777653114377      0.20091716829906
  O   1.05667663318486     -1.49723234905033      1.98797062611821
