14

C	-0.5421	-0.123115	-1.406608
C	0.0	0.0	0.0
Br	0.258986	1.350258	-2.550382
H	1.100757	0.0	0.0
H	-0.132009	-1.029701	-1.846534
N	-1.962963	-0.12172	-1.464829
H	-2.285003	-0.226021	-2.418092
H	-2.321323	0.753096	-1.100056
N	-0.357833	-1.231099	0.712124
H	-1.271721	-1.168155	1.144496
H	0.349866	-1.377118	1.421999
C	-0.52769	1.202056	0.646284
N	-0.990771	2.129046	1.206537
F	2.558336	0.0	0.0
