14

C	-0.220938	0.212899	-1.527644
C	0.0	0.0	0.0
Br	-0.459607	-1.56302	-2.427716
H	1.095096	0.0	0.0
H	-1.156731	0.720893	-1.772398
N	0.897483	0.90338	-2.071064
H	0.719763	1.89442	-2.141835
H	1.732155	0.701675	-1.495356
N	-0.551199	-1.175207	0.643229
H	-1.34139	-0.953928	1.232567
H	0.177473	-1.589261	1.207846
C	-0.426655	1.249147	0.631016
N	-0.816712	2.237696	1.138019
F	2.636001	0.0	0.0
