14

C	-0.52844	-0.023462	-1.431741
C	0.0	0.0	0.0
Br	-0.187136	1.690646	-2.309686
H	1.098496	0.0	0.0
H	0.078847	-0.752141	-1.970225
N	-1.930478	-0.356158	-1.604215
H	-2.48386	0.340175	-1.11187
H	-2.044705	-1.240063	-1.113752
N	-0.321603	-1.333381	0.573566
H	0.557744	-1.67569	0.948637
H	-0.980916	-1.258335	1.338448
C	-0.591702	1.068079	0.785805
N	-1.12492	1.89665	1.430464
F	2.560283	0.0	0.0
