17
Coordinates from ORCA-job run
  C   0.57327476242959     -0.21061840653119     -0.35801239321746
  C   -0.78268530631307      0.13017251812414      0.33522060070469
  Cl  0.44303545113000      0.33197267325500     -2.07507467602758
  H   -0.71946022216309     -0.27248756406684      1.34963638270021
  C   1.68169041438710      0.58803109392968      0.30665414204136
  H   1.73067078775436      0.34418201250653      1.37360261162154
  H   2.62882421936657      0.31880155095721     -0.16080383161965
  H   1.52612535633598      1.65956583816159      0.19447869203555
  N   0.94367573936853     -1.59708210694931     -0.36297797547414
  H   1.23299780452066     -1.88076064320691      0.56587171780354
  H   0.17585596407144     -2.19029301496947     -0.65282273375681
  N   -1.87800672416412     -0.67699665381195     -0.32132900588456
  O   -1.94154367693397     -1.86788404750832     -0.00756590928987
  O   -2.59135864791459     -0.11198636374863     -1.13941747226173
  N   -1.20291160912228      1.48987253020479      0.38382431578606
  H   -0.69688686255429      2.00568242476162      1.08827008166672
  H   -1.12129745019883      1.94082815889207     -0.51755454682785
