17
Coordinates from ORCA-job run
  C   0.62464598654333     -0.35967081495772     -0.22334815692628
  C   -0.89577936830983     -0.21382419817035     -0.06794535267311
  Cl  0.74382483656266     -2.06592908687120     -1.10006487707402
  H   -1.37696699846273     -0.29849298921138     -1.04617161792839
  C   1.24674597733769      0.60351050364936     -1.21202277483465
  H   1.21053245019833      1.61946293782456     -0.81356232614573
  H   0.72789458220549      0.57670592757660     -2.16927949298830
  H   2.28816389415296      0.32150938077232     -1.37751464006464
  N   1.23947512592415     -0.35635826816509      1.00469770367872
  H   2.13557989154698      0.07824851747319      1.11792534456847
  H   0.67846646102711     -0.53775786572490      1.81970566446208
  N   -1.17290046148126      1.21933604881403      0.34366182502224
  O   -1.38835823544549      2.00041285660128     -0.58284070260710
  O   -1.13792783496742      1.50849859020566      1.53433781475110
  N   -1.36806934212560     -1.08580513204894      0.96877296752931
  H   -2.36222571916805     -0.96634256217196      1.11757970897625
  H   -1.19110124553834     -2.04350384559548      0.68906891225404
