17
Coordinates from ORCA-job run
  C   0.48040377224380     -0.60198239324792     -0.35351952642247
  C   -0.88764937232965     -0.27087799493637      0.28629940652775
  Cl  0.25108685710054     -1.71398082113132     -1.74016318867768
  H   -1.47460152652463     -1.18884204555216      0.33944095177241
  C   1.19966351951916      0.64310534024457     -0.84826212180402
  H   1.27719908813771      1.36199160434414     -0.02865143062710
  H   2.20434261333711      0.37038479074308     -1.17641629899693
  H   0.68266407530487      1.11209318308212     -1.68702248219119
  N   1.17677840095768     -1.35521813506258      0.67051640270263
  H   2.02929873753107     -1.74194408258277      0.28234755633237
  H   1.40745955049184     -0.71499221089413      1.42221057417438
  N   -1.66388127606959      0.64933671139957     -0.62981476349540
  O   -1.65492490217907      1.85311994106381     -0.37206966522849
  O   -2.21547775500040      0.13117820787223     -1.59398399882677
  N   -0.66974076238075      0.35941538574766      1.56377908599326
  H   -1.05416543952859      1.29543399327843      1.56370570399698
  H   -1.08945558061109     -0.18722147436835      2.30160379477028
