17
Coordinates from ORCA-job run
  C   0.60254467380205     -0.31099662206145     -0.16004009676020
  C   -0.94329741983561     -0.28865136318379     -0.08297132431084
  Cl  0.95534498828501     -2.09483146060513     -0.60236189371446
  H   -1.33485243865751     -0.64385871613510     -1.03575212440260
  C   1.17133099465811      0.52011767254834     -1.29206134386721
  H   2.23653182972847      0.30637086076474     -1.40224400138630
  H   1.04282554023831      1.58042570127314     -1.07199374168692
  H   0.67528985520420      0.28946744718392     -2.23408867916689
  N   1.16857794118618      0.05849130154451      1.07469416084864
  H   0.90070511648586     -0.56277143211056      1.82594003379931
  H   2.17762669448629      0.11161592274790      1.02831636261563
  N   -1.37076703236336      1.15435592659288      0.00777305797375
  O   -1.53206995300022      1.74695940914366     -1.05703411817052
  O   -1.49928065003763      1.63619246889014      1.12794409829231
  N   -1.57237710216745     -0.98295749228714      0.99803721745368
  H   -1.32862623085052     -1.96359967947755      0.98625847641937
  H   -1.34850680716220     -0.55732994482853      1.88758391606326
