17
Coordinates from ORCA-job run
  C   0.60015898633007     -0.19687940333168     -0.31944296170609
  C   -0.69138312684199      0.08200537709233      0.45849363591722
  Cl  0.31394252166886      0.48071957186899     -2.03430629162285
  H   -0.58278794056501     -0.38576129156899      1.44236657653074
  C   1.74506511284904      0.61039953226887      0.26833001253438
  H   1.53502893716155      1.67517025617885      0.24359539292615
  H   2.65421046447501      0.40944924778339     -0.30296700643493
  H   1.90151925902116      0.29792652790526      1.30350467647641
  N   0.93622959685179     -1.56806476617814     -0.30925654644871
  H   1.85073357633454     -1.71995518304547     -0.71348922618995
  H   0.24334333828978     -2.13411978882836     -0.77783906037698
  N   -1.92222679627787     -0.66484287633254     -0.13388262273120
  O   -3.01060152851804     -0.18947477823400      0.17279891680503
  O   -1.76383102376604     -1.68227476245238     -0.80127059585132
  N   -0.94666630658866      1.46620537747040      0.60785771766531
  H   -1.75820892420988      1.61783877039891      1.19043380736798
  H   -1.10352614621430      1.89965818900456     -0.29392642486119
