17
Coordinates from ORCA-job run
  C   0.62395484330606     -0.38273785893048     -0.26219232926228
  C   -0.91131699647140     -0.22527739336411     -0.22852487443395
  Cl  0.89972103146538     -1.78401773953794     -1.44552034192499
  H   -1.31615882546128     -0.33373870311507     -1.23255877242566
  C   1.35950268932513      0.81216919564504     -0.83587418757684
  H   1.28454881040070      1.65525481209360     -0.14666097715863
  H   0.95294186766117      1.10076673001497     -1.80362290862364
  H   2.41252845427882      0.55608360095466     -0.96619325939441
  N   1.08894745761470     -0.68689148155315      1.03923058698094
  H   2.10002264066704     -0.68518188784380      1.07765719012044
  H   0.74388649400538     -1.59085097565208      1.33862475172636
  N   -1.22241582931152      1.23150531049798      0.13390646119650
  O   -1.33545119996686      2.01963369015910     -0.80264215520392
  O   -1.31963898455291      1.51021037965377      1.32581767915512
  N   -1.50095353127040     -1.14212905807900      0.67978764205605
  H   -1.36790073973018     -0.80593524356990      1.62676152861867
  H   -2.49021818195983     -1.25086337737360      0.50300396615022
