17
Coordinates from ORCA-job run
  C   0.58419365713509     -0.26003818803290     -0.27378015544563
  C   -0.69455936973817      0.15713717623259      0.47253435615516
  Cl  0.28676466338425      0.19986053001885     -2.06115299894902
  H   -0.63646314172194     -0.27193625969075      1.47635938752752
  C   1.77015138186091      0.56828329354921      0.18446799720270
  H   1.91672409368657      0.40732267696838      1.25479875297509
  H   2.66443375058258      0.23764998681584     -0.34867213656264
  H   1.61367910606043      1.62683892264551      0.00017616011181
  N   0.86153451669762     -1.63104742903649     -0.09722828681702
  H   1.70255959310704     -1.90087820142457     -0.58964866549618
  H   0.08944496577298     -2.23001109794850     -0.35599648154672
  N   -1.91587743822159     -0.55924463924612     -0.15344648409901
  O   -1.93774763461897     -1.78717519610749     -0.08967538569459
  O   -2.78975655761389      0.14183455667885     -0.64724412933314
  N   -0.85829457625937      1.55795332119946      0.52523898642750
  H   -1.01228521013486      1.93335500038404     -0.40271660703593
  H   -1.64550179997867      1.81009554699409      1.10698569058011
