17
Coordinates from ORCA-job run
  C   0.56392663559149     -0.21394053891667     -0.36986081280488
  C   -0.77495928946672      0.13526482429535      0.35136211980163
  Cl  0.40525636712584      0.33874086405374     -2.08145878341499
  H   -0.69667629388491     -0.27426068861042      1.36197960542784
  C   1.69275922556392      0.57110322094231      0.27625584055423
  H   1.54528080656214      1.64469859426448      0.17351443639587
  H   2.62740037310289      0.29566108488104     -0.21233378252115
  H   1.76200366789588      0.32008510209831      1.34043586987424
  N   0.92129324853784     -1.60373119702345     -0.38884481977592
  H   1.22722863728055     -1.89487803937353      0.53227868679655
  H   0.14226362060421     -2.18813537816432     -0.66630499909382
  N   -1.89009533739062     -0.65783676998802     -0.28869943391878
  O   -1.95880528234428     -1.85000043166485      0.01899667888466
  O   -2.61421572547990     -0.08130051745915     -1.08912490714852
  N   -1.18171721886233      1.49844746432143      0.41567563647080
  H   -1.11502027637274      1.95277689041911     -0.48527057540241
  H   -0.65592315846327      2.00630551592464      1.11139923987465
