17
Coordinates from ORCA-job run
  C   0.56288206503445     -0.16349432500703     -0.30110952980387
  C   -0.78584674209474      0.19535069360044      0.36003339429260
  Cl  0.66744245723291      0.63089082239266     -1.96618302667338
  H   -0.67982350882147     -0.04085118147510      1.41953079546998
  C   1.68739643863930      0.44670007104047      0.51755796993706
  H   1.70501076788145     -0.01504810173125      1.50761595476353
  H   2.64576627863774      0.27020536213558      0.02574679092093
  H   1.55468914107486      1.52403384790493      0.61432927057064
  N   0.70279689850376     -1.57325915776036     -0.35884108724912
  H   1.64817211249889     -1.83647286530522     -0.60666608273337
  H   0.06481845710567     -1.98358419565387     -1.03054877284252
  N   -1.85587207787575     -0.77246537633836     -0.10000594471434
  O   -2.48803354952262     -1.35995806978616      0.77149007252500
  O   -2.03471773556477     -0.87071997048500     -1.31207201983025
  N   -1.29587182852990      1.51261969182046      0.19807702427816
  H   -1.05270302546744      1.91348363622029     -0.69629004359720
  H   -1.04410614873233      2.12356911842753      0.95833523468616
