17
Coordinates from ORCA-job run
  C   0.54725973033286     -0.42463718183487     -0.21171708727423
  C   -0.97642047130583     -0.16696217440256     -0.19724018475381
  Cl  0.74817063808164     -1.96997309233037     -1.12030092910100
  H   -1.36001200422267     -0.19443863990590     -1.21643399820404
  C   1.31091136972537      0.65425821829138     -0.96484231936040
  H   1.26970179471454      1.59396626321373     -0.40847247258281
  H   0.89910624291006      0.81739910830662     -1.96303239733393
  H   2.35745385911845      0.36061876219110     -1.06431160403612
  N   0.99141402947382     -0.67886063264257      1.13980973517398
  H   1.96175267047038     -0.96903485236556      1.14186391139839
  H   0.88795993455376      0.16645944878629      1.69171167940115
  N   -1.16189212269231      1.28668127492203      0.21787060516287
  O   -1.57891044084941      2.06776195094354     -0.63318102984204
  O   -0.85382292246714      1.58066220981271      1.37101275597637
  N   -1.71674476670281     -0.99764800085019      0.68148194809830
  H   -2.23125478403343     -1.70276580990864      0.17740638377733
  H   -1.09567275710728     -1.42348685222676      1.35937500350000
