17
Coordinates from ORCA-job run
  C   0.52637753654699     -0.43463120642110     -0.26654206771115
  C   -0.93678795821698     -0.30415559656374      0.22077325551597
  Cl  0.48025851195545     -1.32510763161134     -1.86976164014789
  H   -1.34586947989736     -1.31061868910038      0.33204805281684
  C   1.24979766506486      0.87667623144782     -0.49608281956061
  H   2.26575983702083      0.66929320288960     -0.83909049952973
  H   0.74938192579461      1.48113147263857     -1.24844280690726
  H   1.30708403152029      1.43505662517879      0.43975313442456
  N   1.19446008394757     -1.19155835517894      0.74539054186853
  H   2.19324916702638     -1.21369493990027      0.57876873283000
  H   0.85575211528902     -2.14695062897615      0.76957815174156
  N   -1.80312517987023      0.34401359366487     -0.81681709559229
  O   -1.65857059401485      1.55716179712573     -0.96536086617908
  O   -2.59463477524592     -0.36623795250241     -1.42571060913286
  N   -1.11387002637915      0.44348903268342      1.43497660296133
  H   -0.88583519809379      1.41700016890106      1.27198968627397
  H   -0.48442766244773      0.06913287572446      2.13453024632811
