17
Coordinates from ORCA-job run
  C   0.49699560946870     -0.47576470891435     -0.22549921058460
  C   -0.99799961759683     -0.09763802264865     -0.12246163041308
  Cl  0.51589183917294     -2.07260897234297     -1.06424827228149
  H   -1.45312526546304     -0.14290899739936     -1.11109994234080
  C   1.28521716342605      0.50326816176818     -1.08262912020118
  H   2.29689896791724      0.12326485193504     -1.23588571450958
  H   0.81788828449528      0.65165832266883     -2.05838604990393
  H   1.35451263616536      1.46804749464164     -0.57403244231494
  N   1.01473207840341     -0.70149581939000      1.10467052833111
  H   1.01197800317772      0.17325350967134      1.61920579104977
  H   1.95917694971017     -1.06419283287882      1.05717643453178
  N   -1.04234655858756      1.38327982784050      0.22783364815194
  O   -0.63439567045764      1.70562170820241      1.34171421844983
  O   -1.45400956992308      2.15464518872953     -0.63481505867358
  N   -1.73465083255774     -0.82594764212076      0.84601943431203
  H   -1.10059525017480     -1.27058084481256      1.49940413299683
  H   -2.33716876717619     -1.50890122494998      0.41403325339990
