17
Coordinates from ORCA-job run
  C   0.65710744061395     -0.29116215451554     -0.17419490597272
  C   -0.87931434668545     -0.18471222074040     -0.15438465259408
  Cl  0.90839815670089     -2.01081906827848     -0.91914643657908
  H   -1.25792793769438     -0.24816093507045     -1.17923406281341
  C   1.37394111288853      0.64847979639261     -1.11964167964148
  H   2.42542123123349      0.35965852225559     -1.17814780484912
  H   0.94940627054139      0.59760384260508     -2.12189448825865
  H   1.30498390790773      1.67037195911680     -0.74923459830441
  N   1.12085618019519     -0.18088400434347      1.13942127675511
  H   2.11917846018868     -0.31149014895466      1.22352533089140
  H   0.60396127696736     -0.79044758854766      1.76229298340556
  N   -1.25092937994458      1.21134210936234      0.29516940519446
  O   -1.08418794911237      2.09649996240549     -0.53929651044874
  O   -1.68745497844199      1.36768177253178      1.43011551469776
  N   -1.42737305233634     -1.13126772996192      0.78391813494622
  H   -1.58375881220644     -2.01705410648329      0.32303540647615
  H   -2.29230758081567     -0.78664000777384      1.17769708709502
