17
Coordinates from ORCA-job run
  C   0.61816099279341     -0.46581407922685     -0.39089081737849
  C   -0.78735843835001     -0.33302744734596      0.24549079822223
  Cl  0.42113050525268     -1.32180098557070     -1.95177299006863
  H   -1.19627484925275     -1.33403887020547      0.38886065935409
  C   1.30306351972806      0.86467560365924     -0.63748704453586
  H   1.48358646931550      1.37064828869401      0.31462902599819
  H   0.71509211823002      1.51362862789050     -1.28380491909355
  H   2.26867204569085      0.66194195419995     -1.09918250373522
  N   1.46944062804362     -1.28541085914565      0.44395626269120
  H   1.10295692426551     -2.23030731011317      0.49342531462215
  H   1.45446733924321     -0.89156826327554      1.37986027199395
  N   -1.77611804781721      0.33703290591780     -0.69821859492497
  O   -2.58993058767369     -0.37985183528130     -1.27239538618274
  O   -1.69582260060033      1.56172718837141     -0.79972609529329
  N   -0.68848465417916      0.36189168969205      1.49006571537577
  H   -1.51651827537443      0.21398077082177      2.05304473200088
  H   -0.58606308931526      1.35629262091794      1.32414557095428
