17
Coordinates from ORCA-job run
  C   0.56401283769903     -0.23757224192614     -0.43451678632160
  C   -0.63340229721982      0.18208621838984      0.45701234713859
  Cl  0.15599992427058      0.30194846078795     -2.11729255824617
  H   -0.46686640593174     -0.25154221576429      1.44710288073275
  C   1.81034725444509      0.50458227339184      0.01511002439900
  H   1.68186807444717      1.58018070678902     -0.06436755559818
  H   2.64540569707239      0.17803833084820     -0.60546939443411
  H   2.02233253779146      0.26156833799243      1.06159845028948
  N   0.84980978113549     -1.63955809524507     -0.48365612825206
  H   1.35206598624572     -1.92147496640616      0.34904325724369
  H   0.00992770691260     -2.19702907552394     -0.56901655558988
  N   -1.90646625487810     -0.53607204499666     -0.02880008071699
  O   -1.96443679588562     -1.75118916229275      0.16171677959251
  O   -2.77472135714782      0.14373975894900     -0.56322105434717
  N   -0.79281310244023      1.58357958462550      0.54085864219137
  H   -1.51986962555609      1.83147082551776      1.19865735972680
  H   -1.03319396096012      1.96724330486348     -0.36475962780805
