17
Coordinates from ORCA-job run
  C   0.57516029093105     -0.35888916404184     -0.15827034798178
  C   -0.95751215236427     -0.25043282136028      0.02987629705461
  Cl  0.82224088511166     -2.20277930342736     -0.36786632880042
  H   -1.43760818173553     -0.71626736617706     -0.83022618258625
  C   1.08278233811661      0.27746824829265     -1.43620936309655
  H   2.12646071009522     -0.00294606473758     -1.59299061741862
  H   1.01378872799875      1.36318027431755     -1.36064677023554
  H   0.50411520665445     -0.05666354750350     -2.29652075375017
  N   1.25246801522116      0.14989579985893      0.96556180090107
  H   1.02513570584108     -0.34821311283702      1.81541047450375
  H   2.25564731945017      0.15071511420345      0.83620701184968
  N   -1.32110813062976      1.21025437520807     -0.05454721220480
  O   -1.54450923733304      1.65568381791799     -1.17823705964439
  O   -1.33997062567554      1.84880357011079      0.99200458432969
  N   -1.52278161669770     -0.75612180480558      1.24239463671330
  H   -1.21168726617911     -0.22506421496279      2.04458503949578
  H   -1.32262198880520     -1.74062380005644      1.35047479087063
