17
Coordinates from ORCA-job run
  C   0.44098597121496     -0.55631125134298     -0.34255690974737
  C   -1.00576765893532     -0.08135691087636     -0.09867411275416
  Cl  0.31326062945522     -2.07459161799210     -1.29051383160920
  H   -1.53303110444437      0.01887949845288     -1.04830740465083
  C   1.23421166982367      0.43854519706325     -1.17962688830867
  H   2.19959688077974      0.00029705608663     -1.43779511686742
  H   0.70984158395750      0.69649601533399     -2.10172615528974
  H   1.41419487897136      1.35431471838249     -0.61112550960054
  N   1.04118362229871     -0.89772186433052      0.93301161604794
  H   1.25230001540900     -0.04684594762266      1.44391472087462
  H   1.89936764202590     -1.41375197208640      0.78160021652598
  N   -0.88921195566281      1.38030170188770      0.38346570108170
  O   -0.49942935772771      1.56183100819077      1.53722906929741
  O   -1.17997275957898      2.26316045340158     -0.42013882610765
  N   -1.68024381051698     -0.92313467547137      0.79883781013516
  H   -1.11285500900857     -1.12418459771063      1.61078292555224
  H   -2.60443123806131     -0.59792681136626      1.04062269542052
