17
Coordinates from ORCA-job run
  C   0.43864338933879     -0.54957309791865     -0.17388326563612
  C   -1.00178610684322     -0.06614557526719      0.10760058526028
  Cl  0.27851473831529     -2.31452977653168     -0.51206758337126
  H   -1.65005379649911     -0.35454821835891     -0.71896495447044
  C   1.03832829125443      0.10259321545950     -1.41062918169999
  H   1.21435598529185      1.16433245701309     -1.22088540766740
  H   0.38158521637964      0.00325956762527     -2.27742834043168
  H   1.99546545964273     -0.36723162112209     -1.64418206624194
  N   1.21711499044258     -0.42987601030730      1.03753679610928
  H   2.13118787347411     -0.84719527365584      0.91077890095971
  H   1.32117473806614      0.55151644812976      1.27418384356594
  N   -0.96794557225006      1.45420529613023      0.02543642619990
  O   -1.54739114465009      1.98120887465735     -0.92060015992257
  O   -0.33729712410197      2.04594199594568      0.89912766170595
  N   -1.52746316017020     -0.45093065282468      1.36702694282229
  H   -2.21014019205137     -1.18651546997747      1.27310103019212
  H   -0.77529358563954     -0.73651215899709      1.98284877262593
