17
Coordinates from ORCA-job run
  C   0.54209142826985     -0.52576154526769     -0.26065138368088
  C   -0.90470617440419     -0.32210076787008      0.28155320629709
  Cl  0.42349201250926     -1.87498167432701     -1.52567061540036
  H   -1.51689879777917     -1.19696014690545      0.06601632327871
  C   1.12376147182566      0.67414238391611     -0.99050815151995
  H   1.14496711716004      1.53731790278165     -0.32280442375325
  H   0.55146251143516      0.91491144975396     -1.88511252819150
  H   2.14504836154223      0.44075977698939     -1.29698835121350
  N   1.38846352105954     -0.87098303822069      0.82194358899917
  H   2.30961120920399     -1.12993087314667      0.49281781756502
  H   1.00237399700181     -1.60521268999556      1.40036043319997
  N   -1.55412828403349      0.77540337223431     -0.57194244708373
  O   -1.51819468286773      1.92199768988866     -0.13198036551124
  O   -2.03985753702216      0.42726944808804     -1.64387998621639
  N   -0.92000075413215     -0.04169509378606      1.66850183522212
  H   -0.31851400613298      0.73521757592175      1.90508580353191
  H   -1.85997139363571      0.14160622994535      1.99425924447680
