17
Coordinates from ORCA-job run
  C   0.58453391082572     -0.50073365395527     -0.39943147820111
  C   -0.79168860717895     -0.29325245739915      0.27970821082452
  Cl  0.29908645876287     -1.38354774150933     -1.93154743097401
  H   -1.23625167380745     -1.27239736665315      0.46227526516836
  C   1.31545230186829      0.79327389588246     -0.70163188864250
  H   2.25699613684933      0.53837235299315     -1.18658057125012
  H   1.54571930410746      1.31563074645168      0.23063944262784
  H   0.73477930845429      1.44940892067891     -1.34727030385328
  N   1.42835235300745     -1.33622465938012      0.42666926885851
  H   1.02436169890297     -2.26295229990171      0.51267121408757
  H   1.46370963489599     -0.91965824818326      1.35205897132918
  N   -1.78345414636936      0.39552258288389     -0.64686839591028
  O   -2.64670638177955     -0.29949541547646     -1.17373301319452
  O   -1.65484125397347      1.61268158994179     -0.78295057867308
  N   -0.62088458133919      0.42626731714982      1.50264487973000
  H   -0.48525593288408      1.41149712327973      1.30827844381212
  H   -1.43390853034232      0.32560731319700      2.09706796426082
