17
Coordinates from ORCA-job run
  C   0.48225283705792     -0.57676851282383     -0.36436124393864
  C   -0.86988803164903     -0.27355616593715      0.30654725943027
  Cl  0.16342365189694     -1.47790150681048     -1.88592604384625
  H   -1.36893320336069     -1.22507057593000      0.48446665972398
  C   1.29317387909848      0.66090222008470     -0.72256206574160
  H   1.52209730436071      1.22515450679406      0.18510244204161
  H   0.77736566197399      1.30944897773242     -1.42937229964645
  H   2.23707201316406      0.34160682572586     -1.16897237224160
  N   1.13738635594969     -1.48790701600758      0.54745315132392
  H   2.05670041527932     -1.72661722296167      0.19379723711577
  H   1.22953372348003     -1.02108960720265      1.44336488876421
  N   -1.78998004722430      0.48432332741958     -0.63645830045229
  O   -2.68818413876562     -0.14603050952527     -1.18428671631228
  O   -1.57633449368569      1.69116725710035     -0.75984981790596
  N   -0.65610719106412      0.43865985159484      1.52810875197259
  H   -1.46462000554981      0.36547439943717      2.13225739731386
  H   -0.48595873096189      1.41820375130962      1.33169107239886
