17
Coordinates from ORCA-job run
  C   0.50061444818775     -0.46356647434933     -0.26743187165747
  C   -0.93862738232522     -0.25875375115653      0.26332336878196
  Cl  0.36586339560370     -1.40926164886255     -1.83332564890364
  H   -1.37882549323550     -1.24403782041781      0.43099748141693
  C   1.26423946497217      0.80969342720803     -0.57004188019221
  H   0.75876483041922      1.40635883617019     -1.32524776207647
  H   1.37767323003191      1.39695744700434      0.34269766169123
  H   2.25826049575221      0.55093781321836     -0.94119439465086
  N   1.17460006156947     -1.20824796360542      0.74979475906968
  H   0.80132830934679     -2.14825985592420      0.82139464195837
  H   2.16545303088900     -1.27517775082765      0.55080608178350
  N   -1.81750386649524      0.37902673772973     -0.76969508667999
  O   -1.63317344727442      1.57839722891721     -0.97461919128695
  O   -2.65680232123382     -0.32442949855202     -1.31953725947902
  N   -1.04609810382051      0.54271085996986      1.45099183003730
  H   -0.78381330041368      1.49881787113927      1.24292798994103
  H   -0.41095335197384      0.16983454233854      2.14615928024661
