17
Coordinates from ORCA-job run
  C   0.48969366850375     -0.56800504951442     -0.36861862732858
  C   -0.86642074697663     -0.28678363071733      0.30370624981588
  Cl  0.18262173827698     -1.46105763071923     -1.89757898501450
  H   -1.35444967137867     -1.24542340111968      0.47379089145786
  C   1.28531322285732      0.68235942138293     -0.71687609931602
  H   0.76218019925156      1.32969160032898     -1.41939337109363
  H   2.23363059704626      0.37821563071178     -1.16452002887470
  H   1.50643150753270      1.24268578413328      0.19516023555525
  N   1.15554700848227     -1.47782586439097      0.53632240633897
  H   1.24036223934233     -1.01780432644020      1.43640666346012
  H   2.07794452211100     -1.70298727805195      0.18200164452173
  N   -1.79526333225475      0.46731513752392     -0.63397833355127
  O   -2.68558658746888     -0.16957106675699     -1.18698355356948
  O   -1.59549557591213      1.67742300276678     -0.74824335196008
  N   -0.66212453997810      0.41837739951424      1.53105547253185
  H   -1.46976094895613      0.32981306588947      2.13431595980635
  H   -0.50462330047887      1.40157720545939      1.34243282722024
