17
Coordinates from ORCA-job run
  C   0.53327991338163     -0.48228810904671     -0.37889541561327
  C   -0.88916727574101     -0.29477313330498      0.21685005821275
  Cl  0.32801863580731     -1.43304766559535     -1.89279175743841
  H   -1.33420790342401     -1.28458650942365      0.33339968998085
  C   1.26339379197721      0.80511255018002     -0.70876101394322
  H   1.38082148830788      1.41986238234366      0.18846751183793
  H   0.73480310287503      1.38746442877031     -1.45908504676707
  H   2.25462416575684      0.54377988360425     -1.07903725330126
  N   1.35974706336518     -1.27091366858246      0.50233650650732
  H   0.89930838936582     -2.12631259760405      0.79064819520787
  H   1.63815961823917     -0.73261533459813      1.31294042302580
  N   -1.79673618407960      0.42643964291819     -0.73991038365322
  O   -2.65758134315139     -0.22620010234478     -1.31947702071865
  O   -1.60726662764546      1.63685361107781     -0.85260709337018
  N   -0.97385553003888      0.41989274285286      1.45804167823117
  H   -0.53747777994573      1.32989478656867      1.40304652742873
  H   -0.59586352504999     -0.11756290781567      2.22383439437286
