17
Coordinates from ORCA-job run
  C   0.53401581996087     -0.47930608230740     -0.38119041555982
  C   -0.89039040920149     -0.29899648203341      0.21239356998624
  Cl  0.33401519221559     -1.41746280778252     -1.90434221683584
  H   -1.33558312145381     -1.29007350025803      0.31719754768513
  C   1.26246022447531      0.81213089715998     -0.69818313484861
  H   0.73741083772706      1.39803987285598     -1.44823824843380
  H   1.37177354545396      1.42173842409898      0.20357254552566
  H   2.25684553994887      0.55597392501893     -1.06362655814718
  N   1.35926248029152     -1.27409032978534      0.49487098346808
  H   1.64163978877777     -0.74168064622048      1.30783032045229
  H   0.89966246581244     -2.13163756867918      0.77764569804631
  N   -1.79489452726886      0.43211380350376     -0.73974923401213
  O   -1.60733751830239      1.64421852298112     -0.83620668877656
  O   -2.64981747158018     -0.21556646704296     -1.33326523447038
  N   -0.97901464301220      0.40338415769593      1.46067489313452
  H   -0.55142295443516      1.31795109108414      1.41062885106649
  H   -0.58962524940929     -0.13673681028951      2.21898732171961
