14

C	0.0	0.0	0.0
C	-0.597251	0.136961	-1.406927
Cl	1.783799	0.0	0.0
H	-1.616967	0.498202	-1.240227
H	-0.340794	-0.926161	0.462964
C	-0.389168	1.135865	0.840886
N	-0.601526	2.075691	1.510815
N	-0.591169	-1.19814	-2.018377
H	-0.911856	-1.082169	-2.975236
H	-1.328791	-1.726396	-1.553768
N	0.123632	1.123895	-2.173289
H	-0.46486	1.462983	-2.922923
H	0.960061	0.70841	-2.567628
Br	-3.747932	0.0	0.0
