14

C	0.0	0.0	0.0
C	-0.600778	0.205735	-1.391784
Cl	1.783283	0.0	0.0
H	-1.659031	-0.048259	-1.254706
H	-0.323301	-0.979734	0.35199
C	-0.42067	1.028639	0.951832
N	-0.654124	1.890354	1.714429
N	-0.008673	-0.746562	-2.305016
H	-0.644856	-0.905354	-3.075957
H	0.853872	-0.35575	-2.668136
N	-0.401633	1.591943	-1.823654
H	-0.93794	2.193367	-1.202007
H	-0.850161	1.677434	-2.730848
Br	-3.815904	0.0	0.0
