14

C	0.0	0.0	0.0
C	-0.522659	-0.443641	-1.425508
Cl	1.78167	0.0	0.0
H	0.376677	-0.604532	-2.027339
H	-0.331436	-0.719754	0.748721
C	-0.420808	1.348463	0.363009
N	-0.672556	2.464394	0.630914
N	-1.361987	0.493201	-2.137754
H	-2.248823	0.590589	-1.641832
H	-0.931751	1.406242	-2.217057
N	-1.16601	-1.731374	-1.231237
H	-2.041835	-1.546694	-0.737129
H	-1.440073	-2.061804	-2.151215
Br	-4.00358	0.0	0.0
