14

C	0.0	0.0	0.0
C	-0.51765	-0.130322	-1.45712
Cl	1.790755	0.0	0.0
H	-0.198171	-1.133765	-1.787325
H	-0.333111	-0.85157	0.59566
C	-0.440187	1.250071	0.614407
N	-0.743809	2.262014	1.125316
N	0.053988	0.954093	-2.241702
H	-0.47592	0.987171	-3.103846
H	1.026508	0.781953	-2.457056
N	-1.935354	-0.030947	-1.604538
H	-2.491041	-0.715994	-1.103207
H	-2.287889	0.868448	-1.294332
Br	-4.842667	0.0	0.0
