19

C	-0.460506	-0.049213	-1.450305
C	0.0	0.0	0.0
Br	0.137249	1.732122	-2.306267
H	1.090168	0.0	0.0
C	0.357952	-1.093501	-2.191014
H	0.032775	-2.088847	-1.875536
H	1.416444	-0.956463	-1.950272
H	0.201367	-1.00191	-3.268704
N	-1.851632	-0.249449	-1.62854
H	-2.079556	-0.272218	-2.615141
H	-2.362646	0.496779	-1.173683
C	-0.402023	-1.241735	0.791067
H	-0.014273	-1.132117	1.806266
H	0.084144	-2.115331	0.354855
H	-1.483828	-1.394101	0.808381
N	-0.520825	1.163845	0.754543
O	-1.587619	1.691888	0.399881
O	0.112066	1.510524	1.748758
H	2.77773	0.0	0.0
