19

C	-0.334002	0.008277	-1.456325
C	0.0	0.0	0.0
Br	-2.544077	0.526218	-1.638736
H	1.093551	0.0	0.0
C	0.347493	1.052888	-2.292354
H	0.014718	2.053861	-2.046683
H	0.175133	0.858354	-3.354744
H	1.417696	0.962548	-2.049439
N	-0.187253	-1.25424	-2.007695
H	-0.380458	-1.263448	-2.998819
H	-0.712341	-1.972688	-1.53183
C	-0.459476	-1.21407	0.76993
H	-0.217244	-1.084021	1.823142
H	0.10174	-2.081611	0.413984
H	-1.537365	-1.378572	0.679809
N	-0.379542	1.245665	0.680702
O	0.042294	2.305517	0.208928
O	-1.025776	1.176834	1.73366
H	2.533971	0.0	0.0
