19

C	-0.223692	-0.031086	-1.502673
C	0.0	0.0	0.0
Br	-2.194469	-0.44706	-1.950205
H	1.094365	0.0	0.0
C	0.070328	1.278672	-2.210778
H	-0.59963	2.08453	-1.91624
H	1.099627	1.552276	-1.957591
H	-0.018822	1.124818	-3.28959
N	0.573034	-1.126799	-1.966087
H	0.69494	-1.062897	-2.969702
H	1.493428	-1.03226	-1.508278
C	-0.493775	-1.209202	0.755447
H	-1.579612	-1.224839	0.833468
H	-0.150492	-2.099643	0.23
H	-0.060566	-1.20433	1.759375
N	-0.47008	1.249424	0.628552
O	0.170443	2.280992	0.397604
O	-1.451609	1.20757	1.381211
H	2.674136	0.0	0.0
