19

C	-0.221354	-0.01636	-1.512852
C	0.0	0.0	0.0
Br	-2.173502	-0.322188	-1.944797
H	1.094198	0.0	0.0
C	0.208016	1.253706	-2.216021
H	1.243068	1.451323	-1.917831
H	-0.403727	2.110734	-1.948743
H	0.155357	1.073189	-3.289924
N	0.521431	-1.110646	-2.107337
H	1.487503	-0.971517	-1.774982
H	0.2042	-1.98812	-1.710837
C	-0.47024	-1.216788	0.763747
H	0.008455	-2.108326	0.355559
H	-0.145588	-1.127334	1.802071
H	-1.553665	-1.333781	0.742356
N	-0.475941	1.229007	0.662788
O	-1.370404	1.139692	1.515879
O	0.075761	2.293598	0.365431
H	2.675901	0.0	0.0
