14

C	-0.25654	0.024753	0.065512
C	-0.599392	-0.114873	-1.40479
F	0.940638	-0.575957	0.333604
H	-1.609941	0.280495	-1.519206
H	-1.061161	-0.370728	0.689625
N	-0.107851	1.4966	0.360083
O	-1.086863	2.183664	0.101833
O	0.949522	1.888437	0.840022
C	-0.602841	-1.543084	-1.772319
N	-0.452848	-2.631835	-2.186931
N	0.361294	0.655476	-2.192802
H	0.058143	0.680587	-3.158145
H	1.26195	0.191269	-2.165526
Cl	-3.322914	-1.031805	0.136614
