14

C	-0.244467	0.025443	0.062749
C	-0.580836	0.173314	-1.408291
F	0.962125	-0.596752	0.214436
H	-1.59773	0.566934	-1.448386
H	-1.043909	-0.498733	0.591383
N	-0.122008	1.412389	0.642832
O	0.9276	1.719268	1.196101
O	-1.112167	2.120691	0.519977
C	-0.558202	-1.153999	-2.050457
N	-0.388329	-2.137416	-2.669976
N	0.368122	1.100167	-2.02295
H	1.276917	0.655244	-2.082412
H	0.066925	1.310241	-2.966114
Cl	-3.292448	-1.074484	-0.0951
