14

C	-0.433542	-0.061918	-1.4718
C	0.0	0.0	0.0
F	0.066855	-1.180528	-2.027277
H	1.097705	0.0	0.0
C	-1.891396	-0.031935	-1.653197
N	-3.059768	-0.056621	-1.778261
N	0.140193	1.144648	-2.234806
O	0.999992	0.918654	-3.067727
O	-0.369249	2.217919	-1.931063
C	-0.469925	-1.214459	0.664624
N	-0.830444	-2.192127	1.208613
C	-0.508541	1.1786	0.697381
N	-0.922749	2.100925	1.298207
Br	3.248812	0.0	0.0
