14

C	-0.431051	-0.046321	-1.473644
C	0.0	0.0	0.0
F	0.002693	-1.194069	-2.023724
H	1.097729	0.0	0.0
C	-1.881946	0.078358	-1.665408
N	-3.044099	0.150942	-1.823183
N	0.222168	1.123397	-2.238986
O	0.99484	0.836004	-3.132532
O	-0.144418	2.230592	-1.870528
C	-0.47374	-1.221991	0.650234
N	-0.868896	-2.201618	1.164459
C	-0.512337	1.165726	0.712957
N	-0.939782	2.062379	1.340152
Br	3.248633	0.0	0.0
