14

C	-0.372782	-0.020972	-1.486934
C	0.0	0.0	0.0
F	0.148869	1.063425	-2.086821
H	1.098293	0.0	0.0
C	0.05041	-1.250814	-2.159878
N	0.365839	-2.24499	-2.700935
N	-1.905303	0.074138	-1.637546
O	-2.361871	1.163274	-1.949469
O	-2.52003	-0.954369	-1.383233
C	-0.473576	-1.180914	0.711788
N	-0.823175	-2.133624	1.303713
C	-0.486736	1.229453	0.618483
N	-0.879642	2.215699	1.121669
Br	3.232325	0.0	0.0
