17
Coordinates from ORCA-job run
  C   -0.59027275224596     -0.10692224923302     -0.23019449063452
  C   0.78104252129541      0.46837378151543      0.21576789792025
  Br  -0.81486771265585      0.00506875924827     -2.15453398158221
  H   0.74331965801310      0.55741036166051      1.30121261490541
  N   -1.68384360955454      0.79082909986187      0.37451114099919
  O   -1.32431909641556      1.77466475924917      1.01822011508152
  O   -2.84052951071255      0.44421098527364      0.18777284795193
  C   -0.86086995220994     -1.51972299366937      0.24310910618078
  H   -1.88367040495951     -1.79720749353044     -0.00624463806296
  H   -0.17695102341131     -2.21705343379489     -0.23895766186989
  H   -0.71792056753769     -1.58052610847927      1.32560784693703
  N   1.26001170032555      1.68111639337568     -0.34763316073742
  H   1.22870562294514      1.66077671351442     -1.35830529405254
  H   0.72723821444152      2.46155791635329      0.00851087046227
  N   1.80575820516880     -0.60588881497522     -0.04669013496575
  O   2.29525991292309     -0.64012234590526     -1.17058682736045
  O   2.05290879459028     -1.37556533046481      0.87943374882736
