17
Coordinates from ORCA-job run
  C   -0.60261877839376     -0.23099917647555     -0.26379526808911
  C   0.65834291559047      0.50308407841711      0.22056260917903
  Br  -0.59999827648004     -0.36841388361403     -2.19199868770207
  H   0.62452696723850      0.51911071183125      1.31087174193401
  N   -1.74793282234425      0.68866756805022      0.19658097633191
  O   -2.52216653410061      1.15977125691131     -0.61701213377186
  O   -1.78004616704197      0.84293983062321      1.41357343672754
  C   -0.85470042119525     -1.59431102519418      0.35094081109109
  H   -0.80365003811742     -1.52181353720205      1.43772441006972
  H   -0.11386513322569     -2.31233268534157      0.00640897224602
  H   -1.84660690685610     -1.94129679354312      0.05514411922990
  N   0.72407692251801      1.81215705857501     -0.29773516187819
  H   0.90767855257879      1.81221618467107     -1.29287572232601
  H   1.42479890370407      2.36601476925008      0.17515800208740
  N   1.88147715556916     -0.36883181350314     -0.09812221903071
  O   2.06141809047666     -1.34141906009986      0.63141633666057
  O   2.59126557007943     -0.02454348335576     -1.03684222275923
