17
Coordinates from ORCA-job run
  C   -0.58468161065915     -0.43992080410098     -0.27757789921348
  C   0.85434611553245      0.08507434311188     -0.36984627226207
  Br  -0.59104640348482     -2.18555096873387     -1.16565857018173
  H   1.09944426363573      0.25309395929486     -1.42513300552124
  N   -1.49557463056625      0.42134586296207     -1.14936308132143
  O   -2.63533458053931      0.60391638962606     -0.74646087209358
  O   -1.02242580422432      0.83076743113775     -2.20241063773394
  C   -1.12087668659690     -0.58029895333832      1.12334369456731
  H   -0.40859905059405     -1.16471748675098      1.70456808256172
  H   -1.24259683537029      0.40603412440651      1.57139492706076
  H   -2.08919149754749     -1.07595862584256      1.11161763802191
  N   1.76140474057914     -0.75381171927598      0.37045471963938
  H   1.93631662365698     -1.60366328765528     -0.14978313540010
  H   2.63736897097908     -0.25784663154444      0.48409039014191
  N   0.93839508482520      1.47337385394832      0.24379414491140
  O   2.05269921030090      1.84668669003070      0.59242487595475
  O   -0.08864790992690      2.14247582272425      0.28754500086842
