17
Coordinates from ORCA-job run
  C   -0.55747671985293     -0.22516854125678     -0.25185538673520
  C   0.76619560365774      0.45318840720043      0.19073365741353
  Br  -0.65723746901768     -0.33024061122536     -2.17591781304517
  H   0.77984475951146      0.43153976677685      1.28019792709447
  N   -1.63836491037528      0.73562265747066      0.26999735439838
  O   -2.46022235278845      1.21710120238538     -0.49275026012394
  O   -1.57202343036368      0.93111919288191      1.48225206420347
  C   -0.83754963847142     -1.58206790131776      0.36541436477780
  H   -0.13275567156820     -2.32060693530006     -0.01117234738586
  H   -1.85069809375077     -1.89734782450240      0.10836167697718
  H   -0.73900414151318     -1.51825414363447      1.45004518041029
  N   1.00827552754184      1.77053073762883     -0.26742389218791
  H   0.53153022198834      2.46119156448771      0.29291262079503
  H   0.81979362966092      1.89360282712900     -1.25252083743427
  N   1.90752953972342     -0.44698052792368     -0.23019754706669
  O   2.51022531681237     -0.15861328387631     -1.25550276585634
  O   2.12393782880550     -1.41561658692395      0.49742600376523
