16

C	0.0	0.0	0.0
C	-0.442597	-0.176849	-1.464937
Br	2.094944	0.0	0.0
H	-1.539261	-0.274016	-1.307511
N	-0.51341	1.178067	0.575415
H	-0.387458	1.908552	-0.121122
H	-1.550155	0.914824	0.56235
C	-0.313872	-1.146645	0.856867
N	-0.479165	-2.025781	1.618715
N	0.07482	-1.469389	-2.067485
O	0.829947	-1.396608	-3.040319
O	-0.309904	-2.517669	-1.555866
N	-0.097103	0.96549	-2.23693
H	-0.685578	1.015979	-3.056701
H	0.869753	0.906609	-2.532413
F	-2.705537	0.0	0.0
