16

C	0.0	0.0	0.0
C	-0.213251	-0.078383	-1.574161
Br	2.025247	0.0	0.0
H	0.428082	-0.876263	-1.95156
N	-0.629649	1.001888	0.753733
H	-1.648712	0.725696	0.698533
H	-0.513884	1.881001	0.262704
C	-0.359206	-1.329889	0.509985
N	-0.593014	-2.403532	0.925378
N	0.408696	1.167683	-2.221892
O	1.07468	0.98743	-3.238302
O	0.132018	2.272694	-1.756539
N	-1.536323	-0.175979	-2.04353
H	-2.246654	-0.0343	-1.262743
H	-1.681209	-1.080293	-2.468236
F	-2.965118	0.0	0.0
