16

C	0.0	0.0	0.0
C	-0.245373	-0.38121	-1.519873
Br	1.949439	0.0	0.0
H	0.386079	0.291155	-2.102574
N	-0.551852	1.2164	0.463803
H	-0.379113	1.931929	-0.23849
H	-1.599214	0.931082	0.413723
C	-0.404905	-1.125526	0.854421
N	-0.602231	-2.087423	1.500893
N	-1.631391	-0.031797	-2.091969
O	-2.339171	-0.959088	-2.453332
O	-1.817049	1.153984	-2.349721
N	0.104497	-1.734055	-1.781139
H	-0.584646	-2.346545	-1.364847
H	0.108143	-1.907314	-2.779636
F	-2.658439	0.0	0.0
