16

C	0.0	0.0	0.0
C	-0.518306	-0.126018	-1.448694
Br	1.967814	0.0	0.0
H	-1.616041	-0.167239	-1.264252
N	-0.534701	1.165474	0.643988
H	-1.568759	0.929043	0.576342
H	-0.353342	1.95743	0.035183
C	-0.372973	-1.166895	0.816584
N	-0.597453	-2.09953	1.494206
N	-0.167571	-1.433843	-2.13245
O	-0.615023	-1.572369	-3.266693
O	0.486385	-2.282426	-1.527307
N	-0.144342	0.948248	-2.30797
H	-0.884669	1.624091	-2.412557
H	0.725018	1.387683	-2.03165
F	-2.753877	0.0	0.0
