16

C	0.0	0.0	0.0
C	-0.556275	-0.053077	-1.457465
Br	1.959715	0.0	0.0
H	-1.581981	-0.415218	-1.294163
N	-0.555032	1.160417	0.623108
H	-1.594251	0.91823	0.526459
H	-0.308454	1.13255	1.60796
C	-0.322685	-1.247152	0.729808
N	-0.515418	-2.180818	1.418945
N	0.210848	-1.064639	-2.251685
O	0.037973	-2.243109	-1.936456
O	0.967377	-0.676368	-3.139091
N	-0.592819	1.19464	-2.138667
H	-1.364778	1.704744	-1.730116
H	0.25506	1.719401	-1.963503
F	-2.75911	0.0	0.0
