16

C	0.0	0.0	0.0
C	-0.539561	-0.190687	-1.451503
Br	1.95464	0.0	0.0
H	-1.588802	-0.469379	-1.265274
N	-0.559791	1.21959	0.492839
H	-1.598146	0.961698	0.422049
H	-0.314676	1.305457	1.475037
C	-0.331244	-1.166265	0.847835
N	-0.527881	-2.03076	1.620629
N	0.171886	-1.331096	-2.109639
O	0.979799	-1.085013	-3.002379
O	-0.090148	-2.45762	-1.685311
N	-0.473799	0.966933	-2.27759
H	-1.169526	1.60586	-1.913471
H	0.433124	1.411661	-2.186582
F	-2.758232	0.0	0.0
