15

C	-0.529472	0.008721	-1.428111
C	0.0	0.0	0.0
Cl	0.045979	-1.430664	-2.342608
H	1.09308	0.0	0.0
H	-0.313752	0.95437	0.446392
N	-1.981967	-0.036409	-1.438234
H	-2.32502	0.731109	-0.869982
H	-2.323922	0.089325	-2.384928
C	-0.028519	1.189556	-2.159505
N	0.239456	2.174255	-2.744482
C	-0.515266	-1.167878	0.831619
H	-1.60349	-1.175791	0.919181
H	-0.076455	-1.104648	1.829932
H	-0.196815	-2.115094	0.394323
Cl	3.49414	0.0	0.0
