15

C	-0.313211	0.045613	-1.492859
C	0.0	0.0	0.0
Cl	-2.041909	0.56948	-1.745503
H	1.096618	0.0	0.0
H	-0.315005	0.965998	0.411291
N	0.53463	0.959561	-2.234222
H	0.430366	1.875021	-1.804885
H	1.498144	0.674329	-2.038137
C	-0.207107	-1.28773	-2.105654
N	-0.123794	-2.358203	-2.581528
C	-0.602405	-1.154717	0.777475
H	-1.69442	-1.161188	0.713223
H	-0.226001	-2.110815	0.408192
H	-0.319162	-1.075434	1.829269
Cl	3.436024	0.0	0.0
