15

C	-0.434304	0.09387	-1.460957
C	0.0	0.0	0.0
Cl	-2.11833	1.023882	-1.489141
H	1.094356	0.0	0.0
H	-0.297543	0.945142	0.463389
N	0.537501	0.725485	-2.2237
H	1.249588	1.234928	-1.72064
H	0.279082	1.074046	-3.130395
C	-0.81872	-1.193723	-2.06316
N	-1.096546	-2.227135	-2.549314
C	-0.579773	-1.170898	0.77182
H	-1.673705	-1.166763	0.756536
H	-0.248698	-1.11476	1.810929
H	-0.228627	-2.121009	0.365429
Cl	3.459956	0.0	0.0
