15

C	-0.306855	-0.213631	-1.484064
C	0.0	0.0	0.0
Cl	-0.164051	1.451125	-2.334507
H	1.092917	0.0	0.0
H	-0.382926	0.966102	0.329048
N	0.588139	-1.17384	-2.000823
H	0.538742	-1.258499	-3.006948
H	1.540471	-0.965473	-1.696583
C	-1.699646	-0.608154	-1.74685
N	-2.814335	-0.938398	-1.918912
C	-0.511999	-1.142249	0.869066
H	-0.132958	-2.097538	0.503074
H	-0.145114	-1.005943	1.88942
H	-1.60497	-1.18491	0.897583
Cl	3.456857	0.0	0.0
