15

C	-0.330883	-0.125572	-1.485656
C	0.0	0.0	0.0
Cl	-0.106833	1.54259	-2.30554
H	1.092992	0.0	0.0
H	-0.314366	-0.952084	0.442343
N	0.504293	-1.117538	-2.043135
H	1.465992	-0.962805	-1.742112
H	0.448517	-1.149725	-3.052094
C	-1.748364	-0.431102	-1.726779
N	-2.887016	-0.682749	-1.87176
C	-0.61535	1.169991	0.74072
H	-0.201291	2.116682	0.395354
H	-0.391031	1.075663	1.805369
H	-1.703678	1.200775	0.623031
Cl	3.455418	0.0	0.0
