15

C	-0.306026	-0.078447	-1.49722
C	0.0	0.0	0.0
Cl	-0.175886	1.659143	-2.191593
H	1.092938	0.0	0.0
H	-0.382752	0.932225	0.414833
N	0.594518	-0.980106	-2.100263
H	0.543352	-0.973253	-3.109828
H	1.546437	-0.796961	-1.778138
C	-1.694366	-0.45827	-1.796965
N	-2.803669	-0.786054	-2.001674
C	-0.51071	-1.216386	0.76231
H	-0.13766	-1.176884	1.788173
H	-1.603504	-1.259166	0.792346
H	-0.136358	-2.134437	0.307128
Cl	3.457257	0.0	0.0
