16

C	0.0	0.0	0.0
C	-0.307464	0.001281	-1.52154
Cl	1.758485	0.0	0.0
H	-1.382751	0.129479	-1.625022
H	0.172346	0.912816	-1.879997
N	-0.460807	1.304619	0.616001
O	-0.442573	1.422646	1.839271
O	-0.570798	2.254134	-0.1727
N	-0.491401	-1.192632	0.758051
O	-0.465154	-1.165435	1.98996
O	-0.594755	-2.23607	0.093662
C	0.171881	-1.175136	-2.370663
H	0.091586	-0.878974	-3.424626
H	1.214492	-1.438655	-2.180621
H	-0.440379	-2.058814	-2.20698
H	-2.138478	0.0	0.0
