16

C	0.0	0.0	0.0
C	-0.349743	0.082142	-1.50724
Cl	1.756949	0.0	0.0
H	0.394697	0.765678	-1.928618
H	-1.316788	0.567581	-1.582756
N	-0.452107	1.285569	0.656831
O	-0.542145	2.256192	-0.113267
O	-0.393727	1.388395	1.884204
N	-0.411831	-1.233487	0.767842
O	-0.312635	-2.288168	0.132447
O	-0.583467	-1.178441	1.980983
C	-0.365467	-1.201016	-2.324261
H	-1.198707	-1.837722	-2.034005
H	-0.489337	-0.918118	-3.37615
H	0.555554	-1.775703	-2.226663
H	-2.125521	0.0	0.0
