16

C	0.0	0.0	0.0
C	-0.356509	0.016869	-1.494716
Cl	1.736731	0.0	0.0
H	-1.385491	0.360423	-1.591189
H	0.296424	0.769496	-1.946927
N	-0.722065	1.032832	0.740359
O	-0.731745	2.15577	0.145348
O	-0.663619	0.919288	1.996472
N	-0.329555	-1.435481	0.726219
O	0.614455	-2.204125	0.864208
O	-1.472914	-1.703868	1.052551
C	-0.17018	-1.328562	-2.184341
H	-0.476851	-1.246844	-3.231361
H	-0.784397	-2.102841	-1.717575
H	0.871937	-1.655395	-2.161113
H	-2.048643	0.0	0.0
