16

C	0.0	0.0	0.0
C	-0.348137	-0.06918	-1.504125
Cl	1.746056	0.0	0.0
H	-1.42369	-0.239414	-1.552482
H	-0.165221	0.93022	-1.901221
N	-0.355677	1.382505	0.584638
O	-0.762173	2.251425	-0.184432
O	-0.109027	1.559886	1.770292
N	-0.716226	-1.068033	0.769088
O	-0.735295	-2.165257	0.143171
O	-0.715296	-1.005272	2.014857
C	0.392283	-1.104697	-2.348785
H	-0.100348	-1.152106	-3.326106
H	0.332349	-2.084256	-1.879979
H	1.439325	-0.849711	-2.51997
H	-2.145926	0.0	0.0
