11

C	0.0	0.0	0.0
C	-0.454539	-0.145305	-1.439425
Cl	1.757503	0.0	0.0
H	-0.237608	0.774673	-1.985138
H	-0.352291	-0.849645	0.605103
H	0.069652	-0.982515	-1.90846
H	-1.530507	-0.321938	-1.436562
N	-0.613336	1.163469	0.645456
O	-1.767144	1.411679	0.089711
O	-0.368921	1.300625	1.872116
H	-2.841306	0.0	0.0
