11

C	0.0	0.0	0.0
C	-0.503621	0.034948	-1.414847
Cl	1.769092	0.0	0.0
H	-0.187366	-0.882785	-1.918706
H	-0.382724	-0.83005	0.584955
H	-1.599409	0.077682	-1.328379
H	-0.090328	0.89937	-1.935243
N	-0.388071	1.238071	0.776081
O	-0.466591	1.112295	1.993379
O	-0.476071	2.29173	0.156494
H	-2.996056	0.0	0.0
