11

C	0.0	0.0	0.0
C	-0.479363	0.027102	-1.425539
Cl	1.768975	0.0	0.0
H	-0.151643	-0.893997	-1.916183
H	-0.388017	-0.827436	0.584422
H	-1.574452	0.073047	-1.365003
H	-0.050311	0.886156	-1.942354
N	-0.392021	1.242102	0.76473
O	-0.476724	2.291824	0.137488
O	-0.467548	1.126555	1.983506
H	-2.940158	0.0	0.0
