15

C	-0.536059	0.012055	-1.393152
C	0.0	0.0	0.0
Br	0.088474	-1.477664	-2.418889
H	1.085834	0.0	0.0
H	-0.371266	0.877703	0.535222
N	-2.076627	0.143647	-1.458186
O	-2.486215	1.112815	-0.82884
O	-2.745428	-0.63764	-2.106194
N	-0.100209	1.302138	-2.105331
O	0.718602	2.013575	-1.543936
O	-0.631172	1.502981	-3.193029
N	-0.527925	-1.178927	0.738169
O	0.193236	-1.686656	1.590183
O	-1.673793	-1.569174	0.476488
F	2.508022	0.0	0.0
