16

C	0.0	0.0	0.0
C	-0.394857	0.152049	-1.462255
F	1.443115	0.0	0.0
H	-1.488299	0.239049	-1.459013
H	0.030535	1.101891	-1.810963
N	-0.406125	1.09971	0.839094
H	-1.43512	1.038417	0.825927
H	-0.15087	1.969251	0.380728
N	-0.477197	-1.240273	0.518054
H	-1.500825	-1.175811	0.378625
H	-0.328742	-1.20293	1.523317
C	0.070947	-0.996301	-2.347916
H	-0.197363	-0.815576	-3.394508
H	1.154716	-1.119453	-2.282692
H	-0.393421	-1.929109	-2.026989
H	-3.083353	0.0	0.0
