16

C	0.0	0.0	0.0
C	-0.415619	0.023512	-1.469931
F	1.397741	0.0	0.0
H	-1.511103	0.055802	-1.467333
H	-0.035071	0.960776	-1.889787
N	-0.476585	1.196717	0.624719
H	-1.495933	1.168886	0.461652
H	-0.358934	1.058249	1.626212
N	-0.421953	-1.162233	0.749742
H	-0.136943	-2.005129	0.262127
H	-1.449692	-1.11033	0.716227
C	0.0994	-1.163586	-2.273789
H	-0.360633	-2.098404	-1.940235
H	1.184621	-1.261491	-2.185616
H	-0.146806	-1.047435	-3.333808
H	-3.135022	0.0	0.0
