16
Coordinates from ORCA-job run
  C   -0.53101733500868     -0.10422349869059     -0.50878192322792
  C   0.99087817616861      0.07803999085980     -0.34170141992823
  Br  -0.76313920659383     -0.52126611707043     -2.43026466629501
  H   1.51597612152455     -0.78279869235640     -0.75595395580571
  C   -1.02271977362250     -1.31189022836700      0.28084530093479
  H   -0.44980557565507     -2.21367001725615      0.05551556878532
  H   -2.07025076741812     -1.49836344394093      0.03844026182603
  H   -0.95311727676425     -1.10006230646697      1.35205726027765
  N   -1.19625988436171      1.13635166152397     -0.25135854158488
  H   -0.90250372835306      1.52680900075077      0.63730281218684
  H   -2.20178115224850      1.01944032266564     -0.26313650994230
  N   1.32007480502454      0.06420764451459      1.13807895156391
  O   0.94478081800300      1.02678323655569      1.80251103365358
  O   1.89076639934562     -0.93518970491709      1.55988691530140
  C   1.48732122164902      1.31805032042534     -0.92538155616081
  N   1.94079715831038      2.29678183176976     -1.38905953158466
