16
Coordinates from ORCA-job run
  C   -0.51001977979545     -0.24828152333399     -0.20604658521030
  C   0.75282371252859      0.52738775170213      0.22756980914583
  Br  0.15868526083192     -1.83034314673187     -1.28638145953441
  H   0.41079328812249      1.48903238749631      0.62674119553006
  C   -1.22247574677441     -0.82722620759205      1.00507248337398
  H   -2.12746887919992     -1.34135306689477      0.67517828600536
  H   -1.51010881296042     -0.01048440060796      1.67346882920387
  H   -0.59985950628222     -1.54187856150687      1.54010925678161
  N   -1.37960547221555      0.60238936605218     -0.91895257485688
  H   -2.22710181211152      0.11966811845333     -1.18793605270290
  H   -0.94445872968689      1.02766096685861     -1.72710767336017
  N   1.63708649574179      0.88707241827767     -0.95307799034385
  O   2.78384661015737      0.46665332033133     -0.96841816881228
  O   1.10804409238890      1.59551774705449     -1.80485745731292
  C   1.53988293056259     -0.18239726417559      1.22542533264627
  N   2.12893634869272     -0.73141790538294      2.08021276944673
