16
Coordinates from ORCA-job run
  C   -0.57352685377996      0.00132917907697     -0.43074649660472
  C   0.82738493830926      0.63405994301875     -0.23878827995758
  Br  -0.71134667171429     -0.52491040700009     -2.31053027243873
  H   0.93081863560258      1.45083389298141     -0.95328234589094
  C   -0.83283016467916     -1.21916300530656      0.43795956839898
  H   -0.15512273824036     -2.04265714988716      0.21972582033648
  H   -0.71860795811189     -0.94590865786085      1.49157623197706
  H   -1.85882436939917     -1.55251174859427      0.27154997034718
  N   -1.49493118134796      1.10750138198522     -0.22700658059764
  H   -2.39333100678893      0.88858444960408     -0.64152868021636
  H   -1.63520216253318      1.24417396099778      0.77064051978781
  N   1.95388959628603     -0.32858914875073     -0.51485404841476
  O   2.56815585953787     -0.15690712702401     -1.56167657362104
  O   2.15549315362553     -1.20422863463637      0.32155032226497
  C   0.95173122889932      1.12360649605775      1.13061440543345
  N   0.98524969433430      1.52278657533811      2.23479643919586
