16
Coordinates from ORCA-job run
  C   -0.58046233544119     -0.18414732583275     -0.46667039671596
  C   0.96546799547408      0.03048349950564     -0.35263447894201
  Br  -0.82959075749983     -0.68648192341046     -2.35418753532653
  H   1.50632979219080     -0.83750012306923     -0.73053888702940
  C   -1.01746843735156     -1.33827052068899      0.41732391657533
  H   -0.41035153874543     -2.22792361187680      0.24587756587685
  H   -2.06193432759180     -1.56328726183413      0.20567881117829
  H   -0.93335833878297     -1.05394687248531      1.47096661883402
  N   -1.39066941419184      0.96442798899367     -0.21750392719200
  H   -1.13705986373414      1.74730933879026     -0.80937974864260
  H   -1.31830266322980      1.24481451453067      0.75422370609978
  N   1.31286424806474      0.12320010896330      1.11297001466432
  O   0.94118388986947      1.13036803996384      1.70968271009273
  O   1.87868745854754     -0.84941671536033      1.60168370104757
  C   1.38609993813375      1.25240539382802     -1.02098448382293
  N   1.68756435428818      2.24796546998260     -1.56650758669747
