16
Coordinates from ORCA-job run
  C   -0.64017059703545     -0.08998076633838     -0.41252193542170
  C   0.74638410972724      0.60703317130117     -0.25878940608747
  Br  -0.73773363707081     -0.68864260777695     -2.28101970610603
  H   0.81402425611838      1.42428366062561     -0.97988811514665
  C   -0.82792836763837     -1.28116516265041      0.50683928649524
  H   -1.83453831578993     -1.66936274454330      0.35154086447082
  H   -0.72409591075627     -0.96569887366035      1.54975563060928
  H   -0.10078488946613     -2.06553171563738      0.31200101959100
  N   -1.70668495049618      0.84643887816462     -0.20233844454471
  H   -1.80026826889610      1.08070130698644      0.77955886855353
  H   -1.61040412419172      1.68779698735443     -0.75764703432421
  N   1.92235424392723     -0.29045642139670     -0.56144969313104
  O   2.52605126175549     -0.06143041801969     -1.60329327431806
  O   2.16711979623518     -1.17474644682434      0.25327571279495
  C   0.88096269705296      1.11233069872414      1.10362697610613
  N   0.92471269652446      1.52843045369110      2.20134925045890
