16
Coordinates from ORCA-job run
  C   -0.65572818509821      0.03217136460276     -0.34722362867292
  C   0.82545725184607      0.43908770797141     -0.47938075932268
  Br  -1.45035540753161      0.51595390614309     -2.09598680962128
  H   1.25011785837444      0.00468315718014     -1.38456281935128
  C   -0.79118975104408     -1.47798383827733     -0.18990262771283
  H   -0.40350342729395     -1.77862578884372      0.78813601413433
  H   -0.25794508418455     -2.02386837479531     -0.97082838343429
  H   -1.84654989744064     -1.75167836395452     -0.23632718338612
  N   -1.28945544708501      0.83432860758048      0.65367353365123
  H   -0.75573136522487      0.82566943955984      1.51589092544842
  H   -2.23566635280832      0.51941810521725      0.82769868202108
  N   1.60346909728577     -0.18850717554503      0.66033467096328
  O   1.39034880565548      0.24835245342085      1.78849240089025
  O   2.34629606292914     -1.11811097495078      0.36641250231997
  C   1.02857861989989      1.88227807634943     -0.45231894835082
  N   1.24185722172039      3.03683169834143     -0.44410756957633
