16
Coordinates from ORCA-job run
  C   -0.61005525218885     -0.07107413036366     -0.41756221194220
  C   0.91205232254451      0.16148350051408     -0.49597672499350
  Br  -1.16769888675549     -0.28108526867984     -2.30614190600408
  H   1.37732528788836     -0.62266575636608     -1.09348866746716
  C   -0.92261529596593     -1.38118602003778      0.29631653590081
  H   -0.67016850510553     -1.28759331733014      1.35684844694598
  H   -1.99123804733236     -1.58795347618390      0.21797403596432
  H   -0.37521103767745     -2.22431577933435     -0.12991676187786
  N   -1.25116298094785      1.10054262481276      0.09583477291793
  H   -0.81327616583341      1.40425370539193      0.95863793190265
  H   -2.23909642325369      0.93889854332402      0.24647578819432
  N   1.49868671087793     -0.00213088749759      0.89220674982725
  O   2.16170500782752     -1.01437624972531      1.08766163569279
  O   1.22206066995369      0.86179734917862      1.72047768963014
  C   1.26527407790303      1.48034072897756     -1.00648955735529
  N   1.60441851806549      2.52406443331971     -1.42385775733614
