16
Coordinates from ORCA-job run
  C   -0.54498767695067     -0.16377182609959     -0.20265299640460
  C   0.82235015422371      0.40508658396243      0.23382839306430
  Br  -0.12603942656383     -1.73601865976481     -1.41546000832222
  H   0.62476497685459      1.37061858444527      0.71318187908643
  C   -1.29190909209202     -0.73204516401539      0.99261082783262
  H   -2.26635650294797     -1.09888947067816      0.66407464580025
  H   -1.44891255367486      0.06460235754342      1.72549509646060
  H   -0.75389344649110     -1.55837779616205      1.45334385599262
  N   -1.31430631044548      0.84360257067430     -0.82038495621468
  H   -0.85129760057666      1.26651579870612     -1.61417178936615
  H   -2.22606398617115      0.49631997034630     -1.08832656342524
  N   1.71091917826703      0.73266027476583     -0.95296663114151
  O   1.25659711823709      1.56737858008206     -1.73024484290642
  O   2.78933137414290      0.16632704998293     -1.04443562692225
  C   1.53742134624915     -0.47387984393415      1.14781917508732
  N   2.08238244793929     -1.15012900985451      1.93828954137894
