16
Coordinates from ORCA-job run
  C   -0.63873425668144     -0.10208353542004     -0.41196010390832
  C   0.72340184269541      0.63885009632022     -0.24665740639981
  Br  -0.72469480853612     -0.65570532543138     -2.29511274204121
  H   0.75886410480962      1.47523674840248     -0.94779810868343
  C   -0.78010236901868     -1.32228028909377      0.47708231712932
  H   -0.68248209857942     -1.03007272016883      1.52735448931256
  H   -1.77319819388786     -1.74161422366073      0.31587899994608
  H   -0.02664504641882     -2.07509982935681      0.25924032058667
  N   -1.73582303492056      0.79089423187371     -0.17337944115103
  H   -1.67275871911176      1.64849165442385     -0.70810822396987
  H   -1.83320404723230      0.99667204207680      0.81442554558629
  N   1.92900461807265     -0.20874392706150     -0.57543943058590
  O   2.52016946169314      0.06700180087077     -1.61303651367670
  O   2.20820131193456     -1.10368049288203      0.21644591394716
  C   0.84743033962356      1.11483143331358      1.12726466632533
  N   0.88257089555802      1.50530233579367      2.23479971758280
