16
Coordinates from ORCA-job run
  C   -0.63785554970473     -0.07361764543015     -0.41970339346310
  C   0.75586754771027      0.60199143871404     -0.24087154671710
  Br  -0.72741271036399     -0.63206261961112     -2.30123853568185
  H   0.84041003773163      1.43196977628533     -0.94546743106393
  C   -0.84840801924113     -1.28104988141284      0.47304583773288
  H   -0.74889306212177     -0.98852019830022      1.52306079677521
  H   -0.12974165355116     -2.07049684541345      0.26759977917911
  H   -1.85865051893813     -1.65283878120274      0.30198748641679
  N   -1.69385267645220      0.87207026773553     -0.19871650777893
  H   -1.58260408317442      1.72329922474326     -0.73579038947031
  H   -1.79321952727573      1.08687999204271      0.78699805506913
  N   1.92344615834739     -0.30429699904271     -0.55018709210530
  O   2.53976343762493     -0.06324510906379     -1.58182218483597
  O   2.14961176468658     -1.20696614461838      0.24973448833881
  C   0.88616789644764      1.07947896363478      1.13202408937526
  N   0.92837095827483      1.47540456093974      2.23734654822930
