16
Coordinates from ORCA-job run
  C   -0.54331678329509     -0.19035158898839     -0.17900688813704
  C   0.81738800241539      0.44024554493391      0.18846266188432
  Br  -0.10894883055526     -1.83233660988241     -1.28944984465379
  H   0.60361233352550      1.43165791644906      0.60380833268073
  C   -1.25317003850532     -0.69186930987751      1.06762716230974
  H   -2.22583596138223     -1.09968811471451      0.78539180146464
  H   -1.41303032629909      0.14905839316305      1.74858022650336
  H   -0.68773538306539     -1.47377212440389      1.57099028338196
  N   -1.34822259942794      0.75387871906878     -0.84869791575713
  H   -0.90767415083906      1.13619583174751     -1.67519126233733
  H   -2.25475551822879      0.36793785838938     -1.07838671216534
  N   1.67346889788611      0.70642625298403     -1.03648397648935
  O   1.18236101973911      1.47386280667122     -1.85944018793346
  O   2.75863458139678      0.15155635884143     -1.11759564351226
  C   1.57216653413080     -0.35522288753603      1.14573442032546
  N   2.13705822250448     -0.96857904684560      1.97265754243552
