16
Coordinates from ORCA-job run
  C   -0.54353649238206     -0.18869372895080     -0.18289242597210
  C   0.81683614478333      0.43754952963525      0.19280941287198
  Br  -0.10752091740640     -1.82488818433722     -1.30020609332571
  H   0.60402535785304      1.42721992012289      0.61282557294853
  C   -1.25846271477982     -0.69556408046164      1.05870807437933
  H   -1.42219682635482      0.14256977006081      1.74215368384579
  H   -2.22931725213163     -1.10350777132773      0.77044391060074
  H   -0.69478721552693     -1.47899355764945      1.56170213550603
  N   -1.34559984121413      0.76047765641239     -0.84995426378730
  H   -2.25283407883052      0.37651358282978     -1.08066063164656
  H   -0.90397773390615      1.14127220917656     -1.67662439491350
  N   1.67900786436226      0.70796407491286     -1.02712062548332
  O   1.19297883012391      1.47839322609878     -1.85016352057870
  O   2.77016579818619      0.16332489880259     -1.09819850492529
  C   1.56632980195799     -0.36459874742030      1.14889134024703
  N   2.12788927526577     -0.97903879790471      1.97728633023306
