16
Coordinates from ORCA-job run
  C   -0.57277529816966     -0.00253410688602     -0.43516594448842
  C   0.81395337408471      0.65109664282269     -0.21730991061657
  Br  -0.68408129450992     -0.49205536672301     -2.32682908075693
  H   0.90849958238382      1.48430497501929     -0.91393325890060
  C   -0.81785379441049     -1.24497222106955      0.40586146369636
  H   -0.71673181861901     -0.99130573198927      1.46581000121698
  H   -1.83648915556297     -1.59262601951868      0.22424319237855
  H   -0.12375935393378     -2.05171984121012      0.17685363593004
  N   -1.51573024949858      1.08272522529389     -0.21741472613125
  H   -1.66709960180652      1.19630398307019      0.78158697497839
  H   -2.40651724133758      0.85600024278317     -0.64402057899328
  N   1.96105359773636     -0.28483512762782     -0.50175766989685
  O   2.16878983223953     -1.17494961301871      0.31751928462863
  O   2.58300072848858     -0.07905474838741     -1.53758890833903
  C   0.92158287400680      1.11800192241855      1.16124091664578
  N   0.98515781890870      1.52561978502275      2.26090460864813
