19

C	-0.493364	-0.009826	-1.446989
C	0.0	0.0	0.0
Cl	0.103797	1.522536	-2.210151
H	1.088083	0.0	0.0
C	0.194109	-1.141938	-2.203037
H	0.01935	-1.004654	-3.273613
H	1.266163	-1.12215	-1.992281
H	-0.208852	-2.108648	-1.898274
C	-2.004396	-0.069896	-1.603988
H	-2.480709	0.792835	-1.145248
H	-2.380903	-0.980166	-1.127341
H	-2.258715	-0.104041	-2.666808
N	-0.397552	-1.240777	0.690435
O	0.251738	-2.253026	0.404996
O	-1.33813	-1.211203	1.497394
N	-0.437408	1.112159	0.856725
O	-1.242662	1.956863	0.448505
O	0.125182	1.149508	1.954473
H	2.479543	0.0	0.0
