19

C	-0.523608	-0.025172	-1.440049
C	0.0	0.0	0.0
Cl	-0.049899	1.570942	-2.162519
H	1.088264	0.0	0.0
C	0.227427	-1.089247	-2.229844
H	1.298181	-0.993016	-2.034639
H	0.031421	-0.953687	-3.296324
H	-0.107008	-2.078231	-1.920113
C	-2.033395	-0.134173	-1.575664
H	-2.531404	0.699151	-1.08123
H	-2.369808	-1.067963	-1.12557
H	-2.298937	-0.126325	-2.636334
N	-0.369806	-1.134549	0.820011
O	-0.769341	-2.186787	0.287809
O	-0.07628	-1.032215	2.021971
N	-0.451492	1.214004	0.748427
O	-1.621618	1.222607	1.143944
O	0.354157	2.124949	0.905182
H	2.48791	0.0	0.0
