19

C	-0.459654	0.003115	-1.442454
C	0.0	0.0	0.0
Cl	-2.260508	0.300986	-1.575052
H	1.090015	0.0	0.0
C	0.248422	1.108789	-2.212091
H	0.014619	1.003158	-3.274737
H	1.325832	1.000112	-2.043613
H	-0.055566	2.096853	-1.876704
C	-0.132804	-1.33892	-2.083473
H	0.930766	-1.543035	-1.912731
H	-0.320926	-1.279215	-3.157923
H	-0.733296	-2.140666	-1.66241
N	-0.422494	-1.153309	0.82496
O	-1.353638	-1.879979	0.466906
O	0.239632	-1.314468	1.849946
N	-0.39853	1.210975	0.748907
O	0.140933	2.260547	0.392964
O	-1.205812	1.110914	1.675047
H	2.527311	0.0	0.0
