19

C	-0.367825	0.044923	-1.469728
C	0.0	0.0	0.0
Cl	-2.170531	0.003779	-1.738854
H	1.090015	0.0	0.0
C	0.214288	1.310203	-2.084931
H	1.276007	1.344403	-1.810678
H	-0.287911	2.201954	-1.720991
H	0.119787	1.26022	-3.17216
C	0.234846	-1.165736	-2.170843
H	-0.243329	-2.095018	-1.868981
H	1.297718	-1.211548	-1.909844
H	0.115716	-1.041304	-3.24993
N	-0.459514	-1.223281	0.689102
O	-1.435937	-1.15464	1.439186
O	0.177926	-2.250825	0.451524
N	-0.40598	1.140325	0.838706
O	0.069765	1.125751	1.975723
O	-1.102138	2.050374	0.378036
H	2.519744	0.0	0.0
