19

C	-0.368886	0.040961	-1.469272
C	0.0	0.0	0.0
Cl	-2.171316	-0.025836	-1.738211
H	1.089993	0.0	0.0
C	0.194174	1.316886	-2.081075
H	0.097766	1.27001	-3.168018
H	1.256006	1.365103	-1.809881
H	-0.319998	2.20039	-1.713152
C	0.251585	-1.158687	-2.174439
H	1.313081	-1.193413	-1.906319
H	-0.217014	-2.095734	-1.88131
H	0.138572	-1.028179	-3.25321
N	-0.456181	-1.220661	0.694397
O	0.171349	-2.251751	0.444353
O	-1.417642	-1.147062	1.464283
N	-0.409475	1.143015	0.834672
O	-1.136344	2.032703	0.380573
O	0.088896	1.148194	1.962999
H	2.518056	0.0	0.0
