14

C	-0.362837	0.026025	-1.482752
C	0.0	0.0	0.0
Br	-0.077862	-1.787725	-2.245932
H	1.101257	0.0	0.0
H	-0.324496	0.97377	0.391831
C	-1.778246	0.329644	-1.714459
N	-2.901285	0.63225	-1.885805
N	0.486291	0.937251	-2.22034
H	1.438794	0.775524	-1.872562
H	0.228212	1.882925	-1.951055
N	-0.661114	-1.062473	0.752291
H	-0.639535	-0.804278	1.732285
H	-0.080978	-1.891081	0.67022
H	2.959404	0.0	0.0
