14

C	-0.616136	-0.003567	-1.393228
C	0.0	0.0	0.0
Br	0.217096	1.539244	-2.453837
H	1.094719	0.0	0.0
H	-0.354718	-0.919215	0.480351
C	-0.269701	-1.195054	-2.166731
N	-0.069489	-2.171667	-2.788501
N	-2.023161	0.1398	-1.307141
H	-2.185291	0.892673	-0.642075
H	-2.436532	0.353653	-2.205636
N	-0.524794	1.172654	0.724073
H	0.213624	1.870719	0.697537
H	-0.632821	0.916923	1.697683
H	2.907864	0.0	0.0
