14

C	-0.576849	-0.007862	-1.412827
C	0.0	0.0	0.0
Br	-0.078232	-1.723826	-2.293909
H	1.091901	0.0	0.0
H	-0.357614	-0.890332	0.528267
C	-2.0494	-0.047596	-1.347655
N	-3.222194	-0.009895	-1.263694
N	-0.08153	1.093665	-2.162479
H	0.030183	1.86584	-1.512289
H	-0.697708	1.348264	-2.92318
N	-0.383994	1.266122	0.631998
H	-1.193752	1.16512	1.228288
H	0.405671	1.566757	1.192141
H	2.909339	0.0	0.0
