14

C	-0.263188	-0.070405	-1.490755
C	0.0	0.0	0.0
Br	-2.176522	-0.727952	-1.868659
H	1.102089	0.0	0.0
H	-0.323679	-0.94597	0.441723
C	-0.263797	1.261717	-2.114209
N	-0.18966	2.274813	-2.706791
N	0.667412	-0.981765	-2.053622
H	0.753739	-0.869016	-3.054424
H	1.581328	-0.835409	-1.591166
N	-0.56886	1.174974	0.633584
H	0.191965	1.738293	0.993547
H	-1.162307	0.9162	1.407813
H	2.844544	0.0	0.0
