18

C	-0.434516	-0.025266	-1.461548
C	0.0	0.0	0.0
Br	-2.394164	-0.158029	-1.672995
H	1.098103	0.0	0.0
C	-0.042623	1.172736	-2.195209
N	0.176274	2.178534	-2.761979
N	0.17893	-1.236619	-2.183978
O	-0.344967	-2.325616	-1.999418
O	1.181218	-1.004414	-2.845039
C	-0.446767	-1.218564	0.799521
H	-0.028847	-1.120712	1.804196
H	-1.535607	-1.284613	0.877712
H	-0.066412	-2.148491	0.378806
C	-0.447792	1.295592	0.67234
H	-0.012229	1.323186	1.673515
H	-1.537465	1.354123	0.761456
H	-0.083831	2.174755	0.137438
Cl	3.328477	0.0	0.0
