18

C	-0.516437	-0.006164	-1.444558
C	0.0	0.0	0.0
Br	0.144426	-1.520138	-2.463702
H	1.108731	0.0	0.0
C	-1.977121	-0.045249	-1.493032
N	-3.151321	-0.113671	-1.466434
N	-0.087	1.289509	-2.170604
O	-0.826972	2.25027	-1.964998
O	0.934904	1.282545	-2.832316
C	-0.470255	-1.253931	0.735866
H	-0.102736	-2.163321	0.260949
H	-1.562544	-1.302071	0.809809
H	-0.0568	-1.225496	1.746301
C	-0.458278	1.250391	0.753694
H	-0.021507	2.161189	0.345311
H	-0.104661	1.157307	1.783427
H	-1.548246	1.355661	0.767678
Cl	3.375115	0.0	0.0
