18

C	-0.420751	-0.012743	-1.474318
C	0.0	0.0	0.0
Br	0.419591	1.410094	-2.489596
H	1.096367	0.0	0.0
C	-0.111885	-1.269458	-2.147448
N	0.130894	-2.28122	-2.695076
N	-1.950575	0.163214	-1.542418
O	-2.602506	-0.875993	-1.461716
O	-2.406166	1.297372	-1.566367
C	-0.454636	-1.265528	0.725705
H	-0.025027	-1.242402	1.730018
H	-0.084111	-2.167367	0.235204
H	-1.543307	-1.332624	0.813236
C	-0.468287	1.251834	0.73418
H	-1.548086	1.248095	0.916289
H	0.044908	1.281668	1.698015
H	-0.208272	2.162958	0.194667
Cl	3.352234	0.0	0.0
