16

C	-0.513537	-0.000414	-1.410816
C	0.0	0.0	0.0
Br	-2.418407	0.363376	-1.525628
H	1.094553	0.0	0.0
H	-0.31803	0.93948	0.456435
N	0.135927	1.071384	-2.283438
O	0.13947	0.863979	-3.489818
O	0.525648	2.071764	-1.702066
N	-0.192928	-1.339286	-2.068623
O	-1.090514	-2.159322	-2.206645
O	0.994254	-1.488909	-2.320338
C	-0.488252	-1.202293	0.801135
H	-1.577211	-1.292673	0.81277
H	-0.060868	-2.128456	0.410765
H	-0.132783	-1.096248	1.827719
Br	3.548117	0.0	0.0
