16

C	-0.513557	0.071306	-1.409414
C	0.0	0.0	0.0
Br	-2.405633	0.489426	-1.494502
H	1.08922	0.0	0.0
H	-0.309911	0.927654	0.486723
N	0.188923	1.177222	-2.209297
O	0.489801	0.91743	-3.365692
O	0.338563	2.235551	-1.623455
N	-0.227245	-1.217814	-2.179945
O	0.916714	-1.623531	-2.03117
O	-1.103429	-1.716716	-2.874058
C	-0.512145	-1.214714	0.764312
H	-1.602933	-1.245223	0.828082
H	-0.105753	-1.176651	1.77654
H	-0.151558	-2.140255	0.311596
Br	3.570662	0.0	0.0
