16

C	-0.471898	0.113694	-1.429701
C	0.0	0.0	0.0
Br	-2.295924	0.736631	-1.622035
H	1.092517	0.0	0.0
H	-0.323185	-0.980796	0.361377
N	0.390303	1.086772	-2.247206
O	0.56801	2.184875	-1.743413
O	0.791595	0.695553	-3.333774
N	-0.323607	-1.23659	-2.148632
O	0.697254	-1.841685	-1.850287
O	-1.172638	-1.581113	-2.95904
C	-0.463821	1.090066	0.960768
H	0.072135	0.943072	1.900224
H	-0.207877	2.078969	0.584988
H	-1.536168	1.047775	1.159678
Br	3.526398	0.0	0.0
