16

C	-0.504042	-0.046219	-1.413523
C	0.0	0.0	0.0
Br	-2.395702	0.382026	-1.544316
H	1.095315	0.0	0.0
H	-0.307055	0.971146	0.39492
N	0.221245	0.989619	-2.282198
O	0.652863	0.608501	-3.361565
O	0.265574	2.119462	-1.820933
N	-0.238629	-1.393007	-2.089485
O	0.838163	-1.893243	-1.790018
O	-1.058651	-1.831744	-2.88413
C	-0.524025	-1.132888	0.872058
H	-0.140375	-2.094975	0.529853
H	-1.61644	-1.167806	0.903994
H	-0.153457	-0.983052	1.887718
Br	3.550209	0.0	0.0
