14

C	-0.381289	-0.07548	-1.479715
C	0.0	0.0	0.0
Cl	-2.125265	-0.314447	-1.731941
H	1.094925	0.0	0.0
H	0.148091	-0.907685	-1.93753
N	0.055064	1.148663	-2.244185
O	-0.589014	2.179511	-2.085203
O	1.052719	1.006538	-2.945443
N	-0.362223	-1.19969	0.736719
H	-1.236159	-1.599944	0.419686
H	0.393315	-1.868057	0.653193
C	-0.561369	1.18192	0.654468
N	-1.033173	2.098065	1.217522
Cl	3.219329	0.0	0.0
