14

C	-0.591606	-0.017935	-1.400572
C	0.0	0.0	0.0
Cl	0.064201	1.25079	-2.435915
H	1.095308	0.0	0.0
H	-1.675653	0.075865	-1.375223
N	-0.343234	-1.350615	-2.059035
O	0.67053	-1.96319	-1.760654
O	-1.196053	-1.70131	-2.873045
N	-0.513773	-1.192585	0.695576
H	-0.914141	-0.939433	1.58923
H	0.284677	-1.793426	0.869882
C	-0.458574	1.222991	0.660537
N	-0.852895	2.167963	1.236296
Cl	3.289661	0.0	0.0
