14

C	-0.45771	-0.056054	-1.447327
C	0.0	0.0	0.0
Cl	-2.225065	-0.17278	-1.597239
H	1.09377	0.0	0.0
H	-0.014833	-0.928561	-1.919885
N	0.015653	1.139825	-2.234782
O	-0.469008	2.229501	-1.952061
O	0.866311	0.917251	-3.090968
N	-0.376605	-1.264833	0.630876
H	0.37519	-1.535649	1.253418
H	-1.231333	-1.167839	1.1632
C	-0.508818	1.167874	0.720999
N	-0.951071	2.032007	1.384464
Cl	3.223479	0.0	0.0
