14

C	-0.504068	0.229883	-1.416851
C	0.0	0.0	0.0
Cl	-2.252378	-0.030033	-1.554865
H	1.09315	0.0	0.0
H	0.002753	-0.460237	-2.084468
N	-0.17928	1.614423	-1.913049
O	0.779873	1.688005	-2.675894
O	-0.867305	2.548428	-1.513266
N	-0.362511	-1.366167	0.374076
H	-1.246124	-1.38993	0.865263
H	0.364597	-1.726232	0.978648
C	-0.506024	1.001199	0.945797
N	-0.937286	1.717299	1.771884
Cl	3.223614	0.0	0.0
