15

C	0.0	0.0	0.0
C	-0.505778	0.3395	-1.399352
F	1.414657	0.0	0.0
H	-0.23862	-0.4844	-2.067438
H	-1.605761	0.373347	-1.260925
C	-0.408481	1.068056	1.00177
H	-1.500938	1.06752	1.001655
H	-0.004373	2.046788	0.726711
H	-0.016667	0.795923	1.987595
N	-0.513271	-1.305977	0.30111
H	-0.309538	-1.494918	1.279519
H	-1.539729	-1.125403	0.240709
C	0.03051	1.585605	-1.9247
N	0.457999	2.586625	-2.366615
F	-2.887872	0.0	0.0
