15

C	0.0	0.0	0.0
C	-0.494378	0.044358	-1.454489
F	1.395192	0.0	0.0
H	-1.596274	0.0839	-1.319179
H	-0.21359	-0.888556	-1.957601
C	-0.437	1.244493	0.749746
H	0.000982	2.135365	0.293443
H	-0.084417	1.155568	1.779741
H	-1.528483	1.262841	0.713164
N	-0.516852	-1.152251	0.678822
H	-1.541291	-0.970004	0.630733
H	-0.333429	-1.97424	0.106565
C	0.014762	1.165303	-2.232469
N	0.427743	2.06791	-2.862367
F	-2.899417	0.0	0.0
