15

C	0.0	0.0	0.0
C	-0.517434	-0.084062	-1.435579
F	1.389507	0.0	0.0
H	-1.618553	-0.026314	-1.304064
H	-0.235943	-1.058222	-1.844861
C	-0.425487	1.309256	0.650082
H	-0.023703	2.171952	0.11089
H	-1.517836	1.299735	0.640819
H	-0.043585	1.33255	1.676264
N	-0.51611	-1.165264	0.667753
H	-1.541626	-1.00944	0.563707
H	-0.306491	-1.065076	1.658014
C	-0.004636	0.972095	-2.296673
N	0.403098	1.822237	-2.997546
F	-2.899575	0.0	0.0
