15

C	0.0	0.0	0.0
C	-0.281229	0.17951	-1.508365
F	1.396132	0.0	0.0
H	0.021252	-0.766017	-1.969854
H	0.42246	0.942865	-1.856185
C	-0.432186	1.198467	0.826524
H	-0.071011	1.064852	1.852976
H	-0.014458	2.129934	0.430087
H	-1.525273	1.188859	0.792316
N	-0.536517	-1.248428	0.436296
H	-1.563429	-1.04491	0.297873
H	-0.400569	-1.299478	1.444089
C	-1.595062	0.55525	-2.048304
N	-2.421381	0.92645	-2.798567
F	-2.805838	0.0	0.0
