15

C	0.0	0.0	0.0
C	-0.607529	-0.067487	-1.390557
F	1.417307	0.0	0.0
H	-0.376674	0.837321	-1.964948
H	-1.714213	-0.108702	-1.119027
C	-0.526939	1.216907	0.714639
H	-0.154285	1.237007	1.744575
H	-0.194892	2.127894	0.206175
H	-1.624213	1.09182	0.66961
N	-0.379898	-1.202076	0.700764
H	0.223751	-1.957793	0.389753
H	-0.247298	-1.065982	1.69585
C	-0.165779	-1.235414	-2.132607
N	0.194715	-2.188611	-2.717178
F	-2.977688	0.0	0.0
