16

C	-0.275864	0.050839	-1.487978
C	0.0	0.0	0.0
Cl	-0.164058	-1.669589	-2.18198
H	1.092394	0.0	0.0
H	-0.388263	-0.917788	0.436413
N	-1.727625	0.400276	-1.825683
O	-1.931673	1.050279	-2.847181
O	-2.592939	-0.022875	-1.067053
N	0.567561	0.966291	-2.109462
H	0.487593	0.968528	-3.11572
H	1.528303	0.827932	-1.795578
C	-0.485462	1.243103	0.739115
H	-1.573117	1.268257	0.835137
H	-0.04753	1.24976	1.739855
H	-0.149732	2.146098	0.226524
Cl	3.436955	0.0	0.0
