16

C	-0.560422	-0.034731	-1.411221
C	0.0	0.0	0.0
Cl	0.020337	1.332876	-2.362764
H	1.094991	0.0	0.0
H	-0.327928	-0.929641	0.476983
N	-0.092974	-1.346614	-2.067982
O	-0.559461	-2.345678	-1.521329
O	0.6393	-1.338069	-3.041628
N	-2.002318	-0.090756	-1.54296
H	-2.38394	0.811514	-1.290167
H	-2.346825	-0.787348	-0.890815
C	-0.490019	1.198451	0.804416
H	-0.05214	1.15141	1.803253
H	-0.160686	2.134407	0.350788
H	-1.579332	1.221354	0.91439
Cl	3.465074	0.0	0.0
