16

C	-0.466109	0.040914	-1.429446
C	0.0	0.0	0.0
Cl	-2.36847	0.249313	-1.433791
H	1.091704	0.0	0.0
H	-0.350062	0.903607	0.496682
N	-0.074967	1.343304	-2.135439
O	0.140599	2.324201	-1.441702
O	-0.052482	1.305472	-3.361177
N	-0.035894	-1.005029	-2.208615
H	-0.047047	-1.902818	-1.75921
H	-0.349642	-0.992594	-3.164501
C	-0.470342	-1.247405	0.743483
H	0.019165	-2.148042	0.362623
H	-1.553357	-1.380679	0.70018
H	-0.170978	-1.162887	1.78988
Cl	3.476581	0.0	0.0
