16

C	-0.542936	-0.026763	-1.407025
C	0.0	0.0	0.0
Cl	0.331582	1.20887	-2.42029
H	1.092459	0.0	0.0
H	-0.339275	-0.916126	0.489725
N	-0.253489	-1.36257	-2.1043
O	-0.758854	-1.499697	-3.216397
O	0.410404	-2.199003	-1.509965
N	-1.955044	0.101199	-1.477306
H	-2.238264	0.972048	-1.04853
H	-2.247922	0.091884	-2.446926
C	-0.480493	1.22314	0.778492
H	0.062906	1.268126	1.723561
H	-0.258075	2.145829	0.237771
H	-1.550185	1.187866	1.008904
Cl	3.519015	0.0	0.0
