16

C	-0.275649	0.268086	-1.464412
C	0.0	0.0	0.0
Cl	-0.142116	-1.328011	-2.403759
H	1.094798	0.0	0.0
H	-0.386308	-0.97365	0.295903
N	-1.731826	0.6454	-1.754042
O	-2.59303	0.122137	-1.055668
O	-1.941823	1.415453	-2.687131
N	0.555929	1.278048	-1.942354
H	0.474292	1.42644	-2.938208
H	1.519131	1.104631	-1.654856
C	-0.487434	1.118896	0.915569
H	-0.156408	2.089028	0.541665
H	-1.574702	1.125093	1.016642
H	-0.047544	0.979702	1.905691
Cl	3.435721	0.0	0.0
