15

C	0.0	0.0	0.0
C	-0.373504	-0.203759	-1.525608
Cl	1.79407	0.0	0.0
H	0.554953	-0.321769	-2.090832
H	-0.305034	-0.899112	0.535322
N	-0.533214	1.123363	0.691987
H	-0.412857	1.965628	0.139648
H	-1.540493	0.958967	0.783544
C	-0.976965	1.009781	-2.076039
N	-1.344512	2.012217	-2.565903
C	-1.210508	-1.462912	-1.760723
H	-0.647417	-2.328827	-1.398331
H	-2.163866	-1.385888	-1.239802
H	-1.394324	-1.598112	-2.829628
Br	-3.864455	0.0	0.0
