15

C	0.0	0.0	0.0
C	-0.382104	0.712674	-1.312426
Cl	1.78094	0.0	0.0
H	0.228182	0.24124	-2.090145
H	-0.28027	-1.055639	-0.102485
N	-0.543755	0.669681	1.14234
H	-1.548606	0.773472	1.005085
H	-0.413402	0.100329	1.969724
C	0.035628	2.118602	-1.264369
N	0.346641	3.250091	-1.289473
C	-1.850074	0.58981	-1.711878
H	-1.981224	0.987216	-2.721352
H	-2.165802	-0.453977	-1.704413
H	-2.533081	1.111918	-1.046814
Br	-4.74951	0.0	0.0
