15

C	0.0	0.0	0.0
C	-0.408223	-0.149151	-1.503526
Cl	1.786774	0.0	0.0
H	0.516799	-0.130087	-2.086714
H	-0.279754	-0.920562	0.522147
N	-0.508187	1.202949	0.584406
H	-0.327987	1.183843	1.582673
H	-1.526033	1.164777	0.461235
C	-1.160859	0.993527	-2.032191
N	-1.629491	1.908117	-2.600347
C	-1.087537	-1.49221	-1.784632
H	-1.287211	-1.594884	-2.854327
H	-2.028749	-1.553028	-1.240169
H	-0.418597	-2.303426	-1.480505
Br	-3.732172	0.0	0.0
