15

C	0.0	0.0	0.0
C	-0.36285	0.328152	-1.472921
Cl	1.795418	0.0	0.0
H	0.263427	-0.305476	-2.110213
H	-0.302069	-1.03084	0.19262
N	-0.556391	0.833186	1.009317
H	-0.480106	1.812355	0.759216
H	-1.539448	0.600218	1.131157
C	0.009355	1.716238	-1.759289
N	0.271031	2.840072	-1.979274
C	-1.831594	0.080481	-1.796985
H	-2.513187	0.682323	-1.200987
H	-2.020811	0.284675	-2.853188
H	-2.095263	-0.957889	-1.590389
Br	-4.739952	0.0	0.0
