15

C	0.0	0.0	0.0
C	-0.503324	-0.105925	-1.457716
Cl	1.788174	0.0	0.0
H	-1.589933	-0.246238	-1.345263
H	-0.301572	-0.911921	0.517514
N	-0.500148	1.111955	0.749748
H	-1.514182	0.984748	0.812973
H	-0.317708	1.977307	0.255782
C	0.041632	-1.289008	-2.119931
N	0.476206	-2.229667	-2.674073
C	-0.252435	1.1462	-2.29655
H	-0.824307	1.980676	-1.887798
H	-0.59706	0.984921	-3.319623
H	0.808528	1.404899	-2.322198
Br	-3.712928	0.0	0.0
