15

C	0.0	0.0	0.0
C	-0.398137	-0.276156	-1.460729
Cl	1.783327	0.0	0.0
H	0.186318	-1.150843	-1.766412
H	-0.277821	-0.880924	0.592235
N	-0.534093	1.245544	0.465023
H	-0.339901	1.355705	1.45375
H	-1.547859	1.215877	0.356646
C	0.037683	0.829054	-2.322821
N	0.365821	1.674234	-3.068565
C	-1.879532	-0.582331	-1.668967
H	-2.537775	0.254568	-1.448756
H	-2.042348	-0.876912	-2.708943
H	-2.203421	-1.398386	-1.022172
Br	-4.815107	0.0	0.0
