16
Coordinates from ORCA-job run
  C   -0.45294488127145     -0.55438796744121     -0.25261097218657
  C   0.25842108046320      0.62238811915028      0.44901870764670
  Br  0.92596056777848     -1.99777334554604     -0.58632961484684
  H   -0.51935121129690      1.39581854290192      0.50758116401190
  N   -0.89378473649517     -0.12748095768810     -1.56012886261648
  H   -0.92113569492359     -0.90003202945711     -2.21144623272550
  H   -1.82621090290074      0.26173491153027     -1.46316403238286
  N   -1.52641905591190     -1.01371024961285      0.55255119426230
  H   -1.22920567568493     -1.28945163550392      1.48192387930437
  H   -2.00381090452225     -1.79094432182006      0.11219094914144
  C   1.45994295579238      1.18568611525849     -0.30650261377102
  H   1.75243626717750      2.14205007480906      0.13110808288530
  H   1.18048077787377      1.33556495792930     -1.34843115068295
  H   2.30912972455269      0.50590424879315     -0.25569223821797
  C   0.60809186763128      0.26314800454884      1.82381463746968
  N   0.87939982173764     -0.03851446785202      2.92611710270850
