16
Coordinates from ORCA-job run
  C   -0.56548296241582     -0.54264360383574     -0.16598157826792
  C   0.26237616680496      0.46995045083932      0.64196588360850
  Br  -2.42566773602645      0.54394146650670     -0.50390533692949
  H   -0.35410468821371      0.79578511782819      1.48623402313668
  N   -0.85940279924244     -1.68293580979587      0.58239217865828
  H   -1.26664798740919     -1.45586412851981      1.47917048971931
  H   -1.46509136376423     -2.33022166006301      0.09435001770373
  N   0.01550887705935     -0.85010516134622     -1.39699040660235
  H   0.04194195080121     -0.05654286810431     -2.02096664499928
  H   -0.42723078629146     -1.63304701790380     -1.85997530128895
  C   0.71497388224902      1.69563277218912     -0.15399405345913
  H   1.41917220209574      1.40704027746676     -0.93620795747755
  H   -0.14428603025255      2.20240380277622     -0.59261544389605
  H   1.22809696417070      2.39161114270811      0.51132980780292
  C   1.43813423436514     -0.22393825514113      1.18428956800154
  N   2.38871007606972     -0.73106652560453      1.65090475428977
