16
Coordinates from ORCA-job run
  C   -0.67113291352334     -0.39557969390426     -0.16762718610462
  C   0.30829941697870      0.50785532628268      0.61443616338070
  Br  -2.25210306775371      0.75798810524659     -0.68677763680757
  H   -0.18486231368993      0.81077602904545      1.54609979080088
  N   -1.06901007452126     -1.47833365483500      0.65830787328800
  H   -1.70619000198185     -2.09911979493369      0.17430042315342
  H   -1.49564722491596     -1.17179589273920      1.52461636276032
  N   -0.07857380222914     -0.81527223466937     -1.40970197260195
  H   -0.78213697007822     -1.13122247959423     -2.06473380859331
  H   0.56274066580291     -1.57842169336017     -1.21281885158557
  C   0.78217751068860      1.74571648369062     -0.14879422384935
  H   -0.03761216967967      2.45012912186124     -0.27982243047271
  H   1.58168965582966      2.23811772034160      0.40759536606661
  H   1.15580729369765      1.44817476700278     -1.12783328792368
  C   1.46591552096463     -0.32391921084507      0.96570057715063
  N   2.42063847441093     -0.96409289858996      1.20605284133820
