16

C	0.0	0.0	0.0
C	-0.415031	-0.344349	-1.421933
F	1.393856	0.0	0.0
H	-0.052147	0.494311	-2.041406
H	-0.278967	-0.822644	0.669714
N	-0.466154	1.289355	0.403842
H	-1.40055	1.443355	0.045785
H	-0.521994	1.341712	1.412458
C	-1.915135	-0.495622	-1.582354
H	-2.151596	-0.86474	-2.585984
H	-2.472928	0.430421	-1.450006
H	-2.33057	-1.196934	-0.86027
N	0.238667	-1.614674	-1.757661
H	1.241666	-1.477253	-1.768837
H	-0.04857	-1.891164	-2.689008
Br	-5.078444	0.0	0.0
