16

C	0.0	0.0	0.0
C	-0.444717	0.12014	-1.452989
F	1.42084	0.0	0.0
H	-1.53794	0.072341	-1.422266
H	-0.313835	-0.952441	0.431298
N	-0.484342	1.061655	0.791581
H	-0.378606	0.890671	1.779044
H	-0.048731	1.934921	0.535158
C	0.109889	-1.02004	-2.294068
H	1.202636	-0.987992	-2.321574
H	-0.197662	-1.988595	-1.888447
H	-0.266579	-0.931965	-3.314416
N	-0.063271	1.401634	-2.055634
H	0.890943	1.625243	-1.792704
H	-0.675165	2.127942	-1.705207
Br	-4.147491	0.0	0.0
