16

C	0.0	0.0	0.0
C	-0.432107	0.316874	-1.446443
F	1.412314	0.0	0.0
H	0.500347	0.235358	-2.016014
H	-0.264232	-1.042907	0.2089
N	-0.474165	0.937233	0.970896
H	-0.32825	0.548472	1.895924
H	-1.482717	1.014442	0.844253
C	-0.979704	1.73257	-1.639146
H	-1.958264	1.834953	-1.166275
H	-1.10739	1.91965	-2.711393
H	-0.296118	2.482729	-1.230886
N	-1.311965	-0.752902	-1.923829
H	-2.194378	-0.689828	-1.413143
H	-1.539158	-0.565861	-2.89527
Br	-4.071244	0.0	0.0
