16

C	0.0	0.0	0.0
C	-0.420311	0.281279	-1.436895
F	1.415563	0.0	0.0
H	-1.512449	0.33218	-1.401492
H	-0.320485	-0.999758	0.30388
N	-0.461763	0.952266	0.953411
H	-0.449209	1.85565	0.489332
H	-1.441074	0.73231	1.130874
C	0.013553	-0.829771	-2.387661
H	-0.316143	-0.613762	-3.409034
H	-0.424992	-1.787324	-2.090897
H	1.103054	-0.931177	-2.386739
N	0.08662	1.609812	-1.797161
H	-0.3776	1.931548	-2.636944
H	1.078993	1.542892	-1.990891
Br	-3.827428	0.0	0.0
