15

C	-0.554046	0.115964	-1.403771
C	0.0	0.0	0.0
Br	0.389763	1.440433	-2.461098
H	1.093981	0.0	0.0
H	-1.607656	0.387693	-1.450968
N	-0.477495	-1.198444	-2.13592
O	0.617517	-1.718403	-2.283646
O	-1.557204	-1.659942	-2.507802
C	-0.547555	-1.189873	0.621994
N	-1.00455	-2.146936	1.13207
C	-0.349596	1.244691	0.820668
H	0.009558	1.097197	1.840592
H	0.192469	2.09579	0.4073
H	-1.423068	1.466304	0.8473
F	2.511729	0.0	0.0
