15

C	-0.286315	0.030756	-1.478244
C	0.0	0.0	0.0
Br	-0.001728	-1.662617	-2.361247
H	1.096233	0.0	0.0
H	0.375024	0.753647	-1.951826
N	-1.688798	0.498284	-1.779281
O	-1.787883	1.625544	-2.270528
O	-2.627524	-0.215462	-1.443983
C	-0.58716	-1.11697	0.705247
N	-1.037842	-1.997951	1.341933
C	-0.364785	1.339113	0.645182
H	0.001664	1.333116	1.673111
H	-1.439288	1.550016	0.651525
H	0.159625	2.138628	0.117072
F	2.516255	0.0	0.0
