19

C	0.0	0.0	0.0
C	-0.430928	0.055838	-1.491073
Br	1.97929	0.0	0.0
H	0.281544	-0.581818	-2.026251
C	-0.596174	1.086856	0.875827
H	-0.300553	0.949713	1.916968
H	-1.687875	1.010943	0.802637
H	-0.272947	2.07213	0.540167
C	-0.312259	-1.321516	0.553306
N	-0.52215	-2.388441	1.000693
C	-0.326907	1.47296	-2.046895
H	-0.439819	1.438865	-3.133291
H	-1.131841	2.098043	-1.656005
H	0.635609	1.93967	-1.821583
C	-1.828395	-0.516705	-1.711194
H	-1.869936	-1.576579	-1.454165
H	-2.07185	-0.423223	-2.773515
H	-2.618918	-0.026723	-1.1394
Cl	-4.748586	0.0	0.0
