19

C	0.0	0.0	0.0
C	-0.570419	-0.024835	-1.426714
Br	1.977361	0.0	0.0
H	-1.652778	-0.108084	-1.23988
C	-0.498167	1.178682	0.824158
H	-1.593324	1.150761	0.786103
H	-0.124309	2.116199	0.411213
H	-0.160192	1.091185	1.858318
C	-0.329117	-1.255197	0.687013
N	-0.532699	-2.272296	1.239734
C	-0.116195	-1.235448	-2.234372
H	-0.283249	-2.167815	-1.690288
H	-0.695959	-1.284939	-3.16021
H	0.944078	-1.16854	-2.496286
C	-0.316109	1.27312	-2.185406
H	0.753929	1.490907	-2.264745
H	-0.719064	1.177483	-3.197249
H	-0.820805	2.11964	-1.717664
Cl	-3.796825	0.0	0.0
