17

C	0.0	0.0	0.0
C	-0.47568	0.254855	-1.45304
Br	1.955933	0.0	0.0
H	0.378196	0.147644	-2.130357
H	-0.28897	0.870067	0.584022
C	-0.448726	-1.242433	0.752194
H	-0.092755	-1.160612	1.784309
H	-0.0525	-2.152437	0.3075
H	-1.543149	-1.195609	0.70904
C	-1.095568	1.632919	-1.569616
H	-1.999969	1.569842	-0.956768
H	-1.336915	1.877547	-2.604598
H	-0.386822	2.373164	-1.183798
N	-1.414462	-0.786063	-2.013052
O	-1.122728	-1.96433	-1.819845
O	-2.289391	-0.412468	-2.783753
F	-2.709969	0.0	0.0
