17

C	0.0	0.0	0.0
C	-0.476151	0.092773	-1.471935
Br	1.956201	0.0	0.0
H	0.377435	-0.089933	-2.134456
H	-0.290078	0.92934	0.483595
C	-0.449389	-1.149729	0.885663
H	-1.543629	-1.109322	0.835807
H	-0.05187	-2.104165	0.547647
H	-0.096684	-0.952303	1.903357
C	-1.095382	1.449344	-1.739693
H	-0.383837	2.22644	-1.439818
H	-1.998716	1.456814	-1.121872
H	-1.337985	1.578871	-2.794863
N	-1.415119	-1.004269	-1.910251
O	-1.120232	-2.152792	-1.586257
O	-2.290245	-0.721648	-2.71836
F	-2.708804	0.0	0.0
