17

C	0.0	0.0	0.0
C	-0.300198	0.090856	-1.524172
Br	1.958292	0.0	0.0
H	0.424237	0.78528	-1.94935
H	-0.264543	0.983733	0.394742
C	-0.702271	-1.057053	0.807168
H	-0.440782	-2.065352	0.491257
H	-0.459812	-0.932292	1.866208
H	-1.783716	-0.855603	0.643151
C	-1.697996	0.49721	-1.95241
H	-2.503687	-0.004184	-1.375526
H	-1.766335	0.38586	-3.040505
H	-1.818869	1.557125	-1.710557
N	0.049763	-1.19393	-2.219852
O	0.878441	-1.132565	-3.132731
O	-0.542182	-2.219645	-1.889626
F	-3.388633	0.0	0.0
