15
Coordinates from ORCA-job run
  C   -1.02230851649666     -0.32843153042114     -0.32739028372141
  C   0.30295834774899      0.37223970848754     -0.04505932413959
  F   -0.76111370705903     -1.71535595222119     -0.21849237810444
  H   0.12482890576618      1.43810867612267     -0.23281929296982
  H   -1.32791178087755     -0.17603568016369     -1.36681409050645
  N   -2.04765799310206      0.03933168720256      0.56694321789570
  H   -1.68664403562863      0.50515120257423      1.38625845414353
  H   -2.83092135609123      0.50608823329510      0.14475269073069
  C   1.41998476110719     -0.12216491945684     -0.95799763376675
  H   1.61174048091608     -1.18113349093949     -0.77887321428138
  H   1.15842517581120      0.00232202073720     -2.01346961652906
  H   2.34155173550105      0.43599495041856     -0.77161673175206
  N   0.57215132641412      0.23144098660656      1.38618808834066
  H   1.40933116546722      0.74261960504368      1.63689950459537
  H   0.73558549052316     -0.74817549728575      1.59149061006502
