15
Coordinates from ORCA-job run
  C   -1.06199755120022      0.39993790596970     -0.34291210375714
  C   0.43664367034129      0.49273664256051     -0.07128677616729
  F   -1.26020399431247      0.50677294487821     -1.71910841320183
  H   0.76671625018236      1.45540085851042     -0.48920338816256
  H   -1.57464884469154      1.28109756923817      0.07414160101315
  N   -1.57389399042312     -0.84997266650219      0.11193610757853
  H   -1.13233442795870     -1.06519873217590      0.99818233855909
  H   -2.57694906702102     -0.81756597871725      0.23249080826647
  C   1.19895104707682     -0.62471131586605     -0.76434076472141
  H   2.27631258335687     -0.47686989540856     -0.64434963662729
  H   0.92651579235415     -1.59350460497923     -0.34564364541685
  H   0.96995896450050     -0.63303771043096     -1.82954576448778
  N   0.63101120219588      0.40112505250180      1.37935359291191
  H   1.61198776774905      0.25312469203364      1.58327130956630
  H   0.36093059785016      1.27066523838770      1.82601473464670
