15
Coordinates from ORCA-job run
  C   -1.01903401392373     -0.14717379674396     -0.38591567798710
  C   0.35340698903520      0.40913651134836     -0.03761988156868
  F   -0.94631212771094     -1.55700799279740     -0.16936382301552
  H   0.29006368126522      1.49197512927204     -0.18557859931131
  H   -1.24202801313843     -0.04289212964020     -1.45084826820682
  N   -2.02023873110025      0.46499310600206      0.39164892023183
  H   -2.91897571640625      0.02118736761356      0.26272703732735
  H   -1.74218011222202      0.44202544216348      1.36521119591278
  C   1.43710887190806     -0.17180784923258     -0.93977963939058
  H   2.41384301605607      0.24500805955008     -0.68115856453286
  H   1.24241918308633      0.05236739310690     -1.99304228998519
  H   1.48122959867881     -1.25675068579986     -0.82510107718281
  N   0.56071941019911      0.17586857102109      1.39324802716733
  H   0.73481119950766     -0.81191051241226      1.54052051374172
  H   1.37416676476517      0.68498138654868      1.71505212679987
