15
Coordinates from ORCA-job run
  C   -0.93989011773029     -0.20942738438722     -0.22106094864964
  C   0.46249626912125      0.36143537659253     -0.02882778744590
  F   -0.90687650217168     -1.57681047496051      0.03325943930668
  H   0.38574931951716      1.44756761323422     -0.18007905928520
  H   -1.26374785489519     -0.11684104666533     -1.26878042640585
  N   -1.85240845708727      0.36467726226892      0.73641630648894
  H   -2.77396463641090     -0.03857423271828      0.61689290214619
  H   -1.92316083110993      1.36346009939681      0.58271409085648
  C   1.42541279079825     -0.20734879668759     -1.05868331474064
  H   1.10872404193846      0.02924597935034     -2.07751879914413
  H   2.42228762030860      0.20319204261075     -0.89490775591105
  H   1.47786583583032     -1.29474827047158     -0.96398914992142
  N   0.98510592751725      0.13708971612752      1.31334494327381
  H   1.12333239489688     -0.86142648511123      1.43088931285976
  H   0.26807419947709      0.40050860142064      1.98133024657197
