15
Coordinates from ORCA-job run
  C   -1.02782986143981     -0.01627410026432     -0.44088604379501
  C   0.39621937665206      0.36720085113003     -0.05030172983340
  F   -1.08684625026935     -1.41918005550052     -0.61190867396478
  H   0.46942646236007      1.44825971828657     -0.23142045008654
  H   -1.28448174674538      0.40343313860002     -1.41846770838123
  N   -1.94202473077852      0.43283516379880      0.53945492128427
  H   -1.69770181231347     -0.01659589240735      1.41483965757786
  H   -2.89092371698195      0.18765889747376      0.28928793635561
  C   1.41532112207664     -0.35678451447436     -0.91470564841869
  H   1.19584287224885     -0.22985929572364     -1.97717654195686
  H   2.42114957726350      0.02639956353652     -0.72489653146210
  H   1.39223451207696     -1.42487552132896     -0.69386613913437
  N   0.59686377887219      0.05573827742341      1.36944881123566
  H   0.53482449620934      0.89587797032674      1.92818802006443
  H   1.50792592076888     -0.35383420087668      1.52341012051515
