15
Coordinates from ORCA-job run
  C   -0.95521918956897     -0.07508711913128     -0.34345798990706
  C   0.47442142408251      0.38724433402920     -0.07814786684614
  F   -0.97161909155486     -1.48802052846991     -0.19467390859017
  H   0.48333165712555      1.46752480495809     -0.25707361500924
  H   -1.24126378564806      0.11238901779598     -1.38202324668843
  N   -1.89137950199638      0.54770862508046      0.51752188088059
  H   -2.83467573533198      0.25636463856560      0.29792009398986
  H   -1.69641755198266      0.30045359995847      1.47896159891507
  C   1.44680438586102     -0.28945667034634     -1.03369562275836
  H   1.47024855232098     -1.36573655945026     -0.85296298076356
  H   1.15711207742876     -0.12762509811803     -2.07556012711938
  H   2.44887382435340      0.11069443334571     -0.87788074509347
  N   0.92006255815401      0.16974628151399      1.29462126370348
  H   0.74479228462728     -0.79098273537280      1.56493288652688
  H   0.44492809212941      0.78578297564113      1.94151837875993
