15
Coordinates from ORCA-job run
  C   -1.07777892405849      0.45500596857641     -0.13927477833445
  C   0.43361541877111      0.60510949942200     -0.07954955107395
  F   -1.46535616262444      0.53286701396951     -1.49513302500702
  H   0.66469925046588      1.53057935780786     -0.61771876568622
  H   -1.54411961483128      1.30200964627460      0.36655458813702
  N   -1.51484787586059     -0.75263977158453      0.46784281103505
  H   -1.24512460041672     -1.55005748568707     -0.09396026456302
  H   -2.52030018839017     -0.76170866973993      0.57496880259532
  C   1.15469575178400     -0.55391643187017     -0.76709658368624
  H   1.02629663538624     -1.48197230445164     -0.20295328684526
  H   2.22726642524505     -0.34981463288104     -0.81714009164095
  H   0.79096029704028     -0.70081138551060     -1.78712766700841
  N   0.78000747000015      0.80964764189255      1.32285055584204
  H   0.50809101202129     -0.01535878096299      1.84541213556627
  H   1.78089510546769      0.93006033474505      1.42032512066980
