15
Coordinates from ORCA-job run
  C   -0.99557901345057      0.46486896185186     -0.09626478268146
  C   0.52935891669039      0.54072692712365     -0.10102729936695
  F   -1.44335106123252      0.62770964327244     -1.42792923641328
  H   0.78864307897199      1.46599817983754     -0.62600886679266
  H   -1.41052018585503      1.31110935438156      0.45955908852970
  N   -1.47016443966028     -0.74076176618832      0.48234271905560
  H   -2.47493707918168     -0.71986038835138      0.59513690377547
  H   -1.22836519401685     -1.53391470560121     -0.09761640499613
  C   1.15286436643558     -0.63180188050949     -0.84501034815634
  H   1.03445380929494     -1.55973408772074     -0.27822891759056
  H   0.70564112092540     -0.75673577284648     -1.83315311722696
  H   2.22314333177027     -0.45802342033357     -0.95857815662598
  N   1.08746524931161      0.61738162679094      1.24525788581369
  H   0.82772761762493      1.49602672739890      1.67942818118775
  H   0.67361948237182     -0.12298939910569      1.80209235148811
