15
Coordinates from ORCA-job run
  C   -1.10093533340941      0.50986032251391     -0.25621731216331
  C   0.41748802496124      0.51143865316837     -0.06277836889087
  F   -1.34858083644745      0.68405213290331     -1.60974676056238
  H   0.79191986802534      1.43838714248131     -0.52454049498802
  H   -1.52950488710072      1.37320390389090      0.26770832150563
  N   -1.80355678290247     -0.66737171839047      0.17051774110534
  H   -1.55065028501799     -0.84500105997433      1.13623776176493
  H   -1.49526347114581     -1.45820349259097     -0.38342874155903
  C   1.08131609325952     -0.67217541578559     -0.74383999351659
  H   0.77850613896555     -0.73362713079522     -1.79007663507015
  H   0.81827241425009     -1.60302065635128     -0.23703486931421
  H   2.16939108820287     -0.57079333729131     -0.71310985567042
  N   0.65800139231640      0.45166243339232      1.38150606791915
  H   0.48402648191481      1.35767401144647      1.80225978389240
  H   1.62857009412802      0.22391421138258      1.56054335554753
