14

C	-0.453181	-0.081368	-1.454132
C	0.0	0.0	0.0
Cl	-0.353661	1.589591	-2.162431
H	1.092084	0.0	0.0
H	-0.327456	-0.911714	0.514518
H	-0.399696	0.86798	0.526297
N	0.413217	-0.918893	-2.267605
H	0.35198	-1.861659	-1.892488
H	1.375141	-0.622428	-2.101077
C	-1.890944	-0.542383	-1.612366
H	-2.567591	0.108322	-1.055396
H	-1.987998	-1.560936	-1.220985
H	-2.169191	-0.54065	-2.667012
Br	3.715313	0.0	0.0
