17
Coordinates from ORCA-job run
  C   -0.85072950624463      0.11888399313230     -0.39807566649393
  C   0.67919275940000      0.20425358611567     -0.33735460229212
  H   -1.18231451788168      0.71335079931089     -1.25250115759879
  H   1.07829857478568     -0.21154237520776     -1.27013777313028
  C   -1.43282212808865      0.72169944202567      0.80403098728900
  N   -1.89329354635349      1.17262067297170      1.78568745292623
  C   -1.33655913720320     -1.32486640902981     -0.56854325077821
  H   -1.12517508506847     -1.92861454311614      0.31414189725900
  H   -0.85326265733108     -1.78356440056094     -1.43468424280485
  H   -2.41497660736470     -1.33644604195444     -0.73348901916942
  C   1.30659677381531     -0.47376385205147      0.86322717981151
  H   0.94454003159375     -0.02715771797085      1.79134261042578
  H   2.38969071661227     -0.37635467338246      0.83410292145486
  H   1.05617906336922     -1.53560640854501      0.86130634498246
  N   1.09941827137923      1.66522795303840     -0.39078374584882
  O   0.35718990209934      2.44403547382936     -0.98290591569157
  O   2.17802709248111      1.95884450139488      0.11363597965913
