17
Coordinates from ORCA-job run
  C   -0.73120075670940     -0.18089512977515     -0.58570312470460
  C   0.68826729773495      0.38686968589474     -0.36664640229996
  H   -0.62528174117283     -0.97455036318027     -1.33535095131327
  H   0.92451699844731      1.08988360590567     -1.16813395622352
  C   -1.62042370910060      0.83062216695453     -1.16435092694782
  N   -2.35619747946173      1.61585960645755     -1.63422051194634
  C   -1.36055340335326     -0.77477549936194      0.68041571900575
  H   -1.57660996164900      0.00654995538821      1.41045197866575
  H   -0.69596234667262     -1.50650609935120      1.14111956109968
  H   -2.29878025229570     -1.27000905752036      0.42601451859421
  C   1.74967450302381     -0.68699340758955     -0.25296824184024
  H   1.84136175896867     -1.19848438492399     -1.21396782372408
  H   2.71621848229765     -0.24539311115447     -0.00707018620559
  H   1.50881082391218     -1.41611382556102      0.51888791234120
  N   0.64383995070806      1.23433424477942      0.87393669846334
  O   1.03795080342471      0.73429002645280      1.92564682868488
  O   0.15536903189778      2.35531158658503      0.74993890835062
