17
Coordinates from ORCA-job run
  C   -0.76176525657218     -0.21519039320267     -0.55046685400387
  C   0.66618626678345      0.36554331869393     -0.42475510616936
  H   -0.69258822981177     -1.04147041279487     -1.26669813945410
  H   0.87264420770295      1.01301831226184     -1.27918771905975
  C   -1.67289419012262      0.77986202345088     -1.12526378298595
  N   -2.40449046092655      1.58386168394012     -1.56908739695754
  C   -1.31644991623356     -0.74014562469515      0.77937712391716
  H   -0.63086072063757     -1.45713517418748      1.23198810726596
  H   -1.47380448101904      0.08087964215140      1.47878852449944
  H   -2.27610990470275     -1.23132219513688      0.61442658629886
  C   1.72582982386572     -0.71161953641085     -0.29054113832450
  H   1.86717852055409     -1.19203174303742     -1.26216747448885
  H   1.45152958714338     -1.46673488151551      0.44520708814786
  H   2.67897529556604     -0.28139050051607      0.01867565133388
  N   0.66937677345705      1.28060885045800      0.76642218111223
  O   1.23837999971364      0.89180319795977      1.78473782339126
  O   0.05986268523972      2.34046343258097      0.64954452547727
