17
Coordinates from ORCA-job run
  C   -0.76670572716388     -0.16914962533952     -0.56898294840352
  C   0.67490273139240      0.35910586518321     -0.42445211504498
  H   -0.73425600839564     -0.86875412077317     -1.41402701870648
  H   0.93115846467040      0.91785684029123     -1.32646625111067
  C   -1.66724890133751      0.92161663294556     -0.95711064808327
  N   -2.40845068765240      1.78203570672159     -1.25609248930125
  C   -1.32278494709279     -0.90460567792067      0.65551736614910
  H   -2.32416780101373     -1.27526841817061      0.43023769213982
  H   -1.38429265554458     -0.24361592589947      1.51927585168690
  H   -0.69377199273181     -1.75704444490701      0.91331054082248
  C   1.69568373550609     -0.72540294971795     -0.14391750736893
  H   2.69973684218733     -0.29753239095640     -0.11736851308789
  H   1.66452252845836     -1.47259161535906     -0.94048408202002
  H   1.50919405876259     -1.21000039160433      0.81232970358349
  N   0.70880564712112      1.39107464333566      0.66751164889662
  O   0.63379303602583      2.56869682275526      0.32318349218343
  O   0.78388167680824      0.98457904941566      1.82653527766517
