14

C	-0.32086	0.083061	-1.508976
C	0.0	0.0	0.0
Br	0.085332	-1.641759	-2.347048
H	1.097186	0.0	0.0
H	-1.387268	0.231172	-1.699156
C	0.557566	1.159749	-2.1257
H	1.57747	0.977514	-1.776104
H	0.499196	1.146797	-3.214196
H	0.230006	2.141672	-1.767753
C	-0.566036	-1.152491	0.676148
N	-1.016592	-2.076866	1.246856
C	-0.459642	1.226162	0.637132
N	-0.831597	2.230866	1.123226
F	2.510648	0.0	0.0
