14

C	-0.313135	0.106055	-1.510187
C	0.0	0.0	0.0
Br	0.047029	-1.621362	-2.364593
H	1.097175	0.0	0.0
H	-1.374058	0.285441	-1.703974
C	0.598116	1.162994	-2.114133
H	0.542412	1.163938	-3.203344
H	1.612281	0.948334	-1.76258
H	0.299027	2.150478	-1.74611
C	-0.571905	-1.157365	0.661908
N	-1.029607	-2.086132	1.21965
C	-0.455253	1.221884	0.648508
N	-0.82386	2.22487	1.14074
F	2.513089	0.0	0.0
