14

C	-0.175848	0.000883	-1.514979
C	0.0	0.0	0.0
Br	-2.070972	-0.022359	-2.090657
H	1.099309	0.0	0.0
H	0.206878	0.957185	-1.874797
C	0.598476	-1.145309	-2.133365
H	0.617636	-1.064844	-3.221761
H	0.159881	-2.106773	-1.857125
H	1.607665	-1.063272	-1.714266
C	-0.491766	-1.213159	0.625956
N	-0.861029	-2.213879	1.120809
C	-0.520628	1.192468	0.638619
N	-0.915662	2.178925	1.141975
F	2.504096	0.0	0.0
