16

C	0.0	0.0	0.0
C	-0.656908	0.152726	-1.336536
F	1.359745	0.0	0.0
H	-1.753865	-0.103233	-1.149134
H	-0.639038	1.190291	-1.662001
C	-0.536498	1.026213	0.957689
H	-1.634579	0.905322	0.962492
H	-0.104168	0.860298	1.94509
H	-0.273419	2.02456	0.599829
N	-0.343594	-1.384307	0.59669
O	-1.062455	-2.149492	-0.028767
O	0.15442	-1.605759	1.700226
N	-0.046497	-0.625867	-2.426777
O	-0.274028	-0.226941	-3.572518
O	0.62327	-1.623718	-2.156194
H	-3.166782	0.0	0.0
