16

C	0.0	0.0	0.0
C	-0.540147	-0.127378	-1.416771
F	1.359789	0.0	0.0
H	-1.635593	-0.225748	-1.324428
H	-0.271394	0.759834	-1.991258
C	-0.443235	1.331262	0.572933
H	-1.520486	1.450437	0.436515
H	0.111727	2.126797	0.066101
H	-0.218857	1.349065	1.640447
N	-0.590208	-1.10387	0.766914
O	-1.758129	-0.753562	1.244364
O	-0.274319	-2.260489	0.38655
N	-0.013715	-1.278765	-2.193472
O	-0.807603	-2.144672	-2.557547
O	1.178783	-1.247111	-2.501414
H	-2.922717	0.0	0.0
