16

C	0.0	0.0	0.0
C	-0.172461	-0.305978	-1.524316
Br	1.98507	0.0	0.0
H	0.044172	0.586495	-2.11042
H	0.514619	-1.103936	-1.80002
C	-0.493164	1.380985	0.371145
H	-0.035222	2.145576	-0.258382
H	-1.58159	1.387134	0.24453
H	-0.251633	1.580373	1.416738
N	-0.522701	-0.97087	0.8944
H	-0.438754	-1.899876	0.498397
H	-1.527324	-0.777239	0.976167
N	-1.484032	-0.832202	-2.016389
O	-1.758536	-1.981271	-1.678592
O	-2.106262	-0.145362	-2.819334
Cl	-3.74	0.0	0.0
