16

C	0.0	0.0	0.0
C	-0.478664	0.203036	-1.442801
Br	1.969487	0.0	0.0
H	-0.227328	-0.666981	-2.047718
H	-1.566195	0.346135	-1.389796
C	-0.437803	1.104611	0.947364
H	-0.009974	2.063662	0.665579
H	-1.529168	1.168782	0.918711
H	-0.114735	0.83523	1.954268
N	-0.484537	-1.257441	0.506395
H	-0.31409	-1.994998	-0.16999
H	-1.499825	-1.148006	0.601811
N	0.110615	1.364634	-2.15905
O	-0.112464	2.490147	-1.715819
O	0.781998	1.129241	-3.165907
Cl	-3.664124	0.0	0.0
