16

C	0.0	0.0	0.0
C	-0.492821	0.022547	-1.446747
Br	1.962302	0.0	0.0
H	-1.579367	0.172014	-1.409663
H	-0.234523	-0.916962	-1.928084
C	-0.424305	1.214145	0.818239
H	-0.01707	2.142586	0.421799
H	-1.51651	1.252078	0.806342
H	-0.076475	1.083726	1.846957
N	-0.480423	-1.258777	0.525102
H	-0.260917	-1.294158	1.515991
H	-1.50371	-1.208943	0.453117
N	0.089999	1.099093	-2.284198
O	0.76236	0.756853	-3.25848
O	-0.145586	2.266429	-1.974802
Cl	-3.65572	0.0	0.0
