17

C	0.0	0.0	0.0
C	-0.559787	-0.114687	-1.422538
Cl	1.794999	0.0	0.0
H	-1.654056	-0.149819	-1.33482
N	-0.457543	1.276124	0.500304
H	-1.474561	1.189745	0.593731
H	-0.059684	1.422645	1.421764
N	-0.419971	-1.206454	0.671346
H	-1.442803	-1.196148	0.677962
H	-0.089328	-1.175591	1.629514
N	-0.118002	-1.361395	-2.120729
O	0.941187	-1.306943	-2.744376
O	-0.848752	-2.339155	-2.020308
N	-0.2405	1.004347	-2.365642
O	-0.983106	1.038821	-3.347882
O	0.70112	1.753954	-2.153038
Cl	-3.519355	0.0	0.0
