14

C	-0.501446	0.016569	-1.45968
C	0.0	0.0	0.0
Cl	0.28045	1.369478	-2.341311
H	1.094468	0.0	0.0
C	-0.180085	-1.236031	-2.152394
N	0.050621	-2.234226	-2.729126
C	-1.951637	0.232759	-1.498928
N	-3.114587	0.407684	-1.49057
C	-0.487496	-1.200951	0.65943
N	-0.887214	-2.152989	1.225984
N	-0.375043	1.231162	0.665278
H	-1.105998	1.095677	1.349898
H	0.462812	1.58395	1.121281
H	2.57068	0.0	0.0
