14

C	-0.455736	0.043509	-1.452807
C	0.0	0.0	0.0
Cl	-2.271854	0.175271	-1.585378
H	1.096041	0.0	0.0
C	0.102917	1.225432	-2.115336
N	0.545705	2.172218	-2.651382
C	-0.060668	-1.167175	-2.177377
N	0.238289	-2.134554	-2.773208
C	-0.490058	-1.200384	0.65455
N	-0.887666	-2.148471	1.228488
N	-0.333045	1.241838	0.665539
H	0.494697	1.530411	1.182773
H	-1.119646	1.147953	1.293252
H	2.540746	0.0	0.0
