14

C	-0.451413	0.026788	-1.45495
C	0.0	0.0	0.0
Cl	-2.267895	0.144946	-1.595086
H	1.096003	0.0	0.0
C	0.101004	1.206867	-2.126047
N	0.53377	2.153588	-2.670189
C	-0.045108	-1.187664	-2.166822
N	0.264544	-2.157968	-2.753052
C	-0.488853	-1.195096	0.665994
N	-0.882005	-2.138232	1.251055
N	-0.337175	1.247915	0.650972
H	0.488795	1.544271	1.166068
H	-1.124212	1.159767	1.278305
H	2.541598	0.0	0.0
