14

C	-0.455795	0.018092	-1.454698
C	0.0	0.0	0.0
Cl	-2.272323	0.075663	-1.593901
H	1.098948	0.0	0.0
C	0.055066	1.218554	-2.123823
N	0.412475	2.168909	-2.714148
C	-0.004237	-1.17875	-2.169719
N	0.339722	-2.132975	-2.763903
C	-0.479626	-1.194643	0.671532
N	-0.866668	-2.135261	1.264969
N	-0.339016	1.249241	0.651176
H	-1.081177	1.141701	1.330407
H	0.508315	1.57142	1.116796
H	2.537018	0.0	0.0
