12
Coordinates from ORCA-job run
  C   0.51316235376556     -0.00562316264933      0.66655239054781
  C   -0.53707362826674      0.47501608085310     -0.34378520180821
  Cl  1.33256548502026      1.35647382915901      1.40782027179849
  H   -0.02122364231723      1.09524390906808     -1.08543408213607
  H   0.08543945929197     -0.63892907143166      1.44193613362174
  N   1.52559121228684     -0.85249815880649     -0.06889325305105
  O   1.88592474632851     -1.87488801713194      0.50109238088443
  O   1.89966488403618     -0.43274591773290     -1.15778141397026
  C   -1.56472173135013      1.26946759985383      0.33306618636721
  N   -2.38652673958591      1.90579696262241      0.87866944804715
  C   -1.13700712087911     -0.67845643150848     -1.02295034672705
  N   -1.59679527833019     -1.62085762229563     -1.55129251357418
