12
Coordinates from ORCA-job run
  C   0.44967661817714     -0.65063906833607      0.28533742794418
  C   -0.68508910515098      0.37367073667861      0.15201008890451
  Cl  0.56582472045058     -1.24078235987099      1.93313661889135
  H   -0.48060037660865      1.18497259710532      0.85943801718608
  H   0.33356542970238     -1.49240808056635     -0.39541739511082
  N   1.74637689714079      0.02880431764747     -0.08976942687312
  O   1.91839649671262      1.15838591975927      0.35333947222011
  O   2.51054638971754     -0.62163908077920     -0.79187533560091
  C   -1.97111376191648     -0.24857231360104      0.47418072828412
  N   -2.99878115778837     -0.75295771987729      0.73397141813156
  C   -0.70074846530501      0.92059855822766     -1.20895489009499
  N   -0.68805368513155      1.34056649361257     -2.30539672388208
