12
Coordinates from ORCA-job run
  C   0.47169772615198     -0.29154186249377      0.75874105424980
  C   -0.89011467400896      0.05561476942168      0.14902886785412
  Cl  0.84775161169435      0.77808443846109      2.09867956258567
  H   -1.62434343209005     -0.10686887226846      0.94897818246978
  H   0.47657641610839     -1.31978964782665      1.12133357166138
  N   1.57965643424652     -0.21699257448231     -0.27102893962627
  O   1.34917143674490      0.40179664244279     -1.30368413324731
  O   2.61170244807291     -0.79843546651256      0.03479980264416
  C   -1.20351919121443     -0.87243986094568     -0.94231872611869
  N   -1.46077332972273     -1.66885649355355     -1.76558093168122
  C   -1.00343036989002      1.45560149996729     -0.26997855599803
  N   -1.15537507609283      2.58282742779021     -0.55896975479337
