12
Coordinates from ORCA-job run
  C   0.46308009176847     -0.45990271528465      0.57752744509451
  C   -0.64108308419285     -0.10356842413955     -0.43341618130479
  Cl  0.14140729412309      0.17123612919284      2.16485374220191
  H   -0.33701101284069     -0.52494321592693     -1.39896565119259
  H   0.58479579450066     -1.54244297485240      0.62491722235780
  N   1.77189401001313      0.06629418340022     -0.00934254195298
  O   2.39532853180300      0.92991176648085      0.58246513228699
  O   2.05876652365165     -0.46394664029134     -1.07833362539638
  C   -0.76572946836138      1.34982100901748     -0.57696066858300
  N   -0.84354762538360      2.51391265738126     -0.70760233750561
  C   -1.91076650126008     -0.71245625011232     -0.03245097665816
  N   -2.91713455382141     -1.22591552486548      0.28630844065229
