12
Coordinates from ORCA-job run
  C   0.46225648667597     -0.64727746446775      0.27678007780187
  C   -0.71655072209036      0.32215776177415      0.11552885319221
  Cl  0.47274499366739     -1.35256785193375      1.88245436133809
  H   -0.62143891288968      1.08656044151550      0.89486557019825
  H   0.45577804955276     -1.43982746377564     -0.46969997711175
  N   1.74152786466031      0.12928268737386      0.06636824987791
  O   2.59247390390912     -0.41364612621250     -0.62738649875429
  O   1.81426323636107      1.21991665647236      0.62029313368836
  C   -1.98618046874612     -0.38937212558688      0.27715401416206
  N   -3.00138057244544     -0.96204640769512      0.41643209189095
  C   -0.64831496952035      0.97078295069655     -1.19826523082796
  N   -0.56617888913469      1.47703694183916     -2.25452464545573
