12
Coordinates from ORCA-job run
  C   0.43818580481134     -0.64231958175130      0.31882114083147
  C   -0.68158306970337      0.38936427038878      0.12780842177850
  Cl  0.53170962817360     -1.15772347292538      1.99302602528223
  H   -0.47166723094839      1.23025853589899      0.79813542384675
  H   0.31702544224884     -1.51302195209833     -0.32358892726875
  N   1.74743682954649      0.00180161014726     -0.07424821618692
  O   1.92936973297477      1.14974148300340      0.31439903334131
  O   2.51099028615333     -0.69222687786468     -0.73401789733383
  C   -1.97832727302472     -0.20044877136757      0.46707137201332
  N   -3.01441302986693     -0.68002283902909      0.74012535116643
  C   -0.67801174535882      0.87261088009665     -1.25715196029310
  N   -0.64971537500614      1.24198671550123     -2.37137976717742
