12
Coordinates from ORCA-job run
  C   0.44008316284135     -0.66855794038696      0.25560035049271
  C   -0.69368698627308      0.35972589663031      0.14789351813361
  Cl  0.48320789515813     -1.38195824276242      1.85781847252709
  H   -0.52667381407608      1.11590702929005      0.92300573414586
  H   0.36036171182187     -1.45701790163886     -0.49103982198387
  N   1.74880141621854      0.04010076890205     -0.00599633140537
  O   2.55044391402739     -0.55604151629518     -0.71444183135971
  O   1.89186539406869      1.13555070958758      0.52451503514344
  C   -1.98913259500220     -0.28858599476976      0.36295123738292
  N   -3.02472097294994     -0.81354393802608      0.53612714956531
  C   -0.65083196432016      1.00809122361981     -1.16717892017960
  N   -0.59071716151447      1.50732990584952     -2.22825459246238
