12
Coordinates from ORCA-job run
  C   0.43989392925581     -0.08897972704156      0.70968316689180
  C   -0.49790511388059      0.51602420542112     -0.34347914060333
  Cl  1.17904440467737      1.16925513390139      1.68298700601934
  H   0.09500364745234      1.20491224843216     -0.95532414742200
  H   -0.06688782043283     -0.80114585331569      1.35892783232831
  N   1.52381066866558     -0.85960398962290     -0.00813706479018
  O   2.00937622385427     -0.32504459220431     -0.99828641135254
  O   1.82610047471205     -1.94174290125598      0.47919904403301
  C   -1.58647426770820      1.24883341494264      0.30661862142889
  N   -2.44676801836340      1.84783411698114      0.83493017377924
  C   -1.02928934827161     -0.54817938475228     -1.20187225695455
  N   -1.44690477996078     -1.42316267148575     -1.86424682335800
