12
Coordinates from ORCA-job run
  C   0.45050831833857     -0.62128988226774      0.34569110567902
  C   -0.67898233392205      0.39422228504448      0.12796608355749
  Cl  0.59808649599088     -1.03302340928479      2.04430035748292
  H   -0.45076009212603      1.27496955898161      0.73851824904201
  H   0.31311273098644     -1.52956551876878     -0.23878311133897
  N   1.74369881719191      0.00132882447587     -0.12731266085237
  O   1.93636206375916      1.16868459359415      0.19181256858962
  O   2.48552117374828     -0.72721176871500     -0.77469736568463
  C   -1.96207449492879     -0.17749519584956      0.54287245132668
  N   -2.99260829083053     -0.65109437867611      0.84600783154303
  C   -0.72214373807464      0.79323607789043     -1.28294339445981
  N   -0.71972065013326      1.10723881357540     -2.41443211488498
