12
Coordinates from ORCA-job run
  C   0.43751200546566     -0.63211908940966      0.36565488407972
  C   -0.66159176271357      0.08377592672487     -0.43511092334744
  Cl  0.16321997790830     -0.53890714173427      2.08312765873690
  H   -0.41112588038811     -0.01274659099835     -1.49651109041163
  H   0.49635545912394     -1.68098494421764      0.06654148308172
  N   1.78943665081346     -0.02948026059159     -0.03010633244510
  O   1.88973216417866      0.23698718891729     -1.22365220919814
  O   2.65302561838770      0.07334359032764      0.82276490985196
  C   -0.70376094308245      1.51015368620497     -0.10078678169197
  N   -0.71807191422565      2.65362607198902      0.16405202280284
  C   -1.95478068424454     -0.56025031073716     -0.19480648946660
  N   -2.97995069122340     -1.10539812647513     -0.02216713199225
