12
Coordinates from ORCA-job run
  C   0.40895200686860     -0.47640999467167      0.70175235521301
  C   -0.89640743988722      0.06560236397322      0.11058940977132
  Cl  0.74091251581425      0.25700935281864      2.26163416576475
  H   -1.68616447205031     -0.23011474298806      0.81365101395745
  H   0.34999310785480     -1.55747664298792      0.82987732068989
  N   1.58234440554170     -0.23894420354571     -0.22504343726660
  O   1.45380642832948      0.62159218139014     -1.08826478194077
  O   2.56118191519478     -0.94175429726551     -0.01289913132771
  C   -1.17122787662005     -0.58234122172424     -1.17583803616226
  N   -1.38275885832065     -1.14015859266264     -2.18689000777301
  C   -0.93115772747299      1.52711232464509      0.00580766070183
  N   -1.02947400525314      2.69588347301931     -0.03337653162808
