12
Coordinates from ORCA-job run
  C   0.51161070606626     -0.52414370842282      0.58974697237943
  C   -0.86684184484286      0.05563564857766      0.25664862810783
  Cl  1.09457024217698      0.09288270211337      2.12623888580452
  H   -1.53635555832061     -0.29352806438615      1.05373212164728
  H   0.46452524172302     -1.61194307395639      0.64589016661210
  N   1.52397042675670     -0.21513616942622     -0.49303511390487
  O   1.26076771150708      0.69797597064487     -1.26714012665553
  O   2.52400110494847     -0.91996678753683     -0.48419350475050
  C   -1.35100743491332     -0.49781363177896     -1.01200326097328
  N   -1.73427616363533     -0.99362552435335     -2.00467772670508
  C   -0.90411212071186      1.52076378412063      0.26566498644214
  N   -0.98785231075455      2.68989885440420      0.32312797199593
