12
Coordinates from ORCA-job run
  C   0.46432280921291     -0.62017844453391      0.33115178839288
  C   -0.71767697008358      0.32811767155590      0.08844675738963
  Cl  0.46751890218027     -1.19900069727644      1.98670690835476
  H   -0.63064188886692      1.15060285689957      0.80725009879274
  H   0.46602023080779     -1.46812282866311     -0.35182182256569
  N   1.74162782857098      0.14399720783417      0.06946906669197
  O   1.80445557581082      1.27601763572325      0.53468147486209
  O   2.59923860482432     -0.44618652288761     -0.57586706714738
  C   -1.98481691008821     -0.37611523073616      0.29548171135229
  N   -2.99770534749580     -0.94870173310298      0.45339783140224
  C   -0.64488039671530      0.87327088480842     -1.27136055726328
  N   -0.56546243815729      1.28729920037881     -2.36753619026228
