12
Coordinates from ORCA-job run
  C   0.55954001736376      0.23657214206322      0.57920196749978
  C   -0.59842111930245      0.30615590814500     -0.42498970044150
  Cl  1.31570774865294      1.80803973556228      0.76938777350073
  H   -0.19104342135816      0.67557719638548     -1.37258453982192
  H   0.24448495110948     -0.13532478030235      1.55286733732746
  N   1.58404242609689     -0.74381062294051      0.05630635155980
  O   1.82968320362408     -0.68926826365147     -1.14313733796620
  O   2.08230942387272     -1.49347720615513      0.88657669274558
  C   -1.63371194935969      1.22347106222308      0.05608784999645
  N   -2.45621525352456      1.96717833596833      0.44133976681941
  C   -1.15278668280603     -1.03579261724593     -0.63396748440813
  N   -1.58458934436903     -2.11932089005204     -0.76908867681144
