12
Coordinates from ORCA-job run
  C   0.44074057117416     -0.62419133530741      0.35033661981688
  C   -0.71434854320854      0.34355915226454      0.06088490739534
  Cl  0.38332355386636     -1.18379059483427      2.01177992604166
  H   -0.63272261501227      1.17459937225786      0.77027204229960
  H   0.44566799382148     -1.48032615798339     -0.32236139415597
  N   1.74188526944080      0.10930619194475      0.12009786468717
  O   2.61555980533572     -0.51756578938122     -0.46609787507668
  O   1.80704536960470      1.25409158064791      0.55262081551125
  C   -2.00082299889949     -0.33279836167882      0.24054070348490
  N   -3.02978868189342     -0.87874675703791      0.38620026437916
  C   -0.59048779445582      0.86794549584669     -1.30339904344090
  N   -0.46505192977369      1.26891720326127     -2.39987483094243
