12
Coordinates from ORCA-job run
  C   0.46279786540152     -0.62824336681571      0.31279685016064
  C   -0.72504891340646      0.31566234344991      0.08347091708859
  Cl  0.43381907648237     -1.28195452913645      1.94034257536216
  H   -0.66684305803113      1.10692845061344      0.83910635308839
  H   0.49165150545617     -1.44469383287291     -0.40702102835384
  N   1.73780506559112      0.15953019426490      0.11885251328032
  O   1.76831847064430      1.27920521381105      0.61606484000008
  O   2.62775627863250     -0.40365982018824     -0.50627214859044
  C   -1.98753550885575     -0.41233018993739      0.22836412591813
  N   -2.99676304164883     -1.00026687629154      0.34535332904147
  C   -0.62632094822219      0.92077754797913     -1.24906973579627
  N   -0.51963679204365      1.38804486512384     -2.32098859119922
