12
Coordinates from ORCA-job run
  C   0.43838579978136     -0.46143469106553      0.59517820961813
  C   -0.62842618532354     -0.09716134979284     -0.45227467422119
  Cl  0.07577509382073      0.18528702118324      2.16747666278435
  H   -0.29989553896494     -0.52923971595199     -1.40508328938964
  H   0.54327944804249     -1.54514574461382      0.65361044418865
  N   1.77157921129226      0.04290045395065      0.04621344402321
  O   2.38513925951367      0.90658824955885      0.64821382053917
  O   2.08990713758885     -0.50703174206607     -1.00379021247740
  C   -0.72904204893562      1.35672739244273     -0.60919323604654
  N   -0.78806305131357      2.52066389075134     -0.75070087298767
  C   -1.91823321970972     -0.68670962011276     -0.08842670503975
  N   -2.94040590579196     -1.18744414428386      0.19877640900869
