12
Coordinates from ORCA-job run
  C   0.48969637859787     -0.00644633255909      0.68304250736755
  C   -0.53014577056764      0.47095392766141     -0.35922838708421
  Cl  1.26820313571654      1.35780738062454      1.46405193601492
  H   0.00620800085772      1.09576315385920     -1.08208255348663
  H   0.04323362583320     -0.65174375046172      1.43787974559073
  N   1.53704820181185     -0.83505919378191     -0.02424644196499
  O   1.94460844789060     -0.40131548479217     -1.09560166406977
  O   1.89080401036176     -1.85743549717228      0.54972974952257
  C   -1.58497541272370      1.25709091227247      0.28409160568880
  N   -2.42827890502424      1.88669875345029      0.80384296846809
  C   -1.09938446623654     -0.68526607999792     -1.05981961331694
  N   -1.53701724651736     -1.63004778910280     -1.60265985273012
