12
Coordinates from ORCA-job run
  C   0.43628932894585     -0.51058196405248      0.55483919744483
  C   -0.62756244867892     -0.05785466197809     -0.46051779315674
  Cl  0.07139954695766      0.00369383861076      2.17484598034179
  H   -0.29819774048654     -0.40900442889503     -1.44569649129852
  H   0.53822677629180     -1.59573745491539      0.52337411422572
  N   1.77231713327046      0.03406456747062      0.05283254383544
  O   2.38974401302875      0.83770747358343      0.72934103967730
  O   2.08601892410265     -0.41796888898540     -1.04420041079947
  C   -0.72509808041651      1.40427554772038     -0.49529785391448
  N   -0.78029502003897      2.57629296062628     -0.53463762871995
  C   -1.91931988874464     -0.67286961140605     -0.14941761572838
  N   -2.94352254423157     -1.19201737777903      0.09453491809248
