12
Coordinates from ORCA-job run
  C   0.47313042072480     -0.44955040443397      0.73153328148987
  C   -0.87642612642295      0.05833325614140      0.19284095394446
  Cl  0.86723091195123      0.34403712598946      2.23767927055582
  H   -1.61944020663414     -0.15523286592716      0.97128233926532
  H   0.43784136745400     -1.52756016713120      0.87822705914617
  N   1.54066828765622     -0.21315030966080     -0.31690185642182
  O   1.78374015513625     -1.18853376507985     -1.02175743028488
  O   2.01658545802476      0.90925074189496     -0.40294193133795
  C   -1.25773528931988     -0.67156259863044     -1.02130333847841
  N   -1.57441458210855     -1.27411747909568     -1.97814962428242
  C   -0.87372528485264      1.50558760918672     -0.04377919120521
  N   -0.91745511160909      2.66449885674657     -0.22572953239094
