12
Coordinates from ORCA-job run
  C   0.37373923515337     -0.32130195842312      0.84720796556959
  C   -0.88847470630579      0.11394085959255      0.08136757558259
  Cl  0.64101506581041      0.72010455591579      2.22514337887101
  H   -1.71715042607999      0.06557143352613      0.79881486324089
  H   0.27665937005745     -1.35428632371554      1.17644023703626
  N   1.55465801479728     -0.30185281115977     -0.10105828142492
  O   1.82765259880052     -1.39296759860267     -0.59336533407630
  O   2.08539376652435      0.77539577692252     -0.32883303709039
  C   -1.17423639812873     -0.81566875036107     -1.01693323745394
  N   -1.41409861072176     -1.57804554982477     -1.87740306239580
  C   -0.79651434603069      1.49293805133232     -0.40895488947123
  N   -0.76864356387645      2.59817231479761     -0.80342617838777
