12
Coordinates from ORCA-job run
  C   0.44266774013928     -0.60640500015688      0.37769034965228
  C   -0.72201542322861      0.33152197237196      0.03357655580845
  Cl  0.35347471716873     -1.12281903375958      2.05159656509528
  H   -0.67300483727211      1.18274627227248      0.72173274264130
  H   0.48042100878705     -1.47970998045229     -0.27147868272289
  N   1.73570800797888      0.14517327685340      0.16009294741144
  O   2.63500223992143     -0.48040103147707     -0.38754979179758
  O   1.76931413653217      1.30194533553856      0.56330097714142
  C   -2.00021813495975     -0.36356228052585      0.19995209250577
  N   -3.02179884355901     -0.92575872815964      0.33531065309285
  C   -0.57318752919745      0.82137867648551     -1.34097618081756
  N   -0.42736308231062      1.19589052100942     -2.44424822801073
