12
Coordinates from ORCA-job run
  C   0.43936298116116     -0.60032128002059      0.40261796831004
  C   -0.66203863293047      0.06047901155112     -0.43983447590400
  Cl  0.17397750455852     -0.38257772509316      2.11177198224229
  H   -0.41144433603579     -0.09496909996321     -1.49407209046249
  H   0.49030360993171     -1.66932681826543      0.18300408233690
  N   1.79632455283121     -0.03881762894267     -0.03309017173756
  O   1.87209518318725      0.25433457334116     -1.22220937820907
  O   2.69063420910115      0.00208799272377      0.79334758772316
  C   -0.71762905398634      1.50358032710021     -0.19042182389068
  N   -0.74867851148821      2.66110257393422      0.00167957336646
  C   -1.95005300150101     -0.57908377664682     -0.16125746261654
  N   -2.97185450482920     -1.11748814971860      0.04846420884148
