12
Coordinates from ORCA-job run
  C   0.44914905310832     -0.48760227729488      0.56574615591391
  C   -0.63600356912468     -0.07850994972310     -0.44568377522616
  Cl  0.11247800408551      0.08660226032316      2.17164917353672
  H   -0.32344306504560     -0.46593607852718     -1.42269462273153
  H   0.55637007791048     -1.57266971711606      0.57369639662621
  N   1.77266949249382      0.04352626143567      0.01783893512373
  O   2.39860026132366      0.87519007079805      0.65125502168834
  O   2.06762739491740     -0.44838551382450     -1.06716956991664
  C   -0.74092357942797      1.38080727472547     -0.53456212061065
  N   -0.80164806579011      2.55005768501500     -0.62076648219462
  C   -1.91866074822122     -0.68628895297411     -0.08646041404245
  N   -2.93621525622966     -1.19779106283754      0.19815130183311
