18

C	-0.467029	0.009257	-1.451537
C	0.0	0.0	0.0
Cl	0.157723	-1.618565	-2.136331
H	1.087384	0.0	0.0
N	-1.87236	0.139501	-1.580824
H	-2.334568	-0.615794	-1.091213
H	-2.136163	0.134489	-2.559379
C	0.268324	1.058714	-2.264575
H	1.33483	0.997503	-2.043868
H	-0.104658	2.046993	-2.005154
H	0.096061	0.867183	-3.326511
N	-0.478809	-1.142377	0.803557
O	-1.459238	-1.799647	0.434152
O	0.171991	-1.372425	1.821779
N	-0.417771	1.216746	0.709495
O	0.098316	2.265876	0.316047
O	-1.204792	1.129766	1.659432
H	2.497636	0.0	0.0
