18

C	-0.55165	-0.012924	-1.423695
C	0.0	0.0	0.0
Cl	0.283797	-1.319205	-2.353013
H	1.087445	0.0	0.0
N	-1.958112	-0.355272	-1.422472
H	-2.44214	0.352848	-0.880601
H	-2.305429	-0.339909	-2.37575
C	-0.161867	1.28606	-2.12895
H	0.909838	1.464451	-2.000677
H	-0.384869	1.193168	-3.194702
H	-0.730959	2.118513	-1.717304
N	-0.43286	-1.188277	0.775996
O	0.11074	-2.24824	0.482235
O	-1.285824	-1.044148	1.656271
N	-0.446302	1.16557	0.784277
O	-1.419911	1.843383	0.414376
O	0.218244	1.399747	1.795043
H	2.522667	0.0	0.0
