18

C	-0.486747	0.050364	-1.450288
C	0.0	0.0	0.0
Cl	-0.04107	-1.524348	-2.225915
H	1.087506	0.0	0.0
N	-1.92724	0.147912	-1.530465
H	-2.187428	0.255659	-2.505636
H	-2.19267	0.990547	-1.031452
C	0.316428	1.113633	-2.19517
H	0.016882	2.102089	-1.848709
H	1.382587	0.966639	-1.997169
H	0.122286	1.028558	-3.267786
N	-0.481042	-1.192114	0.747611
O	0.233011	-2.191059	0.721498
O	-1.562584	-1.101873	1.331648
N	-0.364632	1.158791	0.798871
O	-0.924346	2.143368	0.276307
O	0.053985	1.137453	1.963354
H	2.487948	0.0	0.0
