18

C	-0.504333	0.022634	-1.438337
C	0.0	0.0	0.0
Cl	0.075615	-1.602185	-2.154594
H	1.087397	0.0	0.0
N	-1.91318	0.176046	-1.517616
H	-2.213382	0.170748	-2.484981
H	-2.36961	-0.571452	-1.009626
C	0.217351	1.072622	-2.262982
H	1.291274	0.993514	-2.085518
H	-0.000345	0.901325	-3.320756
H	-0.129315	2.062629	-1.97318
N	-0.475413	-1.139237	0.812323
O	-1.47005	-1.787852	0.461659
O	0.191222	-1.371641	1.820145
N	-0.409866	1.217319	0.721325
O	-1.210392	1.127736	1.659063
O	0.122968	2.264012	0.344682
H	2.514361	0.0	0.0
