18

C	-0.286645	0.067479	-1.498755
C	0.0	0.0	0.0
Cl	-2.057789	0.289963	-1.833944
H	1.090562	0.0	0.0
N	0.444668	1.158281	-2.107614
H	1.419488	1.01504	-1.819316
H	0.136637	2.019528	-1.670669
C	0.164474	-1.223068	-2.156979
H	1.201421	-1.413546	-1.862915
H	-0.452208	-2.071628	-1.866621
H	0.101235	-1.07406	-3.235581
N	-0.518621	-1.214405	0.657946
O	0.17164	-2.229815	0.55149
O	-1.609896	-1.156584	1.228459
N	-0.379153	1.156616	0.814718
O	-0.745141	2.201098	0.263261
O	-0.160122	1.046695	2.021953
H	2.515163	0.0	0.0
