18

C	-0.437497	-0.122047	-1.445272
C	0.0	0.0	0.0
Cl	-2.325595	-0.46041	-1.494317
H	1.090366	0.0	0.0
N	-0.111726	1.044082	-2.157184
H	-0.326606	0.937988	-3.138962
H	-0.561517	1.858975	-1.765964
C	0.212283	-1.316718	-2.114225
H	-0.160882	-2.258036	-1.725052
H	0.006991	-1.271355	-3.187521
H	1.288265	-1.245324	-1.926895
N	-0.39281	-1.164185	0.817761
O	0.22721	-2.205003	0.583198
O	-1.276849	-1.044426	1.667461
N	-0.381974	1.210149	0.715428
O	0.10305	1.31101	1.847009
O	-1.029241	2.10955	0.152985
H	2.422719	0.0	0.0
