16

C	0.0	0.0	0.0
C	-0.38395	-0.00243	-1.516782
Cl	1.762969	0.0	0.0
H	-1.471181	-0.013752	-1.516978
N	-0.438068	1.246827	0.739151
O	-0.464277	2.290595	0.089316
O	-0.518625	1.156755	1.959858
C	-0.637089	-1.1506	0.63235
N	-0.608013	-2.193537	1.201807
N	0.158898	-1.158282	-2.149115
H	-0.346796	-1.351019	-3.002548
H	1.145687	-1.049029	-2.342243
N	-0.017337	1.262438	-2.290191
O	1.168564	1.477678	-2.538441
O	-0.954941	1.916879	-2.740688
H	-2.251283	0.0	0.0
