16

C	0.0	0.0	0.0
C	-0.254773	-0.024295	-1.584066
Cl	1.757105	0.0	0.0
H	0.568765	0.532995	-2.025757
N	-0.385576	1.338693	0.600409
O	-0.560732	1.373588	1.812992
O	-0.301117	2.308543	-0.147171
C	-0.592424	-1.07758	0.761886
N	-0.651667	-2.054792	1.429477
N	-1.491064	0.400591	-2.101153
H	-1.647462	0.014776	-3.024855
H	-2.207371	0.129724	-1.402749
N	0.067924	-1.478447	-2.018349
O	1.155762	-1.681449	-2.562644
O	-0.818045	-2.317444	-1.876808
H	-2.20037	0.0	0.0
