16

C	0.0	0.0	0.0
C	-0.260256	0.032548	-1.591369
Cl	1.764095	0.0	0.0
H	0.525347	0.672107	-1.980112
N	-0.538854	1.24947	0.594485
O	-0.609922	1.30868	1.831194
O	-0.503114	2.250969	-0.157365
C	-0.486965	-1.141296	0.746426
N	-0.589667	-2.136999	1.372187
N	-1.495479	0.41991	-2.186912
H	-1.593379	1.408616	-1.975328
H	-2.235407	-0.050772	-1.666928
N	0.043381	-1.347784	-2.114021
O	1.104143	-1.526096	-2.711269
O	-0.828818	-2.196933	-1.945853
H	-2.033164	0.0	0.0
