14
Coordinates from ORCA-job run
  C   1.17411700457843      0.22210866668802      0.23409056585755
  C   -0.34514706543861      0.22366411244968      0.25763489242620
  F   1.63521039206823      1.33611576003768      0.90607717207554
  H   -0.69272172446656      0.32066100453615      1.28717544084105
  H   1.53208905378935      0.27837220349774     -0.79679811338452
  C   1.68872359682668     -0.98944467240354      0.88408397665410
  N   2.07698287180931     -1.97123065033118      1.39686651334728
  C   -0.95898647415007     -0.96896134566225     -0.45345948981996
  H   -0.60083850135464     -1.02606438438431     -1.48292928716066
  H   -0.70362754496562     -1.89319689136934      0.06665104945768
  H   -2.04565346726956     -0.87132071424431     -0.46508981439819
  N   -0.79883819538902      1.47884896252511     -0.43383595147029
  O   -0.31069915592802      1.70788390155863     -1.53751720929108
  O   -1.65061079010993      2.15156404710192      0.13705025486529
