14
Coordinates from ORCA-job run
  C   0.99961597525518     -0.46801851826193      0.43858277849123
  C   -0.37274034083986      0.17017809708321      0.23182051321694
  F   1.33077966242151     -1.25380945692468     -0.64340187576084
  H   -0.60811300159947      0.76088613218634      1.11954491943632
  H   0.94285287601588     -1.11788773453537      1.31850901921601
  C   2.05739132713445      0.52862427458465      0.65642232064386
  N   2.90516570716641      1.31442240852891      0.85954831742089
  C   -1.43798904831100     -0.86129922391780     -0.07671179870810
  H   -1.17495427274966     -1.42362114069566     -0.96986274754424
  H   -1.53844063880033     -1.54843911599947      0.76659187069856
  H   -2.40000898652247     -0.37341573970869     -0.23902776329279
  N   -0.26969862923892      1.17526198359594     -0.88198022280386
  O   -0.37045253237441      0.75398281015849     -2.03055083680268
  O   -0.06440809755730      2.34113522390606     -0.54948449421129
