14
Coordinates from ORCA-job run
  C   1.18442940520998      0.12182804298728      0.25415520100812
  C   -0.32351130605213      0.30061922635846      0.20175394701014
  F   1.75590775598159      1.27003050874548      0.76446039182515
  H   -0.68790415532216      0.60333435808272      1.18444767133576
  H   1.57841447314505     -0.03118469937122     -0.75350943692934
  C   1.52852391327052     -1.01894893496101      1.11189115442405
  N   1.77975760232909     -1.94216314281101      1.79166237273373
  C   -1.05416162019796     -0.91405875249661     -0.34174381860154
  H   -2.11958131581259     -0.69502885728129     -0.42839522140551
  H   -0.93275880946901     -1.76287175484918      0.33256689278881
  H   -0.66994384229473     -1.18122151623634     -1.32781838792400
  N   -0.60130284473426      1.46993203588733     -0.70098158378625
  O   -0.05500716131441      1.45957228589869     -1.80113428421971
  O   -1.38286209473900      2.31916120004670     -0.28635489825941
