14
Coordinates from ORCA-job run
  C   0.95657606931545     -0.32044169494543      0.67716859155660
  C   -0.39384257213611      0.15594013943311      0.15828332663377
  F   1.50492818414679     -1.27824782143919     -0.14380936351073
  H   -0.86202386956950      0.77257324207381      0.92993352139371
  H   0.77848208407162     -0.79126137827680      1.65084694798630
  C   1.90341917171595      0.78601599177915      0.87334584261306
  N   2.63337628573461      1.67707301996189      1.09705693681670
  C   -1.29740320864461     -0.99861618112165     -0.24406477692881
  H   -1.43827738982803     -1.67645182617535      0.60018037716222
  H   -2.27022144748238     -0.61478251218466     -0.55112888756234
  H   -0.84933292234163     -1.55492809006406     -1.06738556010781
  N   -0.24507347084833      1.06731415418352     -1.02715471647721
  O   -1.19653083609073      1.81045220677001     -1.24860562220338
  O   0.77392392195690      0.96636075000565     -1.70466661737208
