14
Coordinates from ORCA-job run
  C   0.97275033312508      0.08570316637750      0.84370581600669
  C   -0.44653951704867      0.30413682592657      0.31922042232494
  F   0.86437222041221     -0.75426708683293      1.94074362700755
  H   -1.04386940714452      0.69831526853121      1.14700040480532
  H   1.41955365628317      1.02219664250474      1.17798570619911
  C   1.84099073936996     -0.54648885298922     -0.15726451885423
  N   2.52056896026489     -1.07926959544714     -0.95189247319632
  C   -1.08107165287434     -0.94924320353259     -0.25002969353575
  H   -1.04026879745169     -1.74250653688497      0.49740431682679
  H   -2.12109576428642     -0.75740742491427     -0.50831421429795
  H   -0.54908931122381     -1.28000069180250     -1.14417399152560
  N   -0.44213875764535      1.39249952142185     -0.71761590750277
  O   0.62672772302999      1.95487850916441     -0.95490203097147
  O   -1.51989042481052      1.64845345847732     -1.24086746328632
