14
Coordinates from ORCA-job run
  C   1.13507127235037      0.16065273584160      0.41054634913303
  C   -0.37521467295138      0.18537424467715      0.24615251940224
  F   1.50539411914737      1.14093445977862      1.30910586414863
  H   -0.84837442629477      0.11985014611706      1.22695690156896
  H   1.61899941345599      0.37924043176349     -0.54443149802000
  C   1.56804509839561     -1.15010196529311      0.91027111671993
  N   1.89317008651317     -2.20937035294123      1.29733791252469
  C   -0.89226004256740     -0.86520575669297     -0.72021190500310
  H   -1.96807684685652     -0.74283787367213     -0.85581874576379
  H   -0.40298291074657     -0.76602642851578     -1.69091460962550
  H   -0.70812070686342     -1.86564836346863     -0.32614222559662
  N   -0.74262152385116      1.54381187765719     -0.28156904161322
  O   -0.12133776349317      1.94042879610216     -1.26422224975288
  O   -1.66069109623812      2.12989804864656      0.28193961187760
