14
Coordinates from ORCA-job run
  C   0.97017061687763      0.02897533499641      0.84935834780856
  C   -0.44351918584874      0.29523832654551      0.33194838262479
  F   0.84522311096589     -0.86363703778495      1.90206018642051
  H   -1.03666325281644      0.66150334234062      1.17551667446365
  H   1.42996907388961      0.94042183787553      1.23165013642558
  C   1.83283391464334     -0.56427298985672     -0.18009097566020
  N   2.51348274875317     -1.06124776727187     -0.99670789817922
  C   -1.09701622742304     -0.91972231321001     -0.29565773728319
  H   -1.07492755921811     -1.74601708188004      0.41596426689105
  H   -2.13182967730121     -0.69771909768326     -0.55063022083328
  H   -0.56585048466183     -1.22009593574544     -1.20100227851946
  N   -0.41657913119140      1.43075875898800     -0.65335061098254
  O   0.65908136566337      1.99689869333719     -0.84684819806297
  O   -1.48437531233227      1.71891592934908     -1.18021007511329
