14
Coordinates from ORCA-job run
  C   0.97908488581982      0.03888813233933      0.83994435118593
  C   -0.43467770381705      0.31343924587039      0.32755774588299
  F   0.84733228366227     -0.81219511863660      1.92599009961639
  H   -1.01613328621583      0.70672015885129      1.16676106090738
  H   1.45916264771254      0.95504022657334      1.18491731388073
  C   1.82109812662953     -0.60966249896587     -0.17289924864227
  N   2.47731577172430     -1.16459340759031     -0.97201494915616
  C   -1.11125595891033     -0.90522233276119     -0.26850670143399
  H   -0.59247912268535     -1.23245999004422     -1.17171384105692
  H   -1.09496690521184     -1.71671764268124      0.46016828475410
  H   -2.14520505568482     -0.67277271975142     -0.51841215914876
  N   -0.40129882857468      1.42370485264259     -0.68435333423450
  O   -1.47895481027795      1.74848540873947     -1.16838293713732
  O   0.68997795582943      1.92834568541446     -0.94805568541754
