14

C	0.0	0.0	0.0
C	-0.5261	-0.38517	-1.402439
F	1.385856	0.0	0.0
H	0.361874	-0.491411	-2.043726
H	-0.34198	-0.743227	0.716228
C	-0.390073	1.394151	0.453244
H	-1.478785	1.416632	0.477771
H	0.026305	2.136198	-0.23514
H	0.042105	1.564782	1.443517
C	-1.38043	0.627333	-2.032733
N	-1.853989	1.443203	-2.733418
C	-1.200536	-1.683927	-1.388318
N	-1.57759	-2.79249	-1.46315
F	-2.563036	0.0	0.0
