14

C	0.0	0.0	0.0
C	-0.43945	0.122246	-1.462061
F	1.385766	0.0	0.0
H	0.11279	-0.656782	-2.007646
H	-0.364213	-0.955385	0.373358
C	-0.387956	1.150791	0.903724
H	0.044402	0.966453	1.890057
H	-1.472304	1.193049	0.949001
H	0.040402	2.079746	0.512255
C	-0.007744	1.418823	-2.005308
N	0.316433	2.474287	-2.400494
C	-1.883622	-0.061448	-1.806626
N	-2.612503	-0.162457	-2.736838
F	-2.611057	0.0	0.0
