14

C	0.0	0.0	0.0
C	-0.444488	0.156052	-1.45908
F	1.38601	0.0	0.0
H	0.140845	-0.581351	-2.026115
H	-0.353815	-0.9645	0.361259
C	-0.395547	1.12682	0.93395
H	-1.480367	1.175698	0.965354
H	0.016136	0.917211	1.925645
H	0.042806	2.062514	0.574361
C	-0.037352	1.468707	-1.978937
N	0.29001	2.516028	-2.398603
C	-1.87696	-0.097061	-1.809349
N	-2.592354	-0.323213	-2.728176
F	-2.608318	0.0	0.0
