20

C	0.0	0.0	0.0
C	-0.498634	0.159213	-1.444145
Br	1.983851	0.0	0.0
H	-1.587946	0.222328	-1.313587
N	-0.452043	1.141326	0.761958
H	-0.250208	0.983558	1.744425
H	-1.471908	1.150563	0.663193
C	-0.417671	-1.331348	0.613346
H	-1.510463	-1.379802	0.558017
H	-0.111209	-1.364339	1.662945
H	0.026035	-2.187251	0.102638
C	-0.216776	-1.045009	-2.336363
H	-0.752314	-1.934035	-1.99935
H	-0.558049	-0.826365	-3.352671
H	0.854011	-1.268043	-2.379711
C	-0.014465	1.449126	-2.10167
H	-0.09454	2.289053	-1.411501
H	-0.627632	1.659254	-2.98366
H	1.027593	1.359948	-2.42243
Br	-3.912246	0.0	0.0
