20

C	0.0	0.0	0.0
C	-0.321848	0.054073	-1.524087
Br	1.997318	0.0	0.0
H	0.347554	0.819982	-1.938615
N	-0.418695	1.157027	0.745192
H	-0.26416	1.998304	0.19987
H	-1.41946	1.076444	0.920978
C	-0.518693	-1.237277	0.700979
H	-0.252762	-1.188488	1.7586
H	-1.611671	-1.257843	0.613515
H	-0.106342	-2.150736	0.27331
C	-1.754248	0.489162	-1.80931
H	-1.973028	1.48805	-1.427654
H	-1.910589	0.511651	-2.894213
H	-2.508981	-0.169108	-1.376715
C	-0.039675	-1.265887	-2.242437
H	0.946537	-1.668898	-2.004959
H	-0.800058	-2.007518	-1.984703
H	-0.090685	-1.111774	-3.324808
Br	-4.711217	0.0	0.0
