11
Coordinates from ORCA-job run
  C   0.76921183071329      0.44325880544531      0.17783372142349
  C   -0.43893704992223     -0.43923156532432     -0.16099928429999
  Br  0.50196861234824      1.33244534830134      1.89450951816778
  H   -0.56678134134998     -1.16375452599162      0.64868052017310
  H   0.84775374745431      1.24717292080660     -0.55638697103265
  H   -0.17701682472640     -1.00430499251378     -1.06321973913088
  C   2.00767294239747     -0.32155984623555      0.21714565746047
  N   2.98713822195121     -0.97010215669686      0.21290172104370
  N   -1.61107942020905      0.38592489131962     -0.37366287842657
  H   -1.98636211973511      0.27846160189133     -1.30225090205563
  H   -2.33356859892174      0.21068951899793      0.30644863667720
