11
Coordinates from ORCA-job run
  C   0.96469393837309     -0.03422837684931     -0.22994000374651
  C   -0.51983750875215      0.03459413549630     -0.59491045175617
  Br  2.04090231482390      0.92826185418444     -1.54185864414011
  H   -0.63778477630294     -0.41550241647797     -1.58289786212442
  H   1.29451253086831     -1.07327514700122     -0.24897996712016
  H   -0.81657584815414      1.08891852079001     -0.66780746848866
  C   1.19428519673605      0.52389039546938      1.09609704002835
  N   1.31414986168219      0.97760385206146      2.17297816128861
  N   -1.25125171894689     -0.75306030641722      0.38557876762482
  H   -1.45506349926371     -0.20067670823271      1.20881686555529
  H   -2.12803049106372     -1.07852580302316      0.00192356287896
