11
Coordinates from ORCA-job run
  C   0.86766353915646      0.06695841255884     -0.18331347786874
  C   -0.56368876803762     -0.19154094366695      0.28151646256356
  Br  1.02246295314121      1.85104848966341     -0.97306839990321
  H   -0.56411471644772     -1.17260256800684      0.76716002836746
  H   1.11749089742729     -0.63060681996658     -0.98418852996196
  H   -0.82590435151003      0.55803363245198      1.04059038184845
  C   1.81905769264018     -0.05039488791644      0.91249158756262
  N   2.55359517399980     -0.17528815714757      1.82058637583677
  N   -1.44649385470117     -0.24830515667089     -0.87196778311665
  H   -2.31719311005413     -0.69596893891580     -0.61745355711860
  H   -1.66287545561425      0.68666693761684     -1.19335308820969
