11
Coordinates from ORCA-job run
  C   0.82493277921243      0.31451423041692     -0.10752534375502
  C   -0.49801003255598     -0.41798824903866      0.10481731641803
  Br  0.65274174237895      2.20158468828744      0.38155572435195
  H   -0.31371796106426     -1.47227293680249     -0.12521503228943
  H   1.07325537965734      0.30845850690733     -1.16999633917951
  H   -0.76924105193571     -0.34928412766384      1.16718072783334
  C   1.90087013006711     -0.28090820890614      0.67212074020099
  N   2.74248270836672     -0.80508170251718      1.30188992626123
  N   -1.49043081510434      0.09040842322789     -0.82742030570557
  H   -2.26008252865114     -0.56175135142230     -0.90124513905053
  H   -1.86280035037111      0.97132072751103     -0.49616227508547
