17
Coordinates from ORCA-job run
  C   -0.62021184126817      0.43811930911106      0.44374621763435
  C   0.55171796678014     -0.46875328757735      0.01017065804047
  Cl  -0.09498724700917      2.15247015166440      0.52378956387678
  H   0.20432265579859     -1.49956854221392      0.12226469564001
  C   -1.09537561249998      0.05609704224707      1.77574362656147
  N   -1.49055380891406     -0.28498379512072      2.82856480600726
  C   -1.77920243452747      0.33259477056351     -0.54633656491169
  H   -1.48718872090406      0.73691263371087     -1.51485237734484
  H   -2.08012490115974     -0.71244397886428     -0.65862603327157
  H   -2.62856337307292      0.90549705193989     -0.17361958316025
  N   1.67058290248079     -0.35141822060191      1.01189777297852
  O   1.56774281146838     -1.04311403060376      2.02340620535452
  O   2.58730224089660      0.42333243780423      0.75409194533366
  C   1.07073597388123     -0.21017891621902     -1.38813702253198
  H   1.33149102658876      0.83758535182977     -1.52660557967216
  H   0.32445087325740     -0.50500223556126     -2.12648650068054
  H   1.96686148820368     -0.80814574210859     -1.55901182985403
