17
Coordinates from ORCA-job run
  C   -0.63107031133482      0.35157276425488      0.65997766249215
  C   0.79281219937678     -0.14411445244443      0.32379817749997
  Cl  -0.48629533257966      1.76285860426046      1.76327456540009
  H   1.29882938162761     -0.36328733538291      1.26521689607463
  C   -1.27375391267751     -0.73005267198497      1.41058517918986
  N   -1.78198005641266     -1.62419083663960      1.97953110548834
  C   -1.50588303993182      0.74314775885369     -0.52590143389923
  H   -2.48495757733555      1.04958147289847     -0.15621429529812
  H   -1.05295718945900      1.56673959716707     -1.07359590033077
  H   -1.63683496610182     -0.10738777845239     -1.19734872934289
  N   1.60077237192983      0.97042692792970     -0.27630075984039
  O   1.28252831801996      1.35204558977365     -1.40114178447625
  O   2.53392835671440      1.40386168812939      0.39336609524028
  C   0.82148835767935     -1.33355667380893     -0.61868301095858
  H   0.42858391336044     -1.06514258276592     -1.59837058123994
  H   0.24053642721056     -2.15956725828281     -0.20490952338223
  H   1.85225305991391     -1.67193481350536     -0.74228366261693
