17
Coordinates from ORCA-job run
  C   -0.74764609177640      0.12996886316647      0.48965772387465
  C   0.76239021679343     -0.03318266290656      0.21646004061330
  Cl  -0.95111137657881     -0.04504926611622      2.27075771117051
  H   1.28820788401369      0.66491711456185      0.86932875121147
  C   -1.52834749103858     -0.93032749885163     -0.14677034296683
  N   -2.17458289309186     -1.77138721097639     -0.65266002027626
  C   -1.26759745373232      1.50265972728669      0.07750399647489
  H   -2.29904714784349      1.62052031896375      0.40997695584990
  H   -1.23778767850161      1.60476661475757     -1.00908320599344
  H   -0.65363416125380      2.28256281277002      0.53131628328914
  N   1.02727001179087      0.47291218840911     -1.17209835204694
  O   0.59253277000477     -0.20271554503761     -2.10215704944108
  O   1.63435946578504      1.53726355954660     -1.27362473730783
  C   1.28734173849882     -1.44740347059195      0.34666858454112
  H   1.10424117840359     -1.82073214056707      1.35461426306737
  H   2.36386830389537     -1.45966890806550      0.16452562345080
  H   0.80054272463130     -2.10410449634911     -0.37441622551077
