17
Coordinates from ORCA-job run
  C   -0.60763955998892      0.31591653457445      0.71363894916199
  C   0.82120389282085     -0.13746589874754      0.31267955766742
  Cl  -0.55089900736281      1.46765221676372      2.09005263461870
  H   1.44050725640967     -0.18063410341512      1.21179332931641
  C   -1.34169930231050     -0.85647272943447      1.19483060805275
  N   -1.94719976091964     -1.79639154918338      1.55701522293102
  C   -1.37106580993894      0.96062011210530     -0.44171656350422
  H   -2.39455713816177      1.17050512030375     -0.13137973816450
  H   -1.39375139557050      0.28946154503074     -1.30331626126979
  H   -0.89402913454138      1.89986548839886     -0.72239544500665
  N   1.43672686695278      0.95786107894826     -0.52855737506639
  O   1.73039423686267      0.69468702290094     -1.69207798938449
  O   1.58367421102612      2.04854143858071      0.01476985878107
  C   0.85729250685537     -1.45828332497319     -0.43159675997025
  H   1.88078771233495     -1.67977133267495     -0.73315853306443
  H   0.24268040751818     -1.43695706002506     -1.33124556180900
  H   0.50857401801387     -2.25813455915299      0.22166406671034
