14

C	-0.491613	-0.009421	-1.429406
C	0.0	0.0	0.0
Br	0.253981	1.398649	-2.462587
H	1.090952	0.0	0.0
H	-0.342292	-0.912093	0.493699
N	-0.18515	-1.344819	-2.114569
O	-0.600858	-1.451764	-3.262114
O	0.408775	-2.185565	-1.461217
N	-2.032438	0.028112	-1.442761
O	-2.612867	1.016292	-1.85757
O	-2.540072	-0.983041	-0.966146
C	-0.521201	1.166009	0.700109
N	-0.970557	2.085087	1.276582
Br	3.390212	0.0	0.0
