14

C	-0.461068	-0.002086	-1.424154
C	0.0	0.0	0.0
Br	-0.066841	1.606129	-2.363284
H	1.095007	0.0	0.0
H	-0.344042	-0.923849	0.468637
N	0.183275	-1.222507	-2.115224
O	0.993925	-1.060142	-3.008941
O	-0.192375	-2.285684	-1.632185
N	-1.96601	-0.287333	-1.576025
O	-2.369988	-0.478693	-2.71635
O	-2.620709	-0.315175	-0.544158
C	-0.481894	1.146599	0.737146
N	-0.850054	2.065561	1.37681
Br	2.748632	0.0	0.0
