16

C	0.0	0.0	0.0
C	-0.382974	-0.122168	-1.542764
Cl	1.782623	0.0	0.0
H	0.426235	0.40635	-2.059726
C	-0.330942	1.376063	0.436822
N	-0.526287	2.481995	0.784831
N	-0.627004	-1.018117	0.783044
H	-0.410831	-0.875292	1.765661
H	-1.650936	-0.833123	0.654054
N	-1.620571	0.485449	-1.954414
H	-2.375582	0.261601	-1.263498
H	-1.518891	1.495825	-1.95549
N	-0.332343	-1.53797	-1.886116
H	-1.065156	-1.670334	-2.573246
H	-0.575769	-2.07699	-1.061911
H	-3.238835	0.0	0.0
