16

C	0.0	0.0	0.0
C	-0.486662	-0.032182	-1.455649
Cl	1.842594	0.0	0.0
H	-1.578417	-0.007009	-1.289099
C	-0.345436	1.302474	0.600655
N	-0.552636	2.362464	1.06279
N	-0.546463	-1.053749	0.780397
H	-1.569703	-0.821461	0.774006
H	-0.44524	-1.881934	0.199524
N	-0.13829	-1.313945	-2.041242
H	-0.841429	-1.567999	-2.721016
H	0.748296	-1.200685	-2.517703
N	0.019905	1.089427	-2.254181
H	-0.691156	1.316854	-2.941661
H	0.118472	1.911951	-1.669709
H	-3.044838	0.0	0.0
