16

C	0.0	0.0	0.0
C	-0.433316	-0.194243	-1.501936
Cl	1.865643	0.0	0.0
H	0.462663	-0.146589	-2.123811
C	-0.303115	1.36377	0.475256
N	-0.473436	2.428692	0.940123
N	-0.508746	-0.93518	0.946562
H	-0.420892	-1.848276	0.506249
H	-1.523797	-0.72049	0.96409
N	-1.315395	0.892206	-1.891204
H	-1.573783	0.748525	-2.861616
H	-2.167391	0.784678	-1.313871
N	-0.963438	-1.553937	-1.608197
H	-1.075658	-1.757401	-2.596828
H	-1.902054	-1.49923	-1.205994
H	-3.108236	0.0	0.0
