16

C	0.0	0.0	0.0
C	-0.503016	-0.041666	-1.454141
Cl	1.811985	0.0	0.0
H	-1.59159	-0.157045	-1.315986
C	-0.313497	1.327137	0.591824
N	-0.497093	2.373196	1.09755
N	-0.568965	-1.083522	0.726356
H	-0.381418	-0.94886	1.716023
H	-1.60137	-0.935561	0.586871
N	0.030381	-1.192519	-2.138223
H	0.936667	-0.953854	-2.52509
H	-0.5947	-1.457919	-2.887659
N	-0.14324	1.206874	-2.143698
H	-0.640261	1.976641	-1.702096
H	-0.525083	1.131774	-3.08141
H	-3.046347	0.0	0.0
