16

C	0.0	0.0	0.0
C	-0.737802	0.060216	-1.312253
Cl	1.87821	0.0	0.0
H	-1.803496	0.170416	-0.913265
C	-0.260121	1.23539	0.767189
N	-0.403534	2.190342	1.433899
N	-0.445492	-1.12021	0.710933
H	0.074154	-1.303866	1.552543
H	-0.527575	-1.913763	0.089874
N	-0.68891	-1.237962	-1.971987
H	-1.603164	-1.425016	-2.369224
H	0.007872	-1.242615	-2.706612
N	-0.366456	1.237391	-2.058486
H	-1.114892	1.475114	-2.696963
H	0.491773	1.088258	-2.580856
H	-3.343975	0.0	0.0
