16

C	0.0	0.0	0.0
C	-0.536866	0.005017	-1.436799
Cl	1.804532	0.0	0.0
H	-1.610749	0.192616	-1.238567
C	-0.348358	1.288033	0.634976
N	-0.537418	2.328276	1.145482
N	-0.532601	-1.06899	0.783606
H	-0.419573	-1.898547	0.203306
H	-1.555286	-0.857464	0.786789
N	-0.404838	-1.346584	-1.998966
H	0.194236	-1.322275	-2.812572
H	-1.325314	-1.668908	-2.280721
N	0.020316	1.09362	-2.204698
H	-0.518163	1.226665	-3.05056
H	0.98727	0.907249	-2.447823
H	-3.086107	0.0	0.0
