18
Coordinates from ORCA-job run
  C   0.79114719254423     -0.10657597394422      0.65554753749830
  C   -0.71255627856585      0.12373171956382      0.37680049446163
  Br  1.38362501683189      1.13358893168348      2.07960827449625
  H   -1.21010131923571      0.07490102685589      1.35218431120477
  C   0.99424873513454     -1.44787604118815      1.20188980944418
  N   1.14413055405663     -2.54418587196225      1.59935731527914
  C   1.70071038884513      0.10208978873513     -0.55226861087028
  H   2.73643103872676     -0.10947677453589     -0.28483762641313
  H   1.40629589209693     -0.57344760230820     -1.35926753312803
  H   1.63704439684148      1.13231680553710     -0.90190250276259
  C   -1.28785489467588     -0.98834532720965     -0.50474666718608
  H   -2.36373392929859     -0.83303887246184     -0.61788818928701
  H   -1.13804383028030     -1.97939851581941     -0.07241053365345
  H   -0.84953458899238     -0.97487143229450     -1.50600419279135
  C   -0.99179889643128      1.48962517331626     -0.24500836069415
  H   -0.54079701603925      2.30247582765136      0.32575201566844
  H   -2.07101060924116      1.65835902893094     -0.27242494040984
  H   -0.62820185231718      1.53912810945015     -1.27438060085678
