18
Coordinates from ORCA-job run
  C   0.81418849077230     -0.19907942258180      0.49975490457324
  C   -0.57574766171022      0.40998080820172      0.21614800899251
  Br  1.16717387870071     -0.13523164651390      2.44518263956483
  H   -0.54989530496644      1.41469815436091      0.65657920759435
  C   0.83811081993544     -1.60816160884384      0.11157563751855
  N   0.84107686809745     -2.72411974278954     -0.25885212163298
  C   1.95805677060835      0.54911952900711     -0.18205885341434
  H   2.91998407671625      0.15668947189749      0.14844521312759
  H   1.89127330878852      0.43208900840183     -1.26516557582683
  H   1.90372720634162      1.60996112741846      0.07214596169441
  C   -1.71133631475852     -0.38606191338601      0.85411829692405
  H   -1.78315255379023     -1.38268455663651      0.40972222266782
  H   -1.58183063532936     -0.49666657924417      1.93082289254235
  H   -2.66008367974804      0.12706937272281      0.67951200386796
  C   -0.80956596679449      0.53493712855332     -1.29232853135463
  H   -0.70820977159337     -0.43562648247524     -1.78755282795996
  H   -0.12703045687173      1.24179637015716     -1.76600632983296
  H   -1.82673907439825      0.89129098175019     -1.47104274904596
