18

C	0.0	0.0	0.0
C	-0.481906	-0.143334	-1.443115
Br	1.982388	0.0	0.0
H	-0.036031	0.66369	-2.035652
H	-1.564604	0.030196	-1.401713
C	-0.4595	1.333549	0.565266
H	-0.117466	2.163785	-0.058058
H	-1.554826	1.317457	0.581492
H	-0.08356	1.478994	1.581671
C	-0.472794	-1.141521	0.882187
H	-1.567832	-1.151396	0.833992
H	-0.160414	-0.981223	1.917212
H	-0.080435	-2.103925	0.548946
C	-0.220186	-1.490079	-2.106831
H	-0.819837	-2.276765	-1.644415
H	0.835643	-1.771052	-2.052812
H	-0.50564	-1.444561	-3.161755
Br	-4.096487	0.0	0.0
