17
Coordinates from ORCA-job run
  C   -0.81568825967550      0.16444519581008      0.50661565367241
  C   0.64436061177467     -0.26898533061887      0.40515826224414
  F   -1.20547317225289      0.15085965693164      1.82135520576426
  H   0.78610040251938     -1.06220102983138      1.13763392720889
  N   -1.64562172603184     -1.01670434057838     -0.08990286466481
  O   -1.44979476306865     -2.11659720836605      0.41264740693220
  O   -2.42070332421625     -0.75620242213610     -1.00383757975534
  N   -1.10056601207825      1.38208701254488     -0.08146796277119
  H   -2.06382449318605      1.48153838750309     -0.36555037008080
  H   -0.45313572203629      1.67905450493495     -0.79369063496247
  N   1.48255597674402      0.88027759182824      0.88695146638768
  O   1.80990653984771      0.87476964941979      2.06891259963185
  O   1.76832837731036      1.74470143660591      0.05912656855797
  C   1.07689375560053     -0.69569392510240     -0.98374425963019
  H   0.57150455662737     -1.62240405529548     -1.25732566405253
  H   2.15143225275219     -0.88377092813505     -0.99107489395639
  H   0.86372499936951      0.06482580448511     -1.73380686052567
