14
Coordinates from ORCA-job run
  C   -0.57216688675571     -0.03027639791895      0.00197327862006
  C   0.79605808205114      0.33608150789640     -0.54948658626068
  Cl  -1.75372930606578     -0.32419463435505     -1.28038080783614
  H   1.40417414110003      0.64308073766946      0.32130132905768
  H   0.68533122024008      1.20632123944816     -1.19490872229208
  N   -1.10606496468662      1.23550990599289      0.75190035411049
  O   -1.01198070543539      2.30906766993909      0.17176404646612
  O   -1.57114310108090      1.05506333286055      1.87281219070642
  N   -0.49835252854433     -1.15769060681664      0.84732360392116
  H   -1.41616492960454     -1.44633984323078      1.16088129285400
  H   0.06872326877414     -0.94633534018004      1.66045944131493
  N   1.31915302232140     -0.77639406842886     -1.31266829262690
  H   1.45680686124590     -1.57882218255255     -0.71339520246757
  H   2.20035582644057     -0.52407132032369     -1.73857592556749
