14
Coordinates from ORCA-job run
  C   -0.67941470383877     -0.04918893534258      0.00478798379334
  C   0.74059116489128     -0.47852574855989     -0.35230901532481
  Cl  -1.56646159964482      0.33402984983689     -1.47318054769424
  H   1.22120872289280     -0.76623999827147      0.58566078763761
  H   0.65202365495365     -1.37539956083192     -0.98289431560877
  N   -0.53408752131591      1.20731563280730      0.87222198307654
  O   -0.91561152151996      2.29092372416573      0.47233820250893
  O   -0.00225063286831      0.96743849277120      1.95347100880548
  N   -1.45596460430323     -0.96600148151130      0.78375287793975
  H   -1.70659758154766     -1.77574139523575      0.23236245824138
  H   -0.93152716321241     -1.24643498464479      1.60363566640617
  N   1.47563036070503      0.62897119934424     -0.92981951005919
  H   1.23209591152339      0.75738825867532     -1.90281686294123
  H   2.47136551328492      0.47046494679701     -0.86621071678095
