16

C	0.0	0.0	0.0
C	-0.623914	-0.145205	-1.349859
F	1.332542	0.0	0.0
H	-1.707394	-0.238663	-1.181138
H	-0.447612	0.808126	-1.85961
N	-0.42051	1.306224	0.667911
O	0.121022	2.298993	0.188177
O	-1.218653	1.262765	1.587066
N	-0.360393	-1.116823	0.985143
O	-1.118597	-1.999382	0.610314
O	0.218723	-1.049607	2.064826
C	-0.030752	-1.295192	-2.156544
H	-0.147223	-2.245948	-1.638978
H	-0.55757	-1.372733	-3.109049
H	1.027015	-1.132716	-2.368751
Cl	-3.894665	0.0	0.0
