16

C	0.0	0.0	0.0
C	-0.662507	0.159571	-1.326185
F	1.332805	0.0	0.0
H	-1.745184	0.214924	-1.126779
H	-0.463779	-0.769667	-1.868768
N	-0.356287	1.095632	1.014321
O	0.288979	1.056473	2.056986
O	-1.192051	1.930542	0.696149
N	-0.410646	-1.324361	0.651368
O	0.072451	-2.308381	0.099419
O	-1.156378	-1.30208	1.617702
C	-0.144569	1.35739	-2.114463
H	0.929144	1.281079	-2.30505
H	-0.65783	1.39774	-3.077785
H	-0.35198	2.290936	-1.592211
Cl	-3.930818	0.0	0.0
