16

C	0.0	0.0	0.0
C	-0.655655	-0.074537	-1.336324
F	1.331982	0.0	0.0
H	-0.489691	-1.094183	-1.69218
H	-1.734211	0.041305	-1.149344
N	-0.351325	1.266619	0.791581
O	0.279674	1.410181	1.834143
O	-1.156337	2.048669	0.307195
N	-0.413287	-1.191203	0.871604
O	-1.085055	-0.998946	1.871392
O	0.014782	-2.264184	0.457151
C	-0.109601	0.937902	-2.336697
H	-0.296223	1.959639	-2.007612
H	-0.619885	0.799691	-3.291889
H	0.961924	0.803853	-2.501922
Cl	-3.862539	0.0	0.0
