11

C	0.0	0.0	0.0
C	-0.615105	-0.654189	-1.176226
F	1.386028	0.0	0.0
H	-0.11166	-1.592563	-1.436129
H	-0.315358	1.042	0.103305
H	-0.375437	-0.567653	0.866805
H	-1.718712	-0.715488	-0.830283
N	-0.654768	0.182601	-2.406177
O	-1.060481	-0.368641	-3.424905
O	-0.306739	1.35755	-2.353273
F	-2.80769	0.0	0.0
