15

C	0.0	0.0	0.0
C	-0.340101	0.183965	-1.522959
Cl	1.789229	0.0	0.0
H	-1.421092	0.366111	-1.512412
C	-0.537321	1.096638	0.813892
N	-0.601083	2.018991	1.553138
C	-0.566642	-1.261352	0.489633
N	-0.566557	-2.367132	0.921836
C	-0.055159	-1.078202	-2.338103
H	-0.299856	-0.897648	-3.385906
H	-0.680167	-1.890419	-1.963727
H	0.992322	-1.375403	-2.27268
C	0.330143	1.345558	-2.092752
N	0.826414	2.261464	-2.638711
H	-2.198257	0.0	0.0
