15

C	0.0	0.0	0.0
C	-0.357021	0.051528	-1.531046
Cl	1.789218	0.0	0.0
H	-1.432112	0.27	-1.519968
C	-0.519081	1.191337	0.688419
N	-0.544914	2.221122	1.270011
C	-0.589077	-1.192991	0.617952
N	-0.588197	-2.241849	1.173152
C	-0.13268	-1.289662	-2.221728
H	-0.802813	-2.027938	-1.776762
H	-0.366537	-1.198644	-3.285203
H	0.896979	-1.634283	-2.116331
C	0.335844	1.138642	-2.212854
N	0.827414	2.00407	-2.839284
H	-2.205555	0.0	0.0
