15

C	0.0	0.0	0.0
C	-0.320148	-0.09979	-1.536319
Cl	1.792763	0.0	0.0
H	0.447191	-0.760737	-1.956161
C	-0.625909	1.182833	0.592372
N	-0.622141	2.260064	1.09657
C	-0.492739	-1.19258	0.703697
N	-0.571571	-2.20273	1.312816
C	-0.230834	1.276038	-2.191468
H	0.711527	1.763188	-1.932671
H	-1.056638	1.899584	-1.843825
H	-0.295861	1.174852	-3.277396
C	-1.617313	-0.710512	-1.852342
N	-2.462376	-1.259057	-2.470909
H	-2.037872	0.0	0.0
