15

C	0.0	0.0	0.0
C	-0.315986	-0.069025	-1.54419
Cl	1.799111	0.0	0.0
H	-1.403552	0.061097	-1.584818
C	-0.429325	1.29713	0.54333
N	-0.518393	2.379696	1.002553
C	-0.768058	-1.077286	0.661206
N	-0.742537	-2.127406	1.228326
C	0.053895	-1.419031	-2.15561
H	-0.457393	-2.213163	-1.607895
H	-0.270798	-1.443638	-3.199066
H	1.128432	-1.598946	-2.120913
C	0.295939	1.030274	-2.280948
N	0.735363	1.880425	-2.964245
H	-2.145417	0.0	0.0
