15

C	0.0	0.0	0.0
C	-0.312829	-0.260356	-1.525728
Cl	1.798114	0.0	0.0
H	-1.399572	-0.140549	-1.588533
C	-0.420266	1.360632	0.37009
N	-0.502604	2.493746	0.686308
C	-0.795936	-0.971802	0.788238
N	-0.780221	-1.932844	1.497596
C	0.067062	-1.673935	-1.966704
H	1.146229	-1.829643	-1.948863
H	-0.29177	-1.840301	-2.985007
H	-0.408933	-2.398028	-1.300957
C	0.29927	0.74788	-2.384183
N	0.75618	1.527534	-3.135556
H	-2.137627	0.0	0.0
