18
Coordinates from ORCA-job run
  C   0.73561633302507      0.16144370956830     -0.27603470222965
  C   -0.69759427981223      0.00603338143060      0.26759566100385
  Br  0.70949906586676      0.44958296753067     -2.19728661508437
  H   -0.56190523717380     -0.08635034227233      1.35078598310952
  N   1.45289522088948     -1.15171404388736      0.03304013992793
  O   1.82579493765505     -1.89119272428512     -0.86587765639164
  O   1.56527158457953     -1.37277763776762      1.23803690388243
  C   1.50307741630332      1.28901355286784      0.38436137303268
  H   0.98267877514365      2.22332425378371      0.18514815278994
  H   1.53745802835334      1.11631398190356      1.46118378175995
  H   2.52102143761977      1.34076172360220     -0.00602077115583
  C   -1.40460161038523     -1.24697704434388     -0.24287562666744
  H   -2.39959042642369     -1.29971546800335      0.20592134857268
  H   -1.52000906536079     -1.21451658037056     -1.32850315082444
  H   -0.87346178533961     -2.16438949836490      0.02159726590378
  N   -1.40973506811846      1.25535191864751      0.03080010878415
  H   -2.20397303176888      1.31233974455049      0.65633016537421
  H   -1.76344229505328      1.27446810541024     -0.91920236178776
