18
Coordinates from ORCA-job run
  C   0.75684064529858      0.41368977619123     -0.21042056924924
  C   -0.78184038571922      0.25673980055322     -0.24834620161301
  Br  1.37376564806850      1.57644201309411     -1.64905094465980
  H   -1.15541797824053      1.21720315414721      0.14478254304404
  N   1.36344624381862     -0.96623963116929     -0.43051409772506
  O   1.68954252327014     -1.56718995810564      0.59350535154039
  O   1.40968864168813     -1.40924273243629     -1.56771023621279
  C   1.25340796831349      1.00239943284485      1.09380489889720
  H   2.34252027360757      1.04814613508689      1.10226443664243
  H   0.93034029059611      0.40403151143828      1.94328436089844
  H   0.86021617314423      2.01532523964055      1.19169862841610
  C   -1.24222975502278     -0.87181675173958      0.67424852071402
  H   -1.00057890390799     -1.83161773741334      0.21247843571541
  H   -0.79066942751003     -0.83585203690918      1.66388790736793
  H   -2.32705966357390     -0.81875892326938      0.79813172355568
  N   -1.26246522801252     -0.05039281797546     -1.58086489847720
  H   -2.23362671804354     -0.33101649551529     -1.53303443240741
  H   -1.18488034777488      0.74815002153711     -2.19614542644714
