18
Coordinates from ORCA-job run
  C   0.67869368560207      0.12816966927823     -0.26762067495078
  C   -0.76268085200058     -0.05469226722458      0.28766419206635
  Br  0.64544259974446      0.57287481230811     -2.15665909781675
  H   -0.60654070685216     -0.28475045447825      1.34792928703108
  N   1.38266266865075     -1.20960420257170     -0.06811195366905
  O   1.55335723301407     -1.49659955559884      1.11664343295714
  O   1.67696650396239     -1.91344583660044     -1.02334580092000
  C   1.47855015168563      1.18507511990697      0.47208077499472
  H   2.51254417900138      1.19637485396984      0.12303168175243
  H   1.04911172236228      2.16918292943572      0.28692060161724
  H   1.46592531709739      0.97181158979525      1.54205513589983
  C   -1.49955222746738     -1.21906578599068     -0.35729645660082
  H   -1.67297440677155     -1.03271409341487     -1.41931690787591
  H   -2.46665046531483     -1.32279114625756      0.13549845294691
  H   -0.95581250184644     -2.16010695632170     -0.25927409642064
  N   -1.58446738814411      1.13496665211254      0.22062342077364
  H   -1.70295108424389      1.43680798490674     -0.73907619269501
  H   -1.19262442847947      1.89750668674521      0.75725420090962
