18
Coordinates from ORCA-job run
  C   0.63970588648226      0.52662757408544     -0.10721508761234
  C   -0.82664571404772      0.12751630670105     -0.41097810455604
  Br  0.79935953701355      2.46881288311629      0.01771336510041
  H   -1.14951392563376      0.77065949855851     -1.23306577540060
  N   1.44304355846690      0.12939039344202     -1.34268960179449
  O   1.02864906115856      0.53673343060531     -2.42247671007058
  O   2.40816985481650     -0.61253915560676     -1.18221759282064
  C   1.24025404954549     -0.10150018993561      1.12731744239852
  H   2.29628542663572      0.14778394221728      1.21332785531239
  H   0.71873526057848      0.26742891922710      2.00992048284517
  H   1.15308687006254     -1.18884956451563      1.08054372450096
  C   -1.73124491253372      0.34168055145918      0.79354280452154
  H   -2.76345019014714      0.18471200202004      0.47914771503596
  H   -1.51122472961584     -0.38422722849003      1.58096505573068
  H   -1.63546320759415      1.34617139226494      1.20708707166518
  N   -0.96445494579490     -1.24238940282756     -0.86873181975637
  H   -0.63756220063776     -1.91473979642822     -0.18725892631377
  H   -0.50672967875500     -1.40327155589335     -1.75593189878600
