14

C	-0.575384	-0.026488	-1.54992
C	0.101498	-0.184411	-0.177991
Cl	0.10958	1.311721	-2.453464
H	1.183275	-0.262831	-0.343271
H	-0.267613	-1.126073	0.238395
C	-0.503874	-1.249714	-2.345259
N	-0.425414	-2.245614	-2.964041
N	-2.073251	0.223004	-1.277813
O	-2.621769	-0.706821	-0.695098
O	-2.58419	1.273648	-1.616674
N	-0.222741	0.96525	0.634328
H	0.660955	1.43431	0.843671
H	-0.613641	0.659932	1.51486
Br	3.121835	1.277576	1.001897
