14

C	-0.621911	-0.018684	-1.581265
C	0.136285	0.121944	-0.272255
Cl	-0.435421	1.433561	-2.604706
H	1.208593	0.156373	-0.480749
H	-0.150318	1.078319	0.174228
C	-0.227154	-1.196431	-2.343206
N	0.132742	-2.105225	-2.994369
N	-2.124489	-0.126964	-1.280346
O	-2.544261	0.593654	-0.38525
O	-2.789596	-0.885615	-1.97375
N	-0.175688	-1.048806	0.519695
H	0.704259	-1.353563	0.941891
H	-0.802722	-0.797425	1.27281
Br	3.020152	-0.752859	1.548182
