14

C	-0.687445	0.352838	-1.497718
C	0.223988	0.042936	-0.316402
Cl	-0.241005	-0.604479	-2.930823
H	1.253218	0.243648	-0.614136
H	0.149067	-1.030248	-0.101859
C	-2.090639	0.108274	-1.181068
N	-3.191231	-0.175917	-0.883733
N	-0.519304	1.832002	-1.861402
O	0.618592	2.184639	-2.12187
O	-1.526015	2.528848	-1.86203
N	-0.148139	0.937239	0.758363
H	0.698738	1.054511	1.320484
H	-0.827738	0.486649	1.360015
Br	2.857348	0.066762	1.97308
