15

C	-0.476264	-0.046268	-1.436302
C	0.0	0.0	0.0
Br	-2.644226	0.140151	-1.310326
H	1.095447	0.0	0.0
H	-0.45746	-1.074392	-1.781537
N	0.09654	0.829415	-2.305754
H	-0.163577	0.738479	-3.273487
H	0.206527	1.77249	-1.965663
N	-0.462034	-1.113743	0.738788
H	-1.43913	-1.017531	0.982395
H	0.094975	-1.224122	1.573042
N	-0.372563	1.344394	0.636993
O	-0.107715	2.366777	0.005343
O	-0.870307	1.329834	1.757472
Br	3.434116	0.0	0.0
