15

C	-0.600833	0.100605	-1.393292
C	0.0	0.0	0.0
Br	0.099896	-1.488393	-2.43626
H	1.093368	0.0	0.0
H	-0.193585	0.945698	-1.939383
N	-2.004409	0.137721	-1.297845
H	-2.454114	0.127659	-2.202141
H	-2.310614	-0.645596	-0.731037
N	-0.574475	-1.12568	0.714723
H	-0.669981	-0.853257	1.686917
H	0.107742	-1.874953	0.669422
N	-0.377911	1.284799	0.698999
O	-0.141366	2.322589	0.091245
O	-0.861019	1.227913	1.82932
Br	3.466332	0.0	0.0
