15

C	-0.490249	0.016034	-1.45425
C	0.0	0.0	0.0
Br	-0.355988	1.795686	-2.251311
H	1.089422	0.0	0.0
H	-1.555171	-0.230362	-1.479179
N	0.255018	-0.917386	-2.26096
H	0.132122	-1.823593	-1.815268
H	1.244859	-0.686723	-2.167935
N	-0.439199	-1.244757	0.574025
H	-1.385733	-1.152977	0.921904
H	0.184937	-1.50556	1.326999
N	-0.550387	1.17584	0.763525
O	0.186797	2.114385	1.037367
O	-1.754343	1.111739	1.044257
Br	3.493725	0.0	0.0
