15

C	-0.417963	-0.001648	-1.463453
C	0.0	0.0	0.0
Br	-2.613029	0.065562	-1.420238
H	1.093181	0.0	0.0
H	-0.346085	-1.010481	-1.859679
N	0.144721	0.928202	-2.274809
H	-0.060155	0.86884	-3.257852
H	0.238052	1.853396	-1.886209
N	-0.442242	-1.102083	0.764623
H	0.261761	-1.822982	0.79243
H	-1.354007	-1.442263	0.496619
N	-0.433524	1.308701	0.645776
O	-0.080875	2.339379	0.064371
O	-1.078697	1.282947	1.68206
Br	3.42922	0.0	0.0
