15

C	-0.581417	0.015157	-1.407381
C	0.0	0.0	0.0
Br	0.123908	-1.6344	-2.340765
H	1.095568	0.0	0.0
H	-0.162465	0.824423	-1.998306
N	-1.987416	0.06474	-1.335854
H	-2.422527	0.002733	-2.246074
H	-2.305421	-0.686246	-0.732718
N	-0.577686	-1.085755	0.771285
H	0.116333	-1.827369	0.795886
H	-0.711594	-0.754034	1.719672
N	-0.389725	1.321397	0.615844
O	-0.124935	2.323527	-0.039126
O	-0.921371	1.327736	1.72789
Br	3.471858	0.0	0.0
