15

C	-0.491659	-0.041741	-1.429852
C	0.0	0.0	0.0
Br	-2.662354	0.156864	-1.267624
H	1.094799	0.0	0.0
H	-0.487422	-1.069656	-1.777599
N	0.071243	0.834558	-2.304577
H	-0.210674	0.752414	-3.266969
H	0.192859	1.773595	-1.95957
N	-0.455478	-1.116251	0.741941
H	0.12824	-1.237733	1.557979
H	-1.420413	-1.003333	1.023833
N	-0.366577	1.342686	0.641452
O	-0.115481	2.364904	0.00336
O	-0.846509	1.327533	1.769767
Br	3.427953	0.0	0.0
