15

C	-0.517966	0.028792	-1.45522
C	0.0	0.0	0.0
Br	-0.172334	-1.728863	-2.250253
H	1.094501	0.0	0.0
H	0.096398	0.727865	-2.019405
N	-1.905983	0.366927	-1.642532
H	-2.025679	1.363274	-1.51042
H	-2.494969	-0.120449	-0.979348
N	-0.45554	-1.028668	0.864588
H	0.261408	-1.737168	0.935138
H	-1.32897	-1.446276	0.585996
N	-0.453846	1.353965	0.521176
O	-1.325629	1.403726	1.385245
O	0.024394	2.333741	-0.050823
Br	3.471164	0.0	0.0
