12

C	0.0	0.0	0.0
C	-0.492368	0.409115	-1.40815
Cl	1.785971	0.0	0.0
H	-1.177513	1.249811	-1.283348
H	-0.3432	-1.006092	0.217358
H	0.369599	0.715245	-2.010438
C	-0.44389	0.923259	1.043947
N	-0.585138	1.743412	1.873064
N	-1.14837	-0.753378	-2.002747
H	-1.436863	-0.499677	-2.943942
H	-1.994379	-0.768592	-1.401712
F	-2.572784	0.0	0.0
