12

C	0.0	0.0	0.0
C	-0.462803	-0.190293	-1.497657
Cl	1.787294	0.0	0.0
H	0.436271	-0.344472	-2.103585
H	-0.354053	-0.810763	0.627715
H	-1.066713	-1.094026	-1.502024
C	-0.448249	1.273169	0.556223
N	-0.579585	2.370079	0.957803
N	-1.278968	0.855378	-2.071606
H	-2.081156	0.833701	-1.418917
H	-0.806456	1.748266	-1.969816
F	-2.518977	0.0	0.0
