12

C	0.0	0.0	0.0
C	-0.417488	0.344616	-1.465085
Cl	1.78613	0.0	0.0
H	0.496516	0.407157	-2.063138
H	-0.368528	-0.988005	0.253594
H	-0.889171	1.337025	-1.449445
C	-0.460805	0.986248	0.972896
N	-0.62408	1.838586	1.76312
N	-1.26523	-0.708178	-2.005377
H	-2.091637	-0.605719	-1.373668
H	-1.535891	-0.427114	-2.944007
F	-2.596103	0.0	0.0
