12

C	0.0	0.0	0.0
C	-0.476724	0.343418	-1.434359
Cl	1.786314	0.0	0.0
H	-1.104888	1.23572	-1.367985
H	-0.351895	-0.991575	0.266245
H	0.401811	0.562135	-2.050093
C	-0.442095	0.980317	0.989993
N	-0.604258	1.824094	1.791047
N	-1.191142	-0.813727	-1.964356
H	-2.029997	-0.765462	-1.348628
H	-1.481395	-0.58859	-2.912313
F	-2.59149	0.0	0.0
