12

C	0.0	0.0	0.0
C	-0.452041	-0.121751	-1.469694
Cl	1.789996	0.0	0.0
H	-1.500601	0.180572	-1.427253
H	-0.374401	-0.837432	0.578792
H	0.16787	0.54279	-2.081146
C	-0.444618	1.256272	0.603587
N	-0.587514	2.320256	1.082476
N	-0.377114	-1.480402	-1.989264
H	0.52405	-1.889749	-1.763102
H	-1.094077	-2.006374	-1.499766
F	-2.542991	0.0	0.0
