12

C	0.0	0.0	0.0
C	-0.277265	-0.087117	-1.574308
Cl	1.787183	0.0	0.0
H	0.512673	0.519099	-2.028025
H	-0.404241	-0.848555	0.540501
H	-0.04131	-1.133354	-1.811744
C	-0.461911	1.253582	0.583699
N	-0.680429	2.307379	1.053928
N	-1.539788	0.283559	-2.144606
H	-1.574826	1.297365	-2.164709
H	-2.248495	0.035336	-1.397829
F	-2.710069	0.0	0.0
