18

C	-0.383584	0.011658	-1.471317
C	0.0	0.0	0.0
Cl	-2.204494	-0.191212	-1.630475
H	1.097646	0.0	0.0
H	-0.32897	-0.951518	0.432161
C	-0.01393	1.31793	-2.151562
H	1.058672	1.484749	-2.008236
H	-0.233557	1.268734	-3.221339
H	-0.565227	2.158565	-1.72782
C	0.262054	-1.168362	-2.17686
H	1.348166	-1.07505	-2.075886
H	-0.013574	-1.191617	-3.2349
H	-0.048535	-2.108049	-1.713982
C	-0.508985	1.163928	0.839079
H	-0.051787	2.105604	0.528508
H	-0.230485	1.006316	1.884105
H	-1.596765	1.264691	0.783955
Br	3.687243	0.0	0.0
