13
Coordinates from ORCA-job run
  C   -0.58853907756932      0.27787279675020      0.10659783510716
  C   0.85089933277408     -0.05398667426931     -0.23902972617986
  Br  -0.67357381626312      0.92763880350823      1.96158069098298
  H   1.20124390711900     -0.84435812803798      0.44271759200250
  H   -0.90723935691290      1.13058709439485     -0.49495700222359
  H   0.84136967277037     -0.47347655067087     -1.25191100483849
  C   -1.52524979157498     -0.90411666542480     -0.04792193596763
  H   -1.51964231544378     -1.23750289044886     -1.09054186976044
  H   -2.54766995642245     -0.63711046025081      0.22144562007953
  H   -1.20978028101641     -1.73587277229150      0.58537130900377
  N   1.67965123791326      1.14443105486922     -0.26022185213740
  H   2.59906384532949      0.91822234830105     -0.61837208301231
  H   1.79846659929674      1.48767204357058      0.68524242694376
