13
Coordinates from ORCA-job run
  C   -0.68957052483015      0.49021638196564      0.00422677935668
  C   0.72790450874881      0.69988202383628     -0.53754141185187
  Br  -0.81126556288005      1.23785094153042      1.81820462683614
  H   0.71466693551059      0.38151988599168     -1.58744769536441
  H   -1.38734534421139      1.09385282284167     -0.58182821136205
  H   0.95134332472375      1.76980736202223     -0.53373999519653
  C   -1.13177040809454     -0.95987622634447      0.02956868870027
  H   -1.06432821465913     -1.37722196403029     -0.98082548245355
  H   -2.16259342502002     -1.05349243969909      0.37265838070550
  H   -0.50168111468326     -1.55172328704697      0.69510499171970
  N   1.81332980644444      0.00601250773906      0.12874401042317
  H   1.84318870721364      0.26089015020487      1.10793127249204
  H   1.69912131173731     -0.99671815901102      0.06594404599491
