13

C	-0.208584	0.13608	0.045062
C	-0.44164	0.131238	-1.475817
Cl	1.18019	-0.925157	0.449847
H	0.488133	0.414558	-1.98684
H	-1.162214	-0.329166	0.449124
C	0.064819	1.469149	0.552128
N	0.282351	2.544949	0.974337
C	-1.44223	1.180542	-1.788654
N	-2.215504	1.990793	-2.145165
N	-0.86007	-1.199289	-1.872226
H	-1.667182	-1.395583	-1.23853
H	-1.177392	-1.16886	-2.834507
F	-2.535373	-1.049095	0.123795
