13

C	-0.207331	0.143675	0.028494
C	-0.442746	-0.020319	-1.483066
Cl	1.183726	-0.867284	0.540233
H	0.4853	0.209884	-2.02313
H	-1.159932	-0.277387	0.480286
C	0.065132	1.522777	0.393264
N	0.281816	2.637292	0.699588
C	-1.44704	0.988028	-1.900447
N	-2.222975	1.756143	-2.335606
N	-0.858519	-1.386235	-1.73772
H	-1.663402	-1.516795	-1.084492
H	-1.180297	-1.455421	-2.696587
F	-2.533487	-1.028356	0.23261
