18

C	0.0	0.0	0.0
C	-0.28855	-0.136278	-1.542076
Cl	1.773462	0.0	0.0
H	0.475214	-0.85438	-1.871785
N	-0.641447	1.177847	0.594253
O	-1.813314	1.37325	0.049718
O	-0.326794	1.465939	1.779443
C	-0.505888	-1.196612	0.769341
H	-1.6034	-1.129684	0.772513
H	-0.203527	-2.130711	0.294614
H	-0.134353	-1.135991	1.793277
N	-0.07362	1.156888	-2.215443
H	0.756774	1.596991	-1.829974
H	0.132932	0.953148	-3.190708
N	-1.565558	-0.736112	-1.865803
H	-2.278477	-0.320738	-1.243724
H	-1.803802	-0.429944	-2.804738
H	-3.086432	0.0	0.0
