18

C	0.0	0.0	0.0
C	-0.494691	0.003066	-1.48656
Cl	1.773681	0.0	0.0
H	0.278038	0.542365	-2.042911
N	-0.32231	1.382583	0.585373
O	-0.059515	2.352143	-0.122184
O	-0.773844	1.444209	1.722294
C	-0.592971	-1.066859	0.872209
H	-0.284665	-2.036403	0.482728
H	-1.686742	-0.955868	0.830538
H	-0.253948	-0.960094	1.90208
N	-1.760734	0.625102	-1.751326
H	-2.524932	0.313511	-1.09317
H	-1.680591	1.63036	-1.653927
N	-0.468916	-1.395655	-1.918201
H	-1.321965	-1.812268	-1.549159
H	-0.621666	-1.359723	-2.921567
H	-3.656385	0.0	0.0
