16

C	0.0	0.0	0.0
C	-0.344704	-0.32331	-1.441833
F	1.399123	0.0	0.0
H	0.086857	-1.306842	-1.629934
H	0.250221	0.398361	-2.008406
N	-0.535471	1.180863	0.503833
H	-0.354761	1.24756	1.499156
H	-1.54564	1.171052	0.359922
N	-0.263123	-1.216089	0.951216
O	-0.276109	-2.343576	0.472527
O	-0.357242	-0.948083	2.146037
C	-1.794774	-0.279346	-1.881662
H	-2.202977	0.729893	-1.866201
H	-2.458582	-0.874691	-1.262415
H	-1.859047	-0.648644	-2.908928
Cl	-4.471032	0.0	0.0
