16

C	0.0	0.0	0.0
C	-0.521102	0.371847	-1.375452
F	1.357715	0.0	0.0
H	-0.195837	1.410486	-1.520909
H	-1.614476	0.37602	-1.298104
N	-0.512284	0.753378	1.089104
H	-1.503278	0.507063	1.170629
H	-0.486543	1.732056	0.824709
N	-0.326265	-1.482938	0.297343
O	0.38741	-2.306056	-0.276286
O	-1.247659	-1.738743	1.059376
C	-0.042608	-0.485473	-2.540292
H	-0.494746	-1.475897	-2.513507
H	1.041967	-0.606323	-2.530174
H	-0.332858	-0.011017	-3.481006
Cl	-3.82659	0.0	0.0
