16

C	0.0	0.0	0.0
C	-0.297447	-0.117131	-1.4958
F	1.366221	0.0	0.0
H	0.169392	0.790039	-1.894508
H	0.318911	-0.955296	-1.825738
N	-0.576493	1.082653	0.65619
H	-0.426693	1.002423	1.655534
H	-1.584643	1.066265	0.479952
N	-0.274509	-1.346814	0.749674
O	-0.367867	-2.37765	0.092826
O	-0.287342	-1.278614	1.976697
C	-1.70242	-0.26492	-2.044136
H	-2.20089	-1.153401	-1.667952
H	-2.348556	0.568525	-1.787062
H	-1.637328	-0.323841	-3.13579
Cl	-4.152661	0.0	0.0
