16

C	0.0	0.0	0.0
C	-0.496155	0.278275	-1.405225
F	1.357927	0.0	0.0
H	0.027506	-0.404855	-2.077404
H	-1.565906	0.051587	-1.414137
N	-0.495062	0.786568	1.066002
H	-1.503222	0.615157	1.120678
H	-0.364528	1.762458	0.824015
N	-0.336581	-1.473888	0.326056
O	0.152184	-2.296045	-0.448145
O	-1.01354	-1.729749	1.311014
C	-0.261524	1.730579	-1.809321
H	0.772816	2.036991	-1.625333
H	-0.935463	2.398483	-1.269686
H	-0.465696	1.861869	-2.87342
Cl	-3.696248	0.0	0.0
