15

C	-0.42269	0.003468	-1.457293
C	0.0	0.0	0.0
F	-1.816842	-0.096192	-1.532162
H	1.093819	0.0	0.0
H	-0.010918	-0.897146	-1.915499
C	0.038908	1.253268	-2.164315
H	1.123834	1.342966	-2.068377
H	-0.436719	2.133713	-1.727269
H	-0.231304	1.198256	-3.220961
N	-0.429594	-1.286159	0.649827
O	-1.010382	-1.230028	1.731533
O	-0.136145	-2.313671	0.046017
C	-0.53301	1.137262	0.734007
N	-0.922828	2.105062	1.272479
Br	3.357605	0.0	0.0
