15

C	-0.410418	0.01612	-1.459562
C	0.0	0.0	0.0
F	-1.806383	-0.012334	-1.551676
H	1.093806	0.0	0.0
H	-0.040289	-0.905424	-1.910501
C	0.128084	1.237109	-2.163392
H	-0.117152	1.188377	-3.226191
H	1.213211	1.272469	-2.039365
H	-0.312051	2.143945	-1.743359
N	-0.428801	-1.277536	0.665588
O	-0.307371	-2.304307	0.005357
O	-0.822933	-1.218766	1.826532
C	-0.522817	1.142741	0.732995
N	-0.922429	2.109501	1.266435
Br	3.344814	0.0	0.0
