15

C	-0.490825	0.127217	-1.45277
C	0.0	0.0	0.0
F	-0.252245	1.439606	-1.840115
H	1.091382	0.0	0.0
H	-1.57694	-0.018688	-1.483626
C	0.25403	-0.804998	-2.376613
H	0.008549	-1.846818	-2.164104
H	-0.024035	-0.582243	-3.408957
H	1.328779	-0.666151	-2.239734
N	-0.489802	-1.328212	0.505178
O	0.272586	-2.282969	0.404433
O	-1.648655	-1.375848	0.922556
C	-0.546451	1.059121	0.83593
N	-0.982466	1.927438	1.494708
Br	3.429183	0.0	0.0
