15

C	-0.526154	-0.016549	-1.441139
C	0.0	0.0	0.0
F	-0.144226	1.186754	-2.018244
H	1.091344	0.0	0.0
H	-1.621677	-0.028692	-1.427417
C	0.051623	-1.165085	-2.232722
H	-0.349018	-2.118822	-1.881994
H	1.138656	-1.173328	-2.128239
H	-0.219832	-1.043538	-3.283525
N	-0.496451	-1.263166	0.647197
O	-1.696131	-1.301335	0.930285
O	0.300453	-2.183461	0.78594
C	-0.527357	1.140403	0.738565
N	-0.950781	2.069375	1.318328
Br	3.417132	0.0	0.0
