15

C	-0.516058	0.012974	-1.446416
C	0.0	0.0	0.0
F	0.004763	-1.073813	-2.120625
H	1.091833	0.0	0.0
H	-0.100702	0.91523	-1.905481
C	-2.023386	-0.029522	-1.567359
H	-2.300722	0.008765	-2.622495
H	-2.48259	0.812485	-1.048963
H	-2.411138	-0.955911	-1.142436
N	-0.503468	-1.229687	0.693613
O	-1.498992	-1.118933	1.413992
O	0.083401	-2.274719	0.441749
C	-0.487072	1.18719	0.690598
N	-0.861108	2.185146	1.183363
Br	3.387418	0.0	0.0
