15

C	-0.408744	0.007978	-1.459866
C	0.0	0.0	0.0
F	-1.805375	-0.024389	-1.552453
H	1.093766	0.0	0.0
H	-0.036611	-0.914373	-1.907191
C	0.12652	1.227419	-2.168846
H	1.211634	1.267314	-2.045129
H	-0.118799	1.173013	-3.231535
H	-0.316592	2.134618	-1.75303
N	-0.426348	-1.275656	0.671592
O	-0.307945	-2.304456	0.014559
O	-0.813109	-1.212981	1.834809
C	-0.524412	1.145048	0.728087
N	-0.923656	2.105645	1.272793
Br	3.345569	0.0	0.0
