15

C	-0.369575	0.108109	-1.466878
C	0.0	0.0	0.0
F	-1.708374	0.527124	-1.599207
H	1.095396	0.0	0.0
H	-0.320172	0.949781	0.439958
N	0.46919	1.074672	-2.094061
H	0.476385	0.972354	-3.100359
H	1.420205	0.998997	-1.73601
C	-0.352124	-1.217283	-2.146912
N	-0.323321	-2.26077	-2.685769
C	-0.601461	-1.186269	0.731354
H	-0.197116	-2.127776	0.354031
H	-1.690579	-1.208994	0.629225
H	-0.357188	-1.126476	1.794203
Br	3.593264	0.0	0.0
