15

C	-0.353746	-0.040333	-1.47426
C	0.0	0.0	0.0
F	-0.09463	1.241002	-2.019276
H	1.096071	0.0	0.0
H	-0.360878	0.946879	0.407976
N	0.387307	-1.055408	-2.121781
H	1.371712	-0.958904	-1.875655
H	0.272433	-1.002714	-3.125183
C	-1.806264	-0.243592	-1.703807
N	-2.964189	-0.370292	-1.850143
C	-0.52654	-1.197408	0.777848
H	-0.165384	-1.152761	1.807461
H	-1.620299	-1.226507	0.796903
H	-0.162851	-2.125381	0.334936
Br	3.670903	0.0	0.0
