15

C	-0.317765	-0.044026	-1.487338
C	0.0	0.0	0.0
F	-0.15667	1.268595	-2.00095
H	1.095984	0.0	0.0
H	-0.374254	0.942462	0.40437
N	0.529626	-0.976722	-2.126218
H	0.46553	-0.906749	-3.133324
H	1.491208	-0.830518	-1.818129
C	-1.737342	-0.373299	-1.777223
N	-2.864903	-0.627459	-1.985311
C	-0.517959	-1.208296	0.766889
H	-1.611395	-1.248171	0.78663
H	-0.144963	-2.129196	0.315696
H	-0.15565	-1.170544	1.796483
Br	3.623181	0.0	0.0
