15

C	-0.511428	0.026762	-1.426927
C	0.0	0.0	0.0
F	-0.078575	-1.092361	-2.115956
H	1.093412	0.0	0.0
H	-0.313696	0.933574	0.484666
N	-1.956606	-0.00373	-1.464612
H	-2.326268	0.658518	-0.796528
H	-2.29125	0.240938	-2.387819
C	0.015659	1.203848	-2.169616
N	0.308992	2.182813	-2.749693
C	-0.502626	-1.217958	0.767983
H	-0.22573	-2.129642	0.236222
H	-1.585655	-1.217107	0.908481
H	-0.016813	-1.24524	1.745827
Br	3.662591	0.0	0.0
