15

C	-0.369571	0.114445	-1.466355
C	0.0	0.0	0.0
F	-1.708538	0.533456	-1.596775
H	1.095349	0.0	0.0
H	-0.320423	0.947729	0.444132
N	0.468431	1.084162	-2.089154
H	0.472469	0.989427	-3.096286
H	1.420233	1.00548	-1.734296
C	-0.352084	-1.208141	-2.15182
N	-0.328615	-2.249168	-2.695443
C	-0.601146	-1.189512	0.726242
H	-0.357689	-1.133895	1.789494
H	-1.69018	-1.21237	0.623268
H	-0.195936	-2.129143	0.345371
Br	3.594648	0.0	0.0
