12

C	0.0	0.0	0.0
C	-0.372009	-0.115758	-1.466768
F	1.354034	0.0	0.0
H	-1.45273	-0.036447	-1.534134
H	-0.009469	-1.089052	-1.810171
H	0.157588	0.672517	-2.004833
N	-0.40262	1.332073	0.598831
O	-0.455877	2.290961	-0.16156
O	-0.485789	1.384539	1.820675
C	-0.510032	-1.082866	0.844354
N	-0.587922	-2.058485	1.497301
F	-2.404856	0.0	0.0
