12

C	0.0	0.0	0.0
C	-0.364672	-0.092243	-1.469251
F	1.36736	0.0	0.0
H	-1.44211	0.014324	-1.545175
H	-0.029248	-1.073167	-1.82031
H	0.190811	0.68508	-1.997596
N	-0.395542	1.324563	0.616488
O	-0.472013	1.364396	1.838863
O	-0.451682	2.291441	-0.133963
C	-0.503528	-1.09484	0.830468
N	-0.583499	-2.073564	1.478528
F	-2.394701	0.0	0.0
