12

C	0.0	0.0	0.0
C	-0.391552	-0.077357	-1.461884
F	1.353975	0.0	0.0
H	-1.47865	-0.048235	-1.495039
H	0.0799	0.759778	-1.977902
H	0.013974	-1.01563	-1.851097
N	-0.408661	1.31072	0.644293
O	-0.457192	2.293595	-0.084046
O	-0.505264	1.322442	1.865845
C	-0.497498	-1.112582	0.816037
N	-0.621682	-2.111144	1.424092
F	-2.430666	0.0	0.0
