16

C	0.0	0.0	0.0
C	-0.655022	0.148847	-1.390532
Br	1.95538	0.0	0.0
H	-1.703059	0.401145	-1.135361
C	-0.336924	1.193335	0.786752
N	-0.546882	2.164881	1.414772
C	-0.493156	-1.26336	0.691581
H	-0.084686	-1.320899	1.70128
H	-1.585896	-1.219683	0.731445
H	-0.169211	-2.12476	0.109053
N	-0.613182	-1.103093	-2.136925
H	-1.549048	-1.487815	-2.127739
H	-0.334366	-0.946664	-3.096196
C	-0.076618	1.253991	-2.150115
N	0.376146	2.108081	-2.819393
Cl	-3.684869	0.0	0.0
