16

C	0.0	0.0	0.0
C	-0.409303	0.05554	-1.524961
Br	1.962763	0.0	0.0
H	0.283983	0.767782	-1.986633
C	-0.371027	1.283968	0.594013
N	-0.625697	2.337268	1.050194
C	-0.603286	-1.161837	0.762857
H	-0.296184	-1.134243	1.809547
H	-0.288352	-2.107176	0.317798
H	-1.694853	-1.066546	0.708188
N	-1.742375	0.470983	-1.843993
H	-1.859112	1.452596	-1.620304
H	-2.486154	-0.013095	-1.329163
C	-0.121477	-1.260567	-2.121197
N	0.09923	-2.318314	-2.581042
Cl	-4.22899	0.0	0.0
