14

C	-0.416668	-0.011879	-1.464447
C	0.0	0.0	0.0
F	-1.805201	-0.094128	-1.582309
H	1.096867	0.0	0.0
H	0.007366	-0.882369	-1.970858
C	0.00506	1.209679	-2.168432
N	0.285249	2.184688	-2.758198
C	-0.480596	-1.234698	0.615977
N	-0.891387	-2.215329	1.114877
C	-0.505514	1.223499	0.7644
H	-0.184774	1.161753	1.805478
H	-0.066356	2.12604	0.334433
H	-1.595084	1.29659	0.729057
Cl	3.273269	0.0	0.0
