14

C	-0.414128	-0.012062	-1.464868
C	0.0	0.0	0.0
F	-1.79854	-0.130393	-1.590682
H	1.096802	0.0	0.0
H	0.036953	-0.86739	-1.974475
C	-0.017461	1.224814	-2.156365
N	0.245813	2.209151	-2.737608
C	-0.475101	-1.237173	0.615753
N	-0.884398	-2.216427	1.118438
C	-0.512616	1.224391	0.757738
H	-0.204381	1.161001	1.802332
H	-1.601733	1.297535	0.710731
H	-0.068292	2.126805	0.333457
Cl	3.28725	0.0	0.0
