14

C	-0.411276	0.024481	-1.46707
C	0.0	0.0	0.0
F	-0.060753	-1.153128	-2.094483
H	1.095893	0.0	0.0
H	0.124675	0.840804	-1.961278
C	-1.865038	0.219478	-1.64261
N	-3.019333	0.389323	-1.774157
C	-0.525276	-1.193508	0.653537
N	-0.966756	-2.129095	1.209724
C	-0.453023	1.272149	0.721201
H	-0.048026	1.269724	1.733787
H	-1.541575	1.356527	0.771819
H	-0.044615	2.146298	0.207516
Cl	3.300431	0.0	0.0
