14

C	-0.418077	-0.007546	-1.463899
C	0.0	0.0	0.0
F	-1.806974	-0.096596	-1.57991
H	1.096756	0.0	0.0
H	0.008984	-0.876353	-1.971369
C	-0.002563	1.217055	-2.16834
N	0.273167	2.194412	-2.75892
C	-0.481388	-1.234205	0.616834
N	-0.899045	-2.21259	1.115717
C	-0.506873	1.22456	0.761231
H	-0.185982	1.163365	1.802172
H	-0.067727	2.126671	0.330221
H	-1.596471	1.297352	0.7258
Cl	3.272365	0.0	0.0
