14

C	-0.510845	-0.014904	-1.43954
C	0.0	0.0	0.0
F	-0.095094	1.130781	-2.093145
H	1.095798	0.0	0.0
H	-1.6082	-0.005874	-1.449688
C	-0.065085	-1.191634	-2.204038
N	0.212019	-2.134679	-2.845336
C	-0.505063	-1.193639	0.672014
N	-0.965407	-2.124997	1.221155
C	-0.466551	1.267412	0.720263
H	-0.052127	2.136914	0.210343
H	-0.08558	1.261844	1.74228
H	-1.55851	1.344382	0.747496
Cl	3.291051	0.0	0.0
