14

C	-0.510606	-0.014685	-1.440259
C	0.0	0.0	0.0
F	-0.103403	1.135592	-2.090616
H	1.095776	0.0	0.0
H	-1.608011	-0.015065	-1.450844
C	-0.053984	-1.18614	-2.207526
N	0.231277	-2.12526	-2.851679
C	-0.503265	-1.196435	0.668731
N	-0.957759	-2.132797	1.214358
C	-0.46814	1.264883	0.723353
H	-1.560009	1.342853	0.746542
H	-0.051101	2.135829	0.218435
H	-0.091351	1.255132	1.746944
Cl	3.296917	0.0	0.0
