14

C	-0.40428	0.026965	-1.469962
C	0.0	0.0	0.0
F	-0.102077	-1.170586	-2.084692
H	1.095835	0.0	0.0
H	0.17092	0.813932	-1.967556
C	-1.846279	0.286849	-1.656675
N	-2.99012	0.515517	-1.789765
C	-0.535228	-1.188275	0.653981
N	-0.991739	-2.116088	1.211103
C	-0.445078	1.276903	0.71842
H	-0.036057	2.147361	0.198703
H	-1.53293	1.365982	0.77376
H	-0.034081	1.277326	1.728567
Cl	3.287254	0.0	0.0
