14

C	-0.411238	0.024934	-1.467071
C	0.0	0.0	0.0
F	-0.060492	-1.152397	-2.094879
H	1.095897	0.0	0.0
H	0.124598	0.841519	-1.960975
C	-1.865022	0.219748	-1.642601
N	-3.019337	0.389462	-1.774137
C	-0.525347	-1.1937	0.653124
N	-0.967692	-2.129173	1.208816
C	-0.453042	1.2719	0.721624
H	-1.541597	1.356257	0.772218
H	-0.044604	2.146224	0.208261
H	-0.048101	1.269113	1.734229
Cl	3.30053	0.0	0.0
