10
Coordinates from ORCA-job run
  C   0.42862637760690     -0.53438695203396     -0.18775811905042
  C   -0.42794658522860      0.53908468741984      0.48182337100696
  F   0.42702024179100     -0.32797439592736     -1.54953222420128
  H   -0.03244206871592      1.52203115993501      0.21278366680823
  H   0.02233463587399     -1.53168367708854      0.00036663691412
  H   -0.36998305985070      0.43627996444956      1.56890334044397
  C   1.80877558749031     -0.46714741348535      0.31575132269754
  N   2.89970776754405     -0.40204821977513      0.74280575669488
  C   -1.81975747052868      0.43481384934140      0.04929536083589
  N   -2.93633542598236      0.33203099716452     -0.29443911214990
