10
Coordinates from ORCA-job run
  C   0.60932179500399     -0.49986537230943      0.49883020385372
  C   -0.86829401208047     -0.16611568620578      0.29036777825436
  F   0.70962385275767     -1.85927908455622      0.71360498970753
  H   -1.42586296903417     -0.53293567520432      1.15599755350673
  H   1.00050612890983      0.01168585347227      1.38207037858705
  H   -1.23197073269429     -0.69073079573709     -0.59646107323248
  C   1.41613817987899     -0.13207180569584     -0.67325167997543
  N   2.05424852633076      0.16224562904835     -1.61312024184267
  C   -1.06599620675608      1.27260669012199      0.14276342565638
  N   -1.19771456231624      2.43346024706608      0.03719866548481
