10
Coordinates from ORCA-job run
  C   0.45409815487290     -0.56610540504936      0.35218562419106
  C   -0.44493581700409      0.59317794107345     -0.07440112931456
  F   -0.01608193204708     -1.73225945762765     -0.20976445906007
  H   -0.45350033810232      0.64864611323844     -1.16592801652546
  H   0.44390196981828     -0.68943712887747      1.43841629368441
  H   -0.04283304375658      1.53510345855463      0.30913175095632
  C   1.83361966903149     -0.32752698161584     -0.09904612516176
  N   2.92828942908295     -0.10910405375906     -0.46026771467562
  C   -1.80679633343266      0.40161212355622      0.41913974064300
  N   -2.89476175846289      0.24589339050665      0.82853403526268
