10
Coordinates from ORCA-job run
  C   0.65527887625225     -0.43263480957367      0.50864471615736
  C   -0.84264855594141     -0.14415518937533      0.40339441077306
  F   0.80500003027025     -1.74141386078117      0.91942850136539
  H   -1.30199426048263     -0.37267104539490      1.36858738151233
  H   1.12210003839346      0.21219847883685      1.25755263491106
  H   -1.28159060370067     -0.80532341049263     -0.34779012141439
  C   1.33205058296685     -0.24792512936087     -0.78268949406416
  N   1.86235821052740     -0.09937971898827     -1.81891016783420
  C   -1.08787248898994      1.25135821439876      0.05233918606067
  N   -1.26168182929557      2.37894647073123     -0.22055704746713
