10
Coordinates from ORCA-job run
  C   0.52607476898040     -0.44199758843936     -0.18772486412843
  C   -0.52891650444946      0.44185372098365      0.47633602758406
  F   0.80528160791967      0.05298090789810     -1.44186104582649
  H   -0.15623748103802      1.46908078036551      0.50623207566022
  H   0.16042202846682     -1.46559636054091     -0.30495836466599
  H   -0.69554610320246      0.11207040090625      1.50574901303480
  C   1.75438974123383     -0.45316634774770      0.62070921735190
  N   2.71529121523150     -0.45339104099660      1.29413926091375
  C   -1.78631272127115      0.39643883496089     -0.26631206959700
  N   -2.79544655187113      0.34072669261017     -0.86130925032683
