10
Coordinates from ORCA-job run
  C   0.60222582583991     -0.51557352902738      0.49023718376391
  C   -0.86862382013661     -0.14412681185239      0.29918958544235
  F   0.67027240103259     -1.87761357108952      0.70141532993697
  H   -1.42570879114035     -0.50225522675179      1.16874993395284
  H   1.01604974372481     -0.01603925069531      1.36997889726598
  H   -1.25492506347499     -0.65424593945228     -0.58648484246087
  C   1.40409454122446     -0.16628871062390     -0.69078883427281
  N   2.03448585791972      0.11377861576656     -1.64006959054397
  C   -1.03361223003825      1.29973886159562      0.16179903464649
  N   -1.14425846495129      2.46362556213039      0.06497330226910
