10
Coordinates from ORCA-job run
  C   0.51444307289227     -0.49186044874301     -0.12913459222315
  C   -0.51818658696679      0.48732556695367      0.42702619890566
  F   0.65442566995763     -0.27862741287403     -1.48278034784062
  H   -0.18567099605115      1.50662363383301      0.21443106180077
  H   0.19081802767658     -1.52604398263437      0.01530711730232
  H   -0.59010273715470      0.37432402968967      1.51241767246209
  C   1.81078807434831     -0.28691916527330      0.53431243538221
  N   2.83007275376282     -0.10643671348450      1.08673001134144
  C   -1.82779454712370      0.26046852646131     -0.17955043099789
  N   -2.87879273134126      0.06014596607156     -0.65975912613283
