10
Coordinates from ORCA-job run
  C   0.61159018717790     -0.52606233980580      0.45818587646847
  C   -0.86175933046336     -0.13654046622155      0.33283252887687
  F   0.67258806599342     -1.89219755164902      0.64520479851536
  H   -1.38796441362233     -0.50750046396878      1.21617638543900
  H   1.06687638423494     -0.04538600043338      1.32783770039963
  H   -1.28747527645725     -0.62483430506176     -0.54716331399320
  C   1.36736207649960     -0.16832387721083     -0.75032686309937
  N   1.95715355533817      0.11259806480531     -1.72535824598583
  C   -1.01743885682901      1.31109754658862      0.22969038030084
  N   -1.11993239187207      2.47714939295718      0.15292075307822
