10
Coordinates from ORCA-job run
  C   0.63170771594603     -0.48478392005324      0.47919722290159
  C   -0.84941925625163     -0.11452407973900      0.39416036369506
  F   0.71463376512173     -1.81913120043478      0.82180701315339
  H   -1.32114687599679     -0.70274116087861     -0.39659080254597
  H   1.13160402494787      0.09588802064138      1.25870029363136
  H   -1.32098327034838     -0.37994932667499      1.34384752782092
  C   1.31577210230277     -0.26991857223343     -0.80370223254693
  N   1.85145101457076     -0.10147917255405     -1.83403667639493
  C   -1.02127450445797      1.31156129724169      0.13446636077736
  N   -1.13334471583440      2.46307811468504     -0.05984907049186
