10
Coordinates from ORCA-job run
  C   0.51866946929639     -0.71365897048499      0.24850725600266
  C   -0.75147592349221      0.03791519962549      0.63867694209759
  F   0.24740582281627     -1.53227716425453     -0.82574080711117
  H   -0.55587026103499      0.65470770810187      1.52055955334885
  H   0.83956296500120     -1.34775006701301      1.08007995155658
  H   -1.51710536886998     -0.69706538325046      0.90090374052609
  C   1.60910202084870      0.20879039269914     -0.09964828619303
  N   2.48046380677571      0.95473181729528     -0.34707912101629
  C   -1.24041686242829      0.87892633730806     -0.45161700499851
  N   -1.63233566891282      1.55568012997314     -1.32564222421275
