18

C	0.0	0.0	0.0
C	-0.605722	-0.001497	-1.399383
F	1.360186	0.0	0.0
H	-1.699774	-0.000506	-1.243297
N	-0.316985	1.382573	0.62321
O	-1.482847	1.74363	0.594404
O	0.626657	2.011363	1.095432
C	-0.573615	-1.047087	0.914228
H	-1.662291	-0.922674	0.942449
H	-0.328049	-2.038641	0.528189
H	-0.142905	-0.934485	1.911983
C	-0.21717	-1.247902	-2.059375
N	0.123181	-2.224822	-2.615624
C	-0.182506	1.202939	-2.243049
H	-0.603175	2.113787	-1.817663
H	0.905258	1.28803	-2.288024
H	-0.569494	1.098391	-3.258419
Cl	-4.005235	0.0	0.0
