18

C	0.0	0.0	0.0
C	-0.539385	0.164158	-1.419916
F	1.359887	0.0	0.0
H	-1.629305	0.291084	-1.307186
N	-0.349523	1.24545	0.832734
O	0.162547	1.275662	1.949118
O	-1.072347	2.109203	0.352801
C	-0.534292	-1.197586	0.734403
H	-0.229657	-2.103765	0.209172
H	-0.120539	-1.206101	1.74278
H	-1.626432	-1.132482	0.762475
C	-0.286596	-1.086926	-2.138342
N	-0.038746	-2.057073	-2.752838
C	0.100562	1.313056	-2.211202
H	-0.19729	2.270855	-1.792029
H	1.189381	1.228649	-2.197295
H	-0.23253	1.270931	-3.249568
Cl	-3.740379	0.0	0.0
