18

C	0.0	0.0	0.0
C	-0.428038	-0.197608	-1.479815
F	1.371182	0.0	0.0
H	0.503761	-0.008134	-2.025908
N	-0.288946	1.438575	0.446848
O	0.010769	2.306479	-0.370665
O	-0.654993	1.634749	1.597721
C	-0.500684	-0.978254	1.016579
H	-0.16474	-1.977838	0.740207
H	-0.090641	-0.715867	1.990879
H	-1.590816	-0.931463	1.041973
C	-1.376246	0.756186	-2.069502
N	-1.954336	1.450161	-2.822001
C	-0.894589	-1.625724	-1.781123
H	-1.075867	-1.718205	-2.854187
H	-0.128829	-2.352821	-1.498968
H	-1.828516	-1.816839	-1.252726
Cl	-3.556234	0.0	0.0
