18

C	0.0	0.0	0.0
C	-0.603481	-0.036962	-1.399814
F	1.360219	0.0	0.0
H	-1.698365	-0.03204	-1.245784
N	-0.320199	1.405622	0.574991
O	-1.495673	1.732235	0.595331
O	0.63182	2.084431	0.953059
C	-0.569701	-1.023959	0.940451
H	-0.136568	-0.885703	1.933632
H	-1.657881	-0.900717	0.969215
H	-0.321001	-2.023689	0.57767
C	-0.211276	-1.297274	-2.029725
N	0.137422	-2.286469	-2.558147
C	-0.176802	1.148969	-2.269437
H	-0.601001	2.069954	-1.867838
H	0.911151	1.234878	-2.30648
H	-0.556253	1.018915	-3.284048
Cl	-4.021561	0.0	0.0
