18

C	0.0	0.0	0.0
C	-0.616239	0.036835	-1.391571
F	1.359912	0.0	0.0
H	-1.708049	0.064119	-1.217776
N	-0.316199	1.373535	0.652771
O	-1.485403	1.723258	0.660279
O	0.635272	2.008425	1.101455
C	-0.560884	-1.070251	0.895493
H	-1.649244	-0.953737	0.932397
H	-0.125396	-0.972194	1.89216
H	-0.309135	-2.05125	0.487361
C	-0.27346	-1.209513	-2.076887
N	0.022653	-2.193717	-2.645481
C	-0.164418	1.243521	-2.217318
H	-0.573428	1.175511	-3.226546
H	-0.541377	2.161731	-1.765173
H	0.924993	1.289686	-2.278986
Cl	-4.01232	0.0	0.0
