18

C	0.0	0.0	0.0
C	-0.609721	0.01833	-1.393187
F	1.360043	0.0	0.0
H	-1.702264	0.063871	-1.223578
N	-0.307007	1.394098	0.620527
O	0.652251	2.043743	1.029213
O	-1.474845	1.744936	0.639733
C	-0.566725	-1.040211	0.9231
H	-0.322585	-2.034762	0.545397
H	-0.129694	-0.914992	1.916355
H	-1.653807	-0.911746	0.955449
C	-0.275748	-1.241581	-2.056513
N	0.033012	-2.227008	-2.615722
C	-0.128315	1.20635	-2.23087
H	0.962683	1.253863	-2.245284
H	-0.525277	2.133933	-1.81651
H	-0.490767	1.11262	-3.255531
Cl	-3.971685	0.0	0.0
