14
Coordinates from ORCA-job run
  C   0.77386861057669     -0.42330507294918      0.05915899903683
  C   -0.75439601397376     -0.44880247901644      0.20087855548280
  F   1.16235071511215     -1.61935446736490     -0.45894836679092
  H   -0.99676743267066     -1.08137868678024      1.06302752782431
  N   1.21910440800886      0.63095401444563     -0.96197206750257
  O   2.41939174939291      0.85855431542876     -0.97597941891095
  O   0.35268842085409      1.07510923858492     -1.70210468301761
  C   1.46376791957000     -0.19539926108626      1.32629897121576
  N   1.99437183562714     -0.09343879916446      2.36995285780382
  C   -1.41561986652309     -0.97673585891501     -0.98232779399473
  N   -1.93823758142521     -1.45843332486316     -1.91705376664756
  N   -1.29720366090125      0.92622577549393      0.55640702786941
  O   -2.49881021355156      1.07895104589910      0.41794807403095
  O   -0.48450889009631      1.72505356028730      1.00371408360043
