14
Coordinates from ORCA-job run
  C   0.74706793097546     -0.51627725493346      0.04536934082345
  C   -0.78164746640273     -0.43550670177708      0.22612524332793
  F   1.03572850471637     -1.77270348310491     -0.34900096830797
  H   -1.05314099399685     -1.16640218169643      0.99325649415478
  N   1.15156947941772      0.45047085967288     -1.08167048234970
  O   1.51227617336356     -0.04457609855195     -2.13313472879034
  O   1.03149199853288      1.62984723885619     -0.78005363812886
  C   1.51375451827478     -0.16618455422624      1.23711113415799
  N   2.18949146547108      0.05347182157277      2.17373139157015
  C   -1.45126225968594     -0.72753732624755     -1.03151659436352
  N   -1.97736194525490     -0.99798799986605     -2.04658912989453
  N   -1.20844288468348      0.91847914621669      0.77609581225061
  O   -1.78459496242301      1.68262086589517      0.01741484395116
  O   -0.92492955830501      1.09228566818999      1.95386128159888
