14
Coordinates from ORCA-job run
  C   0.61873103756824     -0.48875840616156      0.18026263532839
  C   -0.78203364160666     -0.02961002194539     -0.24191873152568
  F   0.50831072550307     -1.71564722404853      0.73275842239274
  H   -1.18612823342502     -0.78258593144616     -0.92361368213019
  N   1.41690026153033     -0.63721599549239     -1.13447864966916
  O   1.16524505284405     -1.65114320055238     -1.76613187197262
  O   2.16733266907664      0.28200873895350     -1.42657315580828
  C   1.32337337026028      0.42333011271598      1.07252761563883
  N   1.90499565378988      1.12288181925629      1.81720100325404
  C   -0.76262249446388      1.29773470712455     -0.83101678840836
  N   -0.74322732332133      2.36406034594328     -1.32419018887216
  N   -1.67223768628791     -0.05037190048641      0.99006813464524
  O   -1.47067393281333      0.83013617923191      1.81565425449278
  O   -2.48696545865439     -0.96181922309270      1.03845100263442
