14
Coordinates from ORCA-job run
  C   0.62872676473192     -0.44522594361777     -0.02902441493293
  C   -0.67918112342625      0.28545486456231      0.30040085605066
  F   0.37892481787119     -1.55007626706747     -0.75076249773242
  H   -0.44146006597873      1.28689738428512      0.67203832493264
  N   1.55168261267122      0.48921422663580     -0.84735133018398
  O   2.03784663272654      0.02711363488326     -1.85892262206192
  O   1.71499710527746      1.58853474174328     -0.34154717282078
  C   1.36154512067727     -0.76851494349917      1.19549737601783
  N   1.94906455073189     -1.03471156101656      2.17855250694709
  C   -1.46262711414020     -0.46962803851821      1.26551993295699
  N   -2.05611514221566     -1.08363924794985      2.07241628116961
  N   -1.47823498711595      0.49290286340003     -0.98419455644873
  O   -2.68490854747213      0.32373774904382     -0.92365393478261
  O   -0.81926062433858      0.85794053711540     -1.94796874911143
