14
Coordinates from ORCA-job run
  C   0.71134765092718     -0.32848769445935      0.20357263378253
  C   -0.77889239622677     -0.21046484939856     -0.13733151314509
  F   0.87427713137874     -1.40269972273287      1.00494297259206
  H   -1.08912950740469     -1.15194776134846     -0.59805731535598
  N   1.41731748728865     -0.63289350536407     -1.13673697102663
  O   1.96638107061761      0.30617954833249     -1.69347885277876
  O   1.30199060312034     -1.78753909651998     -1.51627062207920
  C   1.30207654136400      0.86244758522002      0.80156341765796
  N   1.80042601547502      1.79551320705204      1.31462525220150
  C   -1.05125213350277      0.93679696363531     -0.98534338004231
  N   -1.27575789732911      1.85184147932601     -1.68742423317295
  N   -1.55049809040723     -0.10084306221981      1.16768614721548
  O   -2.17344142912777     -1.10047184317016      1.49872469967900
  O   -1.45384504617314      0.96356875164739      1.76352776447243
