14
Coordinates from ORCA-job run
  C   0.72358091573433     -0.54959584610111      0.05674794978544
  C   -0.79692352586047     -0.38879787575173      0.25120779181540
  F   0.94716768242899     -1.83250107276894     -0.29196693752203
  H   -1.09287199703588     -1.07364490973608      1.05106039131710
  N   1.15912024931715      0.35307327244550     -1.11131744298504
  O   1.47637135026690     -0.19833433817390     -2.14864751888512
  O   1.10523871898201      1.54735838743902     -0.85226394698993
  C   1.52042472452498     -0.19125937583143      1.22601131628137
  N   2.20707110479359      0.03391611297660      2.15332237547861
  C   -1.49670346139034     -0.69924190510349     -0.98544987428289
  N   -2.05334058839292     -0.98570906238656     -1.97962408189431
  N   -1.15204811978559      1.00580854627940      0.74914816131846
  O   -1.69468217052847      1.76704644128933     -0.03662918850945
  O   -0.85140488305434      1.21188162542343      1.91740100507234
