14
Coordinates from ORCA-job run
  C   0.56357535485201     -0.52386613511363     -0.05259127693992
  C   -0.57971737397717      0.41570351310265      0.35194844480089
  F   0.07309385489276     -1.68350830403547     -0.52031764600665
  H   -0.17593186138255      1.42238237289395      0.49707120826159
  N   1.41380970922231      0.14286986913662     -1.16039181321922
  O   1.65671106177680     -0.52978787508219     -2.14107986929500
  O   1.77993780372455      1.27541467915934     -0.88782662156132
  C   1.46935644712216     -0.74865910315292      1.07426302321725
  N   2.19457609417174     -0.92495074174159      1.98279182576475
  C   -1.24690684620864     -0.06974961937823      1.54966388176323
  N   -1.74702879615547     -0.46920068239312      2.53486812145831
  N   -1.57391145055820      0.52403304254282     -0.80181173507921
  O   -1.06701867084776      0.65002248824729     -1.90801449178535
  O   -2.76054532663249      0.52129649581447     -0.51857305137934
