16

C	0.0	0.0	0.0
C	-0.627715	-0.143414	-1.367154
Cl	1.776135	0.0	0.0
H	-1.716528	-0.278092	-1.210962
H	-0.306231	-0.904388	0.527957
C	-0.506368	1.225018	0.745655
H	-0.11667	2.134796	0.291323
H	-1.598918	1.221707	0.729337
H	-0.164656	1.17566	1.781015
N	-0.089154	-1.363167	-2.057469
O	-0.286574	-2.417939	-1.466785
O	0.5209	-1.228022	-3.112838
N	-0.463759	1.004515	-2.306472
O	-1.235287	1.007658	-3.261296
O	0.405628	1.842778	-2.080018
Br	-3.812441	0.0	0.0
