16

C	0.0	0.0	0.0
C	-0.59642	0.019141	-1.390865
Cl	1.782907	0.0	0.0
H	-1.687282	0.164336	-1.285636
H	-0.317131	-0.942433	0.445017
C	-0.484741	1.174634	0.833374
H	-0.126261	1.052375	1.857488
H	-0.101448	2.116324	0.438824
H	-1.575874	1.183567	0.829031
N	-0.418316	-1.261153	-2.149965
O	0.059329	-2.228403	-1.564578
O	-0.829729	-1.247795	-3.305175
N	-0.031687	1.117827	-2.228413
O	-0.559685	2.218089	-2.089822
O	0.932913	0.864562	-2.943897
Br	-3.773114	0.0	0.0
