16

C	0.0	0.0	0.0
C	-0.350333	-0.063276	-1.49546
Cl	1.779523	0.0	0.0
H	0.448528	-0.573896	-2.028698
H	-0.31218	-0.962599	0.405925
C	-0.584809	1.130012	0.811979
H	-0.220245	2.100789	0.475236
H	-1.676	1.088326	0.725562
H	-0.300001	0.989782	1.856902
N	-0.447207	1.267924	-2.161201
O	0.376973	1.475534	-3.056505
O	-1.313604	2.044418	-1.78083
N	-1.553556	-0.906876	-1.865392
O	-1.609478	-1.979639	-1.285302
O	-2.216528	-0.535979	-2.818708
Br	-4.042542	0.0	0.0
