15

C	-0.177613	-0.041085	-1.516423
C	0.0	0.0	0.0
Br	0.182259	-2.050662	-1.997344
H	1.090214	0.0	0.0
H	-0.465485	-0.846767	0.516224
N	-1.445119	0.328824	-2.022223
H	-2.16783	-0.284721	-1.667504
H	-1.425025	0.274659	-3.032416
N	0.855471	0.696413	-2.185344
H	0.639596	1.662959	-1.949652
H	1.722657	0.47776	-1.660199
N	-0.395673	1.331075	0.472196
H	-1.352303	1.344278	0.800295
H	0.217432	1.572185	1.240134
F	2.721136	0.0	0.0
