16

C	-0.396847	0.021196	-1.474005
C	0.0	0.0	0.0
F	-0.197899	-1.283244	-1.999593
H	1.089193	0.0	0.0
H	-0.382176	0.895127	0.488472
C	-1.857023	0.327779	-1.738215
H	-2.492378	-0.41531	-1.25394
H	-2.048222	0.302926	-2.815341
H	-2.103755	1.317718	-1.353831
N	0.473528	0.964344	-2.076649
H	1.435001	0.777301	-1.77525
H	0.406892	0.91144	-3.085803
N	-0.57429	-1.148564	0.712072
O	-1.595052	-0.946731	1.389517
O	-0.024838	-2.243357	0.601934
H	2.843204	0.0	0.0
