16

C	-0.330561	-0.076669	-1.476469
C	0.0	0.0	0.0
F	-1.712682	-0.316482	-1.65655
H	1.090288	0.0	0.0
H	-0.384911	-0.887133	0.496794
C	-0.006721	1.162122	-2.288296
H	-0.647297	1.999604	-2.019378
H	-0.15475	0.922954	-3.347294
H	1.035535	1.436707	-2.113019
N	0.375501	-1.256009	-1.917016
H	1.328623	-1.198708	-1.545092
H	0.44042	-1.245329	-2.929198
N	-0.510188	1.155129	0.730851
O	-1.126328	0.943716	1.783535
O	-0.241287	2.286616	0.314393
H	2.724752	0.0	0.0
