16

C	-0.447614	-0.091761	-1.45678
C	0.0	0.0	0.0
F	-0.281516	-1.449042	-1.759331
H	1.091136	0.0	0.0
H	-0.37789	-0.820756	0.607002
C	-1.913231	0.224907	-1.689484
H	-2.121615	1.273722	-1.47659
H	-2.152671	0.011143	-2.733299
H	-2.530693	-0.402217	-1.040622
N	0.394133	0.640319	-2.366947
H	0.23239	1.623394	-2.173067
H	1.358091	0.47523	-2.070882
N	-0.368719	1.240666	0.659931
O	-0.539001	1.213846	1.884285
O	-0.37246	2.290179	-0.006825
H	2.677837	0.0	0.0
