16

C	-0.530425	0.098656	-1.411072
C	0.0	0.0	0.0
F	-1.973965	0.186403	-1.321558
H	1.089874	0.0	0.0
H	-0.332573	0.869337	0.565482
C	-0.063219	1.411623	-2.00438
H	1.027291	1.445121	-1.950672
H	-0.487008	2.253772	-1.452775
H	-0.386291	1.47851	-3.04724
N	-0.163057	-0.980517	-2.248604
H	-0.688335	-0.934196	-3.111816
H	-0.321397	-1.859846	-1.776846
N	-0.465439	-1.153812	0.761809
O	-0.714826	-0.982942	1.960397
O	-0.498194	-2.268011	0.217132
H	2.69511	0.0	0.0
