16

C	-0.173546	0.085302	-1.513141
C	0.0	0.0	0.0
F	-1.426989	0.609368	-1.857904
H	1.092847	0.0	0.0
H	-0.116773	-0.91595	-1.937837
N	0.853322	0.911275	-2.113345
H	1.718414	0.637229	-1.619169
H	0.675184	1.868441	-1.820639
N	-0.506564	-1.272771	0.545251
O	-0.316099	-2.303511	-0.105907
O	-1.060736	-1.264723	1.650453
C	-0.5308	1.189919	0.762139
H	-1.621902	1.241871	0.747755
H	-0.190545	1.158118	1.796899
H	-0.128062	2.097409	0.306379
F	2.617001	0.0	0.0
