16

C	-0.247012	-0.130269	-1.522461
C	0.0	0.0	0.0
F	-0.734613	1.118084	-1.984472
H	1.09205	0.0	0.0
H	-1.044718	-0.843124	-1.750161
N	0.950114	-0.46202	-2.211834
H	1.760925	-0.330533	-1.585642
H	0.92027	-1.418323	-2.530966
N	-0.40243	-1.265303	0.643232
O	-0.263572	-2.311344	-0.00112
O	-0.814096	-1.241567	1.807348
C	-0.58853	1.20059	0.69346
H	-0.283801	1.213973	1.739515
H	-0.201255	2.093343	0.204392
H	-1.681685	1.220179	0.643266
F	2.634498	0.0	0.0
