16

C	-0.251004	-0.040233	-1.523504
C	0.0	0.0	0.0
F	-0.576928	1.271229	-1.923682
H	1.090802	0.0	0.0
H	-1.118255	-0.652509	-1.789609
N	0.907904	-0.466763	-2.241406
H	1.730422	-0.294511	-1.64227
H	0.847663	-1.465419	-2.381597
N	-0.408565	-1.291572	0.58459
O	-0.691863	-1.339778	1.785778
O	-0.405236	-2.291043	-0.146225
C	-0.57636	1.163731	0.766489
H	-0.184427	2.081501	0.330467
H	-1.670787	1.194297	0.724476
H	-0.266312	1.111945	1.809457
F	2.623644	0.0	0.0
