14

C	-0.58961	0.020609	-1.396122
C	0.0	0.0	0.0
Br	-0.058344	-1.620701	-2.32188
H	1.087931	0.0	0.0
H	-1.67858	0.013874	-1.378586
C	-0.111351	1.150572	-2.180234
N	0.185912	2.049789	-2.875389
N	-0.533021	-1.184336	0.745764
O	-1.717419	-1.479222	0.548784
O	0.219621	-1.762323	1.51917
N	-0.502825	1.159108	0.780994
O	-0.19318	1.20021	1.969755
O	-1.184836	2.006993	0.194687
F	2.449113	0.0	0.0
