14

C	-0.477847	-0.02617	-1.437756
C	0.0	0.0	0.0
Br	0.069051	1.606649	-2.349012
H	1.08967	0.0	0.0
H	0.073785	-0.830398	-1.924367
C	-1.910134	-0.247375	-1.624962
N	-3.044851	-0.487334	-1.814251
N	-0.446357	-1.240884	0.670786
O	-0.876528	-1.183502	1.819592
O	-0.298372	-2.275117	0.020064
N	-0.528202	1.151833	0.770955
O	0.165295	1.552707	1.699718
O	-1.617173	1.628111	0.43722
F	2.442384	0.0	0.0
