14

C	-0.557789	0.038223	-1.41344
C	0.0	0.0	0.0
Br	-0.199582	-1.67826	-2.28656
H	1.088084	0.0	0.0
H	-1.64329	0.149974	-1.415231
C	0.055781	1.082142	-2.223225
N	0.482121	1.921275	-2.925474
N	-0.570286	-1.181444	0.714982
O	0.194496	-1.953428	1.27939
O	-1.799668	-1.290326	0.678152
N	-0.496162	1.168858	0.758762
O	-0.403262	1.101878	1.981737
O	-0.928888	2.137783	0.12962
F	2.447692	0.0	0.0
