14

C	-0.549889	0.047386	-1.416357
C	0.0	0.0	0.0
Br	-0.172963	-1.6571	-2.304573
H	1.087904	0.0	0.0
H	-1.635751	0.153734	-1.425178
C	0.06474	1.10532	-2.208074
N	0.494393	1.94883	-2.904029
N	-0.571526	-1.189434	0.701491
O	-1.800167	-1.313944	0.648063
O	0.195729	-1.948569	1.280826
N	-0.50477	1.157038	0.770418
O	-0.400951	1.091819	1.992266
O	-0.959776	2.119693	0.146675
F	2.448314	0.0	0.0
