14

C	-0.545873	0.013752	-1.418805
C	0.0	0.0	0.0
Br	-0.173024	-1.717988	-2.251861
H	1.087966	0.0	0.0
H	-1.631051	0.124026	-1.433226
C	0.076856	1.043099	-2.237651
N	0.514174	1.862659	-2.956944
N	-0.578767	-1.162938	0.735336
O	0.180161	-1.883332	1.373455
O	-1.804901	-1.304156	0.652355
N	-0.505959	1.179871	0.740777
O	-0.41719	1.139757	1.965383
O	-0.943304	2.133037	0.090708
F	2.447971	0.0	0.0
