14

C	-0.40167	-0.094766	-1.445926
C	0.0	0.0	0.0
Br	-2.33784	-0.379023	-1.724746
H	1.092472	0.0	0.0
H	-0.20089	0.874542	-1.898378
C	0.319592	-1.126646	-2.180045
N	0.848031	-1.916599	-2.870522
N	-0.514985	-1.151977	0.769354
O	-1.32334	-0.981687	1.678758
O	-0.098054	-2.240957	0.383588
N	-0.411638	1.277866	0.610973
O	-0.158188	1.419021	1.803349
O	-0.88484	2.153257	-0.119023
F	2.420695	0.0	0.0
