14

C	-0.549328	0.069887	-1.416223
C	0.0	0.0	0.0
Br	-0.220655	-1.638612	-2.317875
H	1.087962	0.0	0.0
H	-1.632764	0.203593	-1.422614
C	0.092589	1.1139	-2.204991
N	0.543924	1.949068	-2.896569
N	-0.585442	-1.191312	0.686919
O	-1.816635	-1.284732	0.654661
O	0.171705	-1.983031	1.230338
N	-0.491582	1.15686	0.7805
O	-0.894482	2.144104	0.161406
O	-0.423846	1.068079	2.002363
F	2.447902	0.0	0.0
