12

C	-0.52882	-0.019044	-1.428695
C	0.0	0.0	0.0
Cl	0.04235	-1.530344	-2.250401
H	1.092572	0.0	0.0
H	-1.622124	-0.132082	-1.449284
H	-0.342181	-0.898688	0.522126
N	-0.052168	1.110873	-2.183834
H	-0.554844	1.186287	-3.062134
H	-0.175334	1.961125	-1.638289
C	-0.52893	1.16782	0.675483
N	-0.975859	2.131316	1.182592
F	2.567561	0.0	0.0
