12

C	-0.42997	-0.048956	-1.452897
C	0.0	0.0	0.0
Cl	0.067358	1.567205	-2.208733
H	1.091712	0.0	0.0
H	0.184537	-0.770955	-1.990117
H	-0.356948	0.919883	0.474751
N	-1.8109	-0.326431	-1.657775
H	-2.052231	-0.277794	-2.639693
H	-2.379115	0.339587	-1.148716
C	-0.499732	-1.149919	0.732362
N	-0.878157	-2.088368	1.331242
F	2.567402	0.0	0.0
