12

C	-0.181006	0.140309	-1.518626
C	0.0	0.0	0.0
Cl	-0.214495	-1.587715	-2.292836
H	1.092075	0.0	0.0
H	-1.149906	0.520805	-1.848035
H	-0.323545	0.939748	0.459639
N	0.894544	0.927198	-1.955258
H	0.996592	0.947779	-2.958981
H	1.763007	0.646098	-1.45758
C	-0.660795	-1.10892	0.645929
N	-1.209809	-1.972675	1.223335
F	2.655433	0.0	0.0
