15

C	-0.247818	-0.038735	-1.483765
C	0.0	0.0	0.0
F	-1.610009	-0.288701	-1.815259
H	1.095647	0.0	0.0
H	-0.029283	0.949893	-1.907778
H	-0.348622	-0.945903	0.435415
C	0.644039	-1.076416	-2.131723
H	0.603419	-1.029385	-3.224316
H	0.332061	-2.075369	-1.812215
H	1.655496	-0.884706	-1.751143
C	-0.616132	1.19603	0.705469
H	-0.180605	2.124302	0.321811
H	-1.702841	1.247144	0.568408
H	-0.409428	1.164697	1.779451
F	2.784809	0.0	0.0
