19

C	-0.057914	-0.001138	-1.392229
C	-0.006071	0.000159	0.135162
F	-1.408743	-0.002515	-1.803263
H	1.070131	0.001197	0.366576
N	0.520421	1.223655	-1.897423
H	0.419686	1.193737	-2.909813
H	1.535045	1.092162	-1.721853
N	0.522339	-1.22582	-1.895468
H	1.536742	-1.09245	-1.720086
H	0.421605	-1.19764	-2.907907
C	-0.650427	-1.257088	0.711717
H	-0.164998	-2.152111	0.325853
H	-0.58461	-1.252178	1.805423
H	-1.707719	-1.298286	0.432866
C	-0.652396	1.257368	0.7096
H	-0.586547	1.254425	1.80331
H	-0.168373	2.152491	0.322199
H	-1.709757	1.296431	0.430706
H	3.051055	0.00068	-1.376874
