19

C	-0.227036	0.066201	-1.419669
C	0.012753	0.135494	0.085176
F	0.150847	1.385004	-1.924088
H	1.078364	0.380123	0.189367
N	0.535866	-0.943651	-2.017174
H	1.503711	-1.02453	-1.589762
H	0.645466	-0.74024	-3.005671
N	-1.634182	-0.078865	-1.744525
H	-2.039987	0.842511	-1.85335
H	-1.699266	-0.571733	-2.626308
C	-0.220587	-1.226785	0.727666
H	-0.141623	-1.14721	1.818376
H	0.53243	-1.933945	0.379235
H	-1.216513	-1.599524	0.471776
C	-0.848934	1.214535	0.732048
H	-1.908805	0.949454	0.666212
H	-0.593964	1.316572	1.791595
H	-0.696805	2.182983	0.250241
H	2.978633	-1.15718	-0.918994
