19

C	-0.258754	0.009368	-1.426942
C	-0.001303	0.13098	0.072789
F	-1.666868	-0.353405	-1.577865
H	1.069781	0.35685	0.145225
N	-0.125463	1.297403	-2.079014
H	-0.047853	1.13859	-3.077386
H	-0.974472	1.829549	-1.921294
N	0.52634	-1.012085	-1.975549
H	0.614682	-0.914265	-2.981177
H	1.504161	-1.040889	-1.550675
C	-0.244827	-1.200419	0.775569
H	0.457374	-1.947034	0.406938
H	-0.09368	-1.087892	1.855155
H	-1.265078	-1.549707	0.59692
C	-0.822926	1.253339	0.699457
H	-0.553782	2.227328	0.283225
H	-1.892104	1.082719	0.540212
H	-0.644488	1.294195	1.778388
H	2.958848	-1.057874	-0.916157
