19

C	-0.142252	0.024052	-1.406911
C	-0.018363	0.002111	0.122597
F	-1.526575	0.098338	-1.704222
H	1.068024	-0.001174	0.295382
N	0.490803	1.206887	-1.915509
H	0.429343	1.125245	-2.927685
H	1.493192	1.051641	-1.700354
N	0.360927	-1.134711	-2.094867
H	1.385611	-1.087451	-1.954376
H	0.010298	-1.982709	-1.663292
C	-0.625763	-1.259766	0.731696
H	-1.664931	-1.379101	0.409923
H	-0.614708	-1.196516	1.824517
H	-0.067552	-2.157061	0.454733
C	-0.641957	1.247353	0.748126
H	-1.726488	1.242797	0.603499
H	-0.241811	2.145761	0.280126
H	-0.438436	1.280795	1.824594
H	2.948276	-0.172118	-1.342679
