19

C	-0.600844	0.053138	-1.662399
C	0.140627	0.0527	-0.330859
F	-0.230327	1.181248	-2.403694
H	1.20051	0.107543	-0.600468
N	-0.155925	-1.050817	-2.500066
H	-0.591509	-0.95444	-3.412203
H	-0.467817	-1.919833	-2.085996
N	-2.027573	0.170909	-1.465822
H	-2.302896	-0.356624	-0.648729
H	-2.525083	-0.18765	-2.271599
C	-0.056114	-1.22519	0.484177
H	0.561024	-1.127392	1.396238
H	-1.100047	-1.356294	0.800339
H	0.266495	-2.122241	-0.055721
C	-0.192104	1.268803	0.52904
H	-0.022412	2.198666	-0.019533
H	-1.237287	1.25204	0.852984
H	0.446043	1.225259	1.417478
H	1.804635	-0.382006	2.885053
