19

C	-0.284369	0.07292	-1.42072
C	0.008342	0.165363	0.080345
F	0.127927	1.338205	-1.947922
H	1.077646	0.408352	0.128738
N	0.436819	-0.92094	-2.136257
H	1.39717	-1.043131	-1.731596
H	-0.031145	-1.807538	-1.985142
N	-1.688223	-0.094669	-1.691122
H	-1.766486	-0.17764	-2.699844
H	-2.177234	0.747216	-1.411096
C	-0.177714	-1.188385	0.754581
H	0.615343	-1.860783	0.419817
H	-1.161696	-1.607163	0.521033
H	-0.093452	-1.084612	1.842401
C	-0.805688	1.261494	0.765619
H	-0.729942	2.207088	0.223293
H	-1.862127	0.980318	0.84353
H	-0.43921	1.424874	1.784101
H	2.802696	-1.473896	-0.813293
