19

C	-0.24014	-0.008466	-1.452331
C	-0.004102	-0.10322	0.061615
F	0.086079	-1.317151	-1.950882
H	1.066502	-0.333379	0.151337
N	-1.609713	0.16637	-1.908103
H	-1.901449	1.098567	-1.646985
H	-2.214556	-0.512841	-1.461821
N	0.552777	1.004502	-1.996618
H	1.52084	1.018502	-1.583504
H	0.588814	0.904316	-3.003687
C	-0.830873	-1.21242	0.704659
H	-0.511707	-1.365476	1.740199
H	-1.897463	-0.957836	0.731676
H	-0.710602	-2.154383	0.166878
C	-0.234587	1.235915	0.751504
H	0.486522	1.967944	0.389591
H	-0.105284	1.128348	1.834301
H	-1.250511	1.609075	0.571665
H	3.002766	0.973729	-0.790178
