16
Coordinates from ORCA-job run
  C   -0.69014772604478      0.42374636845791     -0.12752702985200
  C   0.67421023235786      0.09207303572567      0.46959979224734
  F   -0.93483548108006      1.75752880661325     -0.11378199494283
  H   0.69543455178537      0.42888405969547      1.50372925760406
  N   -0.84621662539608     -0.07309965544367     -1.42164385483829
  H   -1.72962095008330      0.22766355638654     -1.81449445275349
  H   -0.81359805498702     -1.08402996949227     -1.41781363705400
  N   -1.73862926216705     -0.14806919202546      0.88923712817614
  O   -1.57574492123940      0.14856501947695      2.06670695342760
  O   -2.65752527852391     -0.80949318955987      0.42097749326338
  N   1.70534748821007      0.95044037584015     -0.25720332999899
  O   1.82686129757653      2.10428738411760      0.13847002752521
  O   2.32196255975397      0.42206637601514     -1.17732242329712
  N   0.90445394174272     -1.30605843260770      0.34204914441303
  H   1.32409679483097     -1.49616018615613     -0.56212123781716
  H   1.53095143326411     -1.64034435704358      1.06113816389711
