16
Coordinates from ORCA-job run
  C   -0.69198954061423      0.41998530670622     -0.13483210405976
  C   0.65224827801374      0.08041045111902      0.50153577095175
  F   -0.96306317807460      1.74707365487240     -0.06084073659529
  H   0.62558063002914      0.36877869494428      1.55010533156818
  N   -0.78465365616130     -0.00889513936909     -1.45868889588868
  H   -0.71931605983642     -1.01700401636214     -1.50870807148728
  H   -1.66225101326766      0.28640824078600     -1.86832065150532
  N   -1.77138555937552     -0.22199613692915      0.80467443470330
  O   -1.65746980036801      0.00388576071687      2.00339495883432
  O   -2.66510452743140     -0.86021254904223      0.26153515523203
  N   1.69767358531224      0.98695858796580     -0.14187031910822
  O   1.78235022312831      2.12351228760815      0.30913610697504
  O   2.36143589953723      0.51011340256204     -1.05734260318604
  N   0.91153885342390     -1.30663845236362      0.31854861567538
  H   1.38007422962333     -1.44598860739402     -0.57071686232460
  H   1.50533163606125     -1.66739148582052      1.05238987021518
