16
Coordinates from ORCA-job run
  C   -0.68461884091344      0.28659668270921     -0.01770866356342
  C   0.74032268793588      0.04843862902640      0.47960822987589
  F   -1.03815421666583      1.58586302745963      0.32608628511654
  H   0.76919576473192      0.20622145527217      1.55416117022562
  N   -0.88184092960743     -0.04555135755416     -1.35329383836454
  H   -0.25791544094391      0.47728168023096     -1.95467070142985
  H   -1.85241880026528      0.04733289463997     -1.62268982416988
  N   -1.65408952144273     -0.56593590526618      0.80767679459918
  O   -1.25043179254312     -1.03844867719056      1.86491954901490
  O   -2.78838409113667     -0.66083755567466      0.35515756079159
  N   1.59730003394997      1.16848663140180     -0.08952193124034
  O   2.19459933674314      1.87741383299287      0.71058730483509
  O   1.65681522514911      1.25187340944826     -1.31513076849994
  N   1.30311586213770     -1.19924616911243      0.11015108085535
  H   1.27457260949707     -1.86168404150014      0.86930294544197
  H   0.87193211337362     -1.57780453688315     -0.72163519348815
