16
Coordinates from ORCA-job run
  C   -0.74248240730151      0.05182806515004      0.17460663478487
  C   0.71530415680789      0.11714881796948     -0.28237386225938
  F   -0.76512508185399     -0.55688617912121      1.41427316399527
  H   0.73943888879217      0.26729909859786     -1.36093857116460
  N   -1.32501089404078      1.31580336283598      0.13966680541640
  H   -2.24101242334817      1.32942356369668      0.56845904500749
  H   -0.70092103665907      2.01133802118050      0.52573216555972
  N   -1.57167880809718     -0.84374702296294     -0.75337357175745
  O   -2.36367159074545     -1.61017603446421     -0.22467638454917
  O   -1.40877840573866     -0.65238450547714     -1.94930526106055
  N   1.32435566172248     -1.27431376508459     -0.04751106027856
  O   0.75874744283521     -2.21073169351879     -0.59797458604303
  O   2.32423296963804     -1.33945459250366      0.65807973028567
  N   1.39320823368688      1.15050053817637      0.41350949010205
  H   1.59717253042312      0.86010832530184      1.36250896145358
  H   2.26522076387903      1.38524400022378     -0.03968269949232
