16
Coordinates from ORCA-job run
  C   -0.66376890822275      0.03854655344331      0.30364522124843
  C   0.79473070923624      0.03666385803453     -0.16006527884020
  F   -0.78165177335833     -0.52069935878353      1.51888638671461
  H   0.82506411034704      0.27365320148639     -1.23146628403286
  N   -1.15816282495078      1.37101101453586      0.36461703119338
  H   -2.05384932661511      1.38171817184731      0.84020419679680
  H   -1.26117468187420      1.75584299122003     -0.56717307427619
  N   -1.53082285994140     -0.79176707943709     -0.66388292408785
  O   -2.32482056353817     -1.58606104543343     -0.19204216722810
  O   -1.40036263062756     -0.47961773816155     -1.84480252775378
  N   1.35720768623303     -1.37420533951848     -0.10214540421659
  O   2.56695798026146     -1.46155095741231      0.05499672098944
  O   0.57704406813006     -2.30243141574211     -0.28909252492242
  N   1.55825185674059      0.86506327214924      0.71319242291031
  H   2.45840622010780      1.09285700886123      0.31823180304141
  H   1.03595093807208      1.70097686291061      0.93789640246361
