16
Coordinates from ORCA-job run
  C   -0.74921834939890      0.02970147707664      0.14812739312744
  C   0.72118464560135      0.13651887960327     -0.25700430751885
  F   -0.79774071231953     -0.57536454128376      1.38918394720755
  H   0.77938726630362      0.28415329571594     -1.33466454991551
  N   -1.36709529692865      1.27584452889853      0.08734241373457
  H   -0.77849610877614      1.99084340089623      0.49302437285024
  H   -2.29853612359991      1.26343835924415      0.48147804473768
  N   -1.51978491632860     -0.89185196549743     -0.80409598015061
  O   -2.31679507631772     -1.66972758615037     -0.30032101262508
  O   -1.31262081637442     -0.70775169590105     -1.99431099927564
  N   1.36393966781136     -1.23514905664652      0.00508053217173
  O   0.83530738107292     -2.19347165471059     -0.54422083949695
  O   2.35339486426946     -1.26347603575154      0.72756529911115
  N   1.34305903169129      1.19236680411168      0.45674795170524
  H   1.52019391852351      0.91453670893500      1.41477790504559
  H   2.22382062477037      1.45038908145983      0.03428982929145
