16
Coordinates from ORCA-job run
  C   -0.69235455975129      0.36017691033921      0.10730324337698
  C   0.84587496280992      0.32233861438146      0.18736141879012
  F   -1.10979576481088      1.02319906075586      1.25980439903381
  H   1.18007372324673      1.35334397309668      0.05335906045247
  N   -1.11137272955103      0.91880764501736     -1.09022828881323
  H   -0.75944354397334      1.85347074089328     -1.23709788290031
  H   -2.10444427927317      0.84409434665635     -1.25641030925662
  N   -1.34412419593808     -1.01780414138290      0.25368480910270
  O   -1.01735899625813     -1.65892000070208      1.24528460136837
  O   -2.17646995755855     -1.34866196766970     -0.57996496625647
  N   1.31740094200331     -0.41080554533412     -1.03996162544877
  O   1.91542507893824      0.23260083801423     -1.89477330628853
  O   1.06157185861046     -1.61076169006268     -1.06727777963151
  N   1.47744867821893     -0.23698149204036      1.33069372921886
  H   0.99395013621358     -1.06513982554584      1.64990958136163
  H   1.52361864707330      0.44004253358327      2.07831331589050
