16
Coordinates from ORCA-job run
  C   -0.72811234735730      0.02019060347224      0.23513439340094
  C   0.76275934731688      0.09530428288654     -0.16490925166984
  F   -0.79438640946445     -0.56903333411748      1.45287464351933
  H   0.82804948116355      0.46059204182207     -1.18969346770155
  N   -1.42991874438504      1.24699723778946      0.27327152156832
  H   -0.94917288096959      1.92114979580996      0.85329092266553
  H   -1.58226935331232      1.60886442972398     -0.65835435246331
  N   -1.46006162083465     -0.85982205725712     -0.76988382780049
  O   -1.60635441684809     -0.34872830497020     -1.87644367038686
  O   -1.81046183952457     -1.97088944895417     -0.40948997519622
  N   1.29347600132825     -1.32469686599441     -0.19933706183779
  O   1.81298666907293     -1.75084469422746      0.82357417130458
  O   1.11335939328833     -1.93981367254778     -1.24819859400531
  N   1.56843740670059      0.86909902591999      0.70880334221960
  H   1.39255058995488      0.69286123701956      1.68676062852436
  H   1.59011872387059      1.84976972362482      0.48160057785872
