16
Coordinates from ORCA-job run
  C   -0.70043654731381      0.32896773413010     -0.12417182556299
  C   0.71697889808121      0.18771526777514      0.41711500350005
  F   -0.86533021210045      1.65006716090468     -0.52286297393558
  H   0.86796910581618      0.90235981379465      1.22277863443121
  N   -1.02407185394022     -0.62129115449719     -1.08434750928582
  H   -0.44914259600842     -0.52784873711813     -1.91072557032368
  H   -2.01299084354470     -0.63560795463610     -1.29169450262495
  N   -1.67480787021104      0.19262597740126      1.05112051082068
  O   -2.73297681412636     -0.38503435074630      0.83394050929696
  O   -1.34468887554993      0.74559463268853      2.09129621083084
  N   1.65591394089985      0.68108721424644     -0.69465236798649
  O   2.27990397617980      1.71532006940190     -0.48577561564111
  O   1.73415338316632     -0.02079889601439     -1.70402564645378
  N   0.93591419876123     -1.13825613181488      0.83359513412102
  H   0.78219328113527     -1.80198891298523      0.08715875795986
  H   1.83141882875507     -1.27291173253046      1.28025125085378
