16
Coordinates from ORCA-job run
  C   -0.73481100356352      0.05118725501997      0.20683007227404
  C   0.75294346176085      0.05189973297390     -0.16793127224472
  F   -0.94227286063238     -0.75348215485446      1.28699088982939
  H   0.85267363325132      0.18924457616173     -1.24449213885221
  N   -1.19785506382376      1.34028222589761      0.46691530308396
  H   -2.19995933548620      1.44359604916936      0.40061541121998
  H   -0.68476003839982      2.06453647991636     -0.00944581382045
  N   -1.53176816398473     -0.61192715071380     -0.94617608115338
  O   -2.33266845103058     -1.48983819190260     -0.66643245843433
  O   -1.33386941004072     -0.11393338030424     -2.04910987066500
  N   1.24027844809623     -1.38617082706301      0.07242932493747
  O   0.70988881682818     -2.24371892123471     -0.62443242797843
  O   2.11007108298372     -1.55883907858340      0.91673821909624
  N   1.46305286576548      1.04521994206361      0.53905267431535
  H   2.43899645422174      1.05422186372462      0.27629831134208
  H   1.39005956405420      0.91572157972907      1.54014985705000
