16
Coordinates from ORCA-job run
  C   -0.68145255636462      0.15726166309007      0.21167352810623
  C   0.80560551784865     -0.07430344379050     -0.06647004415373
  F   -0.99151661903926     -0.18077851268072      1.47400051244017
  H   0.97532053461837     -0.01879669543342     -1.14952388051880
  N   -1.01151910771062      1.52660251854795      0.01251893225018
  H   -0.97059219588268      1.76411003025525     -0.97175389365251
  H   -1.94280303075556      1.70881958288345      0.37032810654307
  N   -1.54009413957369     -0.72294635282228     -0.71774767624121
  O   -1.25040189727494     -0.62443564223958     -1.90746463370571
  O   -2.47135895863691     -1.33996380798160     -0.23187264312551
  N   1.18038439619307     -1.50843463891571      0.26918647974850
  O   2.34832362246786     -1.69693376808838      0.57942861882695
  O   0.31425319037066     -2.36663850287477      0.13304870091749
  N   1.57193698020786      0.79967922615962      0.75855918073438
  H   2.52822481463088      0.86624817786579      0.44359507764604
  H   1.13468944890095      1.71051016602483      0.79349363418447
