16
Coordinates from ORCA-job run
  C   -0.64762311083508      0.14010632599496      0.22159791668341
  C   0.84747644730821      0.09960575067638     -0.14687970553893
  F   -0.83832250835632     -0.37876701785509      1.45354708426972
  H   0.96771255008432      0.51247198314731     -1.14933514153873
  N   -1.11407432194983      1.47440445546087      0.20027076228136
  H   -2.00461158523204      1.53860028504428      0.68030814347076
  H   -1.22123087908135      1.79173494584637     -0.75549731894666
  N   -1.41708191522765     -0.76324368018060     -0.76659409474441
  O   -1.55305248913852     -0.27344129324874     -1.88489740773910
  O   -1.79056683073816     -1.86262618992534     -0.38640928810010
  N   1.25673976110815     -1.34583559010639     -0.24542743770001
  O   1.16124808432319     -1.86880051666877     -1.35269523263759
  O   1.61813925734475     -1.88731367972111      0.79320940102024
  N   1.70029675567088      0.75119720203507      0.79214755007160
  H   1.45720952351243      1.73289980268273      0.83531497805283
  H   1.57674126120702      0.33900721681807      1.70933979109559
