16
Coordinates from ORCA-job run
  C   -0.81001841263233      0.33724996798490      0.10368167828854
  C   0.72060424836055      0.32651824050538      0.24159986586951
  F   -1.23959070534000      1.00403963859469      1.23355108137766
  H   1.02849172798302      1.37847444383758      0.28102854170424
  N   -1.34073425636993      0.84474862676165     -1.07593902730486
  H   -2.29347971468691      1.16182918686731     -0.96726418010443
  H   -0.75131102729294      1.50224648435619     -1.56014008928835
  N   -1.30101291135762     -1.10268120447316      0.26793750681387
  O   -2.19808866766798     -1.32419747748279      1.06593804931115
  O   -0.74926621171163     -1.90105958571896     -0.47623020657807
  N   1.40993659237522     -0.19397087703691     -0.99923283772941
  O   2.12150489985300     -1.18393343991951     -0.90276661694919
  O   1.23913937046330      0.47825815886372     -2.01139538153312
  N   1.06884668795341     -0.45162337173501      1.39116256402061
  H   1.89159150088906     -1.00991723154703      1.20809324018468
  H   1.20638687918178      0.13601844014195      2.19997581191716
