16
Coordinates from ORCA-job run
  C   -0.71667668340890      0.05885679097336      0.26238696650593
  C   0.75947475498545      0.05710083560583     -0.19479908621310
  F   -0.76282089185992     -0.50715437370005      1.49223285426159
  H   0.80338994266844      0.40496513809702     -1.22674299348738
  N   -1.35834333032980      1.31778009768604      0.30520839720822
  H   -0.82355038192195      1.97904636774752      0.85169533301028
  H   -1.53450370139061      1.66980581372992     -0.62593531557992
  N   -1.52677022856040     -0.80198248631063     -0.69796682878648
  O   -1.69429801356672     -0.30182604578197     -1.80651197649110
  O   -1.91098210799922     -1.89085381127164     -0.30573739705912
  N   1.22125671714283     -1.38671184347573     -0.22771270125987
  O   1.75598894722391     -1.82456412279905      0.78228731129221
  O   0.97552391898248     -2.00548562505548     -1.26099295120645
  N   1.63376942846547      0.80316682689227      0.63634632440462
  H   1.69231669312740      1.77862638172538      0.39347837144103
  H   1.48622493644156      0.64923005593721      1.62276369195953
