16
Coordinates from ORCA-job run
  C   -0.72963094062504      0.31410532436733      0.06795956691205
  C   0.79296017902166      0.23457431837300      0.21082733514334
  F   -1.22335453854229      0.74528591827708      1.31148277679534
  H   1.16320068337922      1.24271650689155     -0.02739596262810
  N   -1.09351664428123      1.12822533404594     -0.99480259627214
  H   -0.82497299454935      2.09092271875201     -0.84942869649812
  H   -2.07185585182377      1.03395775376773     -1.23204149354332
  N   -1.41328272449637     -1.04111613544334     -0.08894600516429
  O   -0.94444058499554     -1.95885991454191      0.56592362173762
  O   -2.42709861530824     -1.06863970500243     -0.77586963129284
  N   1.40077219928375     -0.60510048215434     -0.90318907971651
  O   2.62492199100016     -0.65811169215702     -0.86427107077079
  O   0.67429497483902     -1.14108660079910     -1.73028876436522
  N   1.25840014759409     -0.29345700554760      1.45078213992934
  H   0.62625514939836     -0.06699047860974      2.20344872359164
  H   2.18734757010556      0.04457413978085      1.65580913614199
