16
Coordinates from ORCA-job run
  C   -0.79975592177177      0.00826482598381      0.18887128535256
  C   0.69827073553107      0.18877107859574     -0.11189282503598
  F   -0.88118951230408     -0.59691719846568      1.40412383234974
  H   0.81313305100477      0.50922995557424     -1.14768863841177
  N   -1.55736074167308      1.19436959045177      0.17825739312123
  H   -1.01183680782929      1.94403793307391      0.58626190260409
  H   -1.83698105472128      1.43297073854841     -0.76366613105775
  N   -1.41890586240311     -0.92996471572358     -0.84269198298514
  O   -1.76421028050318     -2.03843413076083     -0.47128111643876
  O   -1.50245572251462     -0.46023208442590     -1.97335197654001
  N   1.37082535896443     -1.18589553563407     -0.04259851163002
  O   1.15191138027958     -1.93380894225367     -0.99092183667859
  O   2.05331801923388     -1.43437854853964      0.94479962606529
  N   1.23111383054955      1.13222493206104      0.80208013544728
  H   2.14711370351000      1.44823970242955      0.51429613898082
  H   1.30600982464711      0.71952239908490      1.72440270485700
