16
Coordinates from ORCA-job run
  C   -0.73685167221995      0.50969487664416      0.15997132239855
  C   0.79596010973236      0.37025430411330      0.26629841462653
  F   -1.24385607027415      0.94611158862749      1.34374775462817
  H   1.21741448034741      1.32488182152454     -0.05833021271578
  N   -1.14509908181251      1.36820829572983     -0.85708131589402
  H   -0.73457673775411      1.09328906150193     -1.73950966377192
  H   -2.15548181164096      1.38092761733058     -0.92756223296818
  N   -1.36604853995203     -0.91942220799090      0.05810566924620
  O   -2.43277287038021     -1.00825266165161     -0.53506892179339
  O   -0.77492978981239     -1.82875075603894      0.63602252919959
  N   1.26090960502912     -0.61468292698327     -0.84412707124125
  O   2.14471976929198     -1.40637558681757     -0.55494873829473
  O   0.73943065031263     -0.48865939025999     -1.95168482299885
  N   1.24858613479757      0.04433577977286      1.55162578433678
  H   0.92931865967480     -0.87124635750004      1.83560353447050
  H   2.25427716466046      0.10068654199762      1.61693797077182
