16
Coordinates from ORCA-job run
  C   -0.70049558097174      0.32692335227587     -0.27675576256937
  C   0.67656265999541      0.28673456660903      0.37834981626493
  F   -0.97347623050054      1.55014724378228     -0.79572084323301
  H   0.70077924578453      1.01964030053011      1.18190496449958
  N   -0.85955045578867     -0.65042685675003     -1.25887313550864
  H   -0.79109207051920     -1.57399371556093     -0.85219318706244
  H   -1.75920421666432     -0.55571018260692     -1.71367669270180
  N   -1.72521814379596      0.19670535496865      0.90300401693462
  O   -2.63749406111164     -0.60761957312207      0.75452012648602
  O   -1.55416355482933      0.94075502041520      1.86119045327601
  N   1.68284157967367      0.78390681193096     -0.65504653699774
  O   1.79003492811340      1.99964808968841     -0.76877739241812
  O   2.29613417755748     -0.06856034863999     -1.29019262436994
  N   0.93334927545083     -1.03728684425383      0.83210026198211
  H   1.56782205567194     -1.03717254210682      1.61868860730984
  H   1.35417039193415     -1.57369067715992      0.08047792810795
