16
Coordinates from ORCA-job run
  C   -0.68600026149809      0.28288364471519      0.00007278219699
  C   0.73107562986356      0.00031132393165      0.49667211923195
  F   -1.05677351895134      1.53438034146064      0.47753680480482
  H   0.73828146012243      0.04082816906470      1.58236737337436
  N   -0.85527231462941      0.09795053652247     -1.36719956522855
  H   -1.82119352417572      0.21360389794374     -1.64431289827754
  H   -0.22379887534480      0.68577788487680     -1.89627459288773
  N   -1.66398702828349     -0.66110835016287      0.70826792182375
  O   -1.27747892972058     -1.24098050918352      1.71740213177797
  O   -2.78775283587713     -0.71606190733565      0.22394645014573
  N   1.58890984525735      1.18058370770238      0.06889557926324
  O   2.15925905626422      1.80775358426166      0.95255618884397
  O   1.67523067913771      1.39226799694632     -1.13962893942322
  N   1.31145993043856     -1.19669889736420      0.00589913176561
  H   0.90217310522126     -1.48258948272718     -0.87275126264098
  H   1.26686758217547     -1.93890194065215      0.68655077522964
