16
Coordinates from ORCA-job run
  C   -0.73446674685604      0.49532198661178      0.07954714389129
  C   0.77996479744941      0.30917540422431      0.24092745082178
  F   -1.14274962321751      1.19446006327103      1.17894531768194
  H   1.22545625213292      1.30832134177026      0.13341538617651
  N   -1.14128077012464      1.16875742789706     -1.07191322898878
  H   -0.69666741357647      0.80626831421762     -1.90330585557752
  H   -2.14864935920229      1.20483597583739     -1.15707023421316
  N   -1.37829090469645     -0.90190396214715      0.23287844423924
  O   -0.98848026273694     -1.71431718605268     -0.59920729058047
  O   -2.23079753851425     -1.07136716921865      1.08994219935896
  N   1.40657338052553     -0.48023332974698     -0.89042590084965
  O   2.14405035012735     -1.40890991042397     -0.59485801580000
  O   1.19160749286666     -0.06744335728087     -2.02585639740061
  N   1.00244878229177     -0.38122469673868      1.47372529487397
  H   0.74473016212718      0.20996370694910      2.25234220159695
  H   1.96655140140374     -0.67070460916960      1.55991348476953
