16
Coordinates from ORCA-job run
  C   -0.76174863078388      0.04989968658355      0.03258996142394
  C   0.75573462900771      0.12028292585618     -0.14138295032528
  F   -1.01531372247734     -0.57619157067912      1.23767479833943
  H   0.98195725120697      0.28659329244550     -1.19382256618421
  N   -1.32965483003311      1.31477931668235     -0.09316641651151
  H   -0.79124211125057      2.00450648253791      0.41337245174004
  H   -2.31039211480822      1.32287389224922      0.15410653004476
  N   -1.40127491110610     -0.83107713253939     -1.04656798589393
  O   -2.28207683575923     -1.59878838965673     -0.68738745429766
  O   -1.01304825446329     -0.62747008897840     -2.18733186058444
  N   1.31302095951407     -1.27526805008155      0.18313962809647
  O   0.85501572615345     -2.20488350687333     -0.46935071594773
  O   2.17223915500491     -1.34907067419422      1.05382861385841
  N   1.28884070587067      1.14268908446287      0.68415509990607
  H   1.30739992269434      0.84074702806707      1.65109768561199
  H   2.23154306122962      1.38037770411809      0.40904518072365
