16
Coordinates from ORCA-job run
  C   -0.67822501489058      0.35769835715389      0.16404820321793
  C   0.86265340428558      0.28198874184570      0.15003450127963
  F   -0.96335767628457      1.09458122547786      1.31857661216189
  H   1.17747252945553      1.32746216939851      0.13513792714390
  N   -1.23172797448648      0.86269271178006     -1.00011571269075
  H   -0.71000188605143      1.61402965233601     -1.42513399883799
  H   -2.22026225700710      1.05392123806896     -0.91322182561238
  N   -1.39011537289885     -0.96499243731352      0.43013864114079
  O   -2.60703230224720     -0.88011719847062      0.53399792704328
  O   -0.72069139847327     -1.99062456042349      0.49856827393470
  N   1.33063099091831     -0.26877586928538     -1.17630356368830
  O   1.38332508607848      0.54274944681965     -2.09964808344011
  O   1.61666951798915     -1.45634985211682     -1.23318963779418
  N   1.52719859839152     -0.38555025724164      1.21305204395278
  H   1.18167052548274     -1.32701229652912      1.33180831565122
  H   1.44279322973817      0.14029892849995      2.07125037653759
