16
Coordinates from ORCA-job run
  C   -0.77011133701642      0.40260478077415      0.15648115322341
  C   0.76055754605477      0.31520313860011      0.27385756901601
  F   -1.16732020302944      1.24067894189511      1.17354395910638
  H   1.09433219072806      1.35021545336629      0.37033000816873
  N   -1.25672667252136      0.76043497288242     -1.09918332840319
  H   -0.69805774028465      1.45330367002554     -1.57513196515345
  H   -2.23611667181451      1.01036579081345     -1.06018350131063
  N   -1.41752839020858     -0.94314041880551      0.48192784022189
  O   -2.53084432753606     -0.91144661416956      0.98482479714324
  O   -0.79410323455326     -1.93739912369013      0.12699245876803
  N   1.39105297707918     -0.13014999541258     -1.05606347018396
  O   1.89064706019293     -1.24514976374443     -1.11033596232077
  O   1.38289440927191      0.70845276686142     -1.95572142781861
  N   1.15997783856629     -0.43771977241644      1.39647160854111
  H   1.08873855256774     -1.43000849445583      1.21353464446014
  H   2.10160800250340     -0.20724533252403      1.67865561654167
