16
Coordinates from ORCA-job run
  C   -0.75548608212360      0.09222729212947      0.06515409511747
  C   0.75614214551406      0.08372782433696     -0.16375151329047
  F   -1.00360632563193     -0.58942966617721      1.24083705182289
  H   0.95444552191080      0.30000744982680     -1.21272037434446
  N   -1.24936340899904      1.39362122836266      0.03538270290803
  H   -2.21862680203356      1.44396617134989      0.32018332253206
  H   -0.65323375426793      2.01879909571022      0.56070207605761
  N   -1.48646298619579     -0.68214682315369     -1.03750202186761
  O   -2.40349598242550     -1.41152787118773     -0.68904972471584
  O   -1.12452869472847     -0.43704338313827     -2.17875099459639
  N   1.23917034920825     -1.35898564593929      0.05688760248768
  O   0.69907842927246     -2.22021930800518     -0.62614771996660
  O   2.12664756753990     -1.53455427946220      0.88366382130244
  N   1.37930342691830      1.02143815448899      0.69865653352692
  H   2.32454774026618      1.21930800263354      0.40163213382097
  H   1.41346885577589      0.66081175822505      1.64482300920532
