16
Coordinates from ORCA-job run
  C   -0.79492348391145      0.41094687618250      0.19794013823007
  C   0.74631323944130      0.29645777746237      0.22416577441201
  F   -1.10079825635317      1.06172644219271      1.35475120349381
  H   1.13645096965037      1.32499743818352      0.20993319177283
  N   -1.46716678220182      1.03810749561081     -0.86799917883169
  H   -1.30905035385229      0.53501061514813     -1.73124229656009
  H   -1.14257109442365      1.99068217548729     -0.97774161771293
  N   -1.33995983300397     -1.00646911563917      0.29102414860051
  O   -1.13936923359233     -1.67366023947882     -0.71891532527328
  O   -1.90785937360223     -1.34781567836868      1.31245464428250
  N   1.27656781443509     -0.29440893009096     -1.06321351104599
  O   1.03567861416288      0.35439280622350     -2.07795325466783
  O   1.93995479897426     -1.31989556245031     -1.00162987207074
  N   1.12054576131490     -0.53695992485159      1.32080757304879
  H   0.83035302886338     -0.11625855354843      2.19361929780239
  H   2.11483418409873     -0.71685362206288      1.33399908451965
