16
Coordinates from ORCA-job run
  C   -0.77941120360877      0.44636841371295      0.14700463578049
  C   0.75021515883876      0.40128743583045      0.34333124752146
  F   -1.38739957900650      0.75519656476465      1.32331620752982
  H   1.12289974378616      1.40241282185767      0.11271187543685
  N   -1.18508649433755      1.35171686700961     -0.82972115552001
  H   -2.18770642656244      1.30256958717287     -0.96548929499043
  H   -0.70429955299438      1.17144882802348     -1.70108091750176
  N   -1.29715031155222     -1.00978743114974     -0.09970941515914
  O   -2.30957629504150     -1.12573807629219     -0.77731245668211
  O   -0.68539809245203     -1.91696248440458      0.45979492228268
  N   1.34880001439073     -0.46718919836106     -0.79991656408843
  O   0.88636025902661     -0.29440582085202     -1.92723968300487
  O   2.26752772504739     -1.21770358615448     -0.50967731462993
  N   1.14629374207168      0.01307812694315      1.63002116827921
  H   2.14055747009184      0.12634229082112      1.76257622944690
  H   0.87237384230224     -0.93863433892190      1.83039051529926
