16
Coordinates from ORCA-job run
  C   -0.70344205962489      0.33781264408396      0.10551969248741
  C   0.83557335353243      0.35301916133860      0.17902204348433
  F   -1.13817870405766      1.00325617546934      1.25053106162424
  H   1.13403389396312      1.39279091908613      0.02960562817215
  N   -1.14569759317870      0.86537769369281     -1.09801810632057
  H   -0.82678831023560      1.80994702969506     -1.25701550574175
  H   -2.13696200100280      0.75653808599315     -1.25644553311659
  N   -1.30863923577276     -1.05825558312653      0.27457413507559
  O   -0.95442039613660     -1.67559090711002      1.27182731364052
  O   -2.13622600218709     -1.42636496469874     -0.54824832889939
  N   1.32558726836105     -0.38013069211028     -1.04152488843663
  O   1.89684956618750      0.27204503539442     -1.90790014360543
  O   1.11123133239810     -1.58842852855503     -1.05139179060612
  N   1.49079928812517     -0.16975960806475      1.32598551875808
  H   1.03722010970116     -1.00931537612754      1.65892574400674
  H   1.51905948992755      0.51805891503942      2.06455315947742
