16
Coordinates from ORCA-job run
  C   -0.71689159111261      0.49064323319077      0.19238058124333
  C   0.80279868730035      0.27958264318580      0.19659717182555
  F   -1.01384151231980      1.08498835714255      1.38495599248713
  H   1.25263596920260      1.28116062842435      0.14287850358864
  N   -1.21513339489495      1.27263994067182     -0.84908117054261
  H   -0.85310958022267      0.98770746360226     -1.74796074698868
  H   -2.22528422850569      1.32512749376527     -0.83817933265294
  N   -1.36518181904974     -0.91113083853067      0.27219271270423
  O   -2.13515668361155     -1.15743294687269      1.18676923048141
  O   -1.06741410014642     -1.64198279410972     -0.66658574882754
  N   1.31258634007425     -0.40317139135025     -1.05657964243803
  O   1.00253673012374      0.11637476870534     -2.12410352927366
  O   2.05937902150783     -1.36064117559902     -0.91771161897447
  N   1.12500220270296     -0.52641300771293      1.33349819926534
  H   0.94445128207596     -0.01088799095167      2.18434176046743
  H   2.08962267687572     -0.82556438356120      1.30558763763484
