16
Coordinates from ORCA-job run
  C   -0.65354142859200      0.18417316058786      0.16454875043420
  C   0.86132361167086      0.04499373058218     -0.07805255272083
  F   -0.97679519821669     -0.29506484294472      1.38474584698525
  H   1.08739264680562      0.42753150066205     -1.07429106822613
  N   -1.03253036567974      1.54358110967092      0.08215845312720
  H   -1.04401423317932      1.84507092297991     -0.88459229498243
  H   -1.95222512760515      1.67241359921746      0.48853656970820
  N   -1.39366449234244     -0.69237948660804     -0.86931113265386
  O   -1.40969335741970     -0.21825620201602     -2.00247189985039
  O   -1.86070000887282     -1.76063771679399     -0.50402197679107
  N   1.18724711412450     -1.42402005670232     -0.11726297107163
  O   1.42750209103354     -1.96327511923709      0.95711666553763
  O   1.15129473773939     -1.96476578132553     -1.21951929085289
  N   1.67328005513060      0.66514549052484      0.91729698668009
  H   1.45210889490085      0.27724369353360      1.82683437797313
  H   1.48201506050250      1.65924599786890      0.92728553670353
