16
Coordinates from ORCA-job run
  C   -0.79263466212089      0.01754633482199      0.21610272901384
  C   0.70017278409441      0.17751201746428     -0.11973277356412
  F   -0.85508700571565     -0.67790373523411      1.38348447264094
  H   0.79314209076947      0.57505191765248     -1.13070515031459
  N   -1.51247496312865      1.22214086435580      0.32086963045093
  H   -1.81916659537686      1.53708373792687     -0.58962829405170
  H   -0.93054844107694      1.92381870738135      0.76237581922402
  N   -1.47146467732112     -0.82060372554428     -0.86296341445043
  O   -1.83712615196709     -1.94503577204448     -0.56627090120296
  O   -1.57578943592006     -0.26356282321635     -1.95152279013808
  N   1.32993656818420     -1.21753610895209     -0.17975776346928
  O   1.06341095528976     -1.87986943850561     -1.17822093780114
  O   2.02892890114628     -1.56488033861117      0.76543259900864
  N   1.29094558632910      1.03061882123889      0.84594774931055
  H   2.20704849326364      1.34122917838569      0.55270068106799
  H   1.38070655355038      0.54539036288075      1.73088834427538
