16
Coordinates from ORCA-job run
  C   -0.66188144313807      0.31934544418093      0.10474802063780
  C   0.78445761358922     -0.07556813634567      0.39940503813467
  F   -0.89223919417369      1.55071569520320      0.70659216704569
  H   0.92590329892999     -0.11571904719516      1.47588184777107
  N   -1.00775600727132      0.24465424698232     -1.23958356925241
  H   -0.40910188303608      0.83487450302885     -1.80308679215246
  H   -1.99088414648589      0.43335820626795     -1.38456012353296
  N   -1.60386938565623     -0.61933428575915      0.86648477157446
  O   -1.13472343471819     -1.29509996742341      1.77598978723030
  O   -2.77987099581208     -0.57451650929448      0.52658799966147
  N   1.65762801140009      1.08347605236277     -0.05333772223833
  O   1.60517662100359      1.38342562273518     -1.24502735067314
  O   2.37581504094968      1.60582105697004      0.78978870542290
  N   1.22421627920198     -1.26337826507992     -0.23859442461781
  H   1.21418339346747     -2.04985339843120      0.39196586888941
  H   0.69294623174954     -1.46120121820223     -1.07525422390066
