16
Coordinates from ORCA-job run
  C   -0.71650197078704      0.49574019505795      0.26366727656616
  C   0.81882037559673      0.35048670038362      0.21893768341703
  F   -1.11192439226808      0.83969150465180      1.51835711733071
  H   1.21498273475107      1.32591289820136     -0.07426988610475
  N   -1.21054169751215      1.42825606196131     -0.64428763287196
  H   -2.22312357901646      1.44493866634807     -0.62192430218410
  H   -0.88436417028834      1.21964758787713     -1.57867763208158
  N   -1.35938606224668     -0.92305400905569      0.11146994358994
  O   -0.72785582471241     -1.86928103360435      0.57630357639389
  O   -2.46999583477262     -0.97165486625560     -0.39993385554361
  N   1.17387913741021     -0.55178337489679     -0.99763350893970
  O   2.07798322104454     -1.35928042897548     -0.84923135501519
  O   0.55229000721905     -0.34717727373760     -2.03979422515294
  N   1.38521618087725     -0.06624909409690      1.43060337474914
  H   1.08543368636366     -0.99862376681098      1.67892319047722
  H   2.39308818834128     -0.01656976704784      1.40649023536974
