16
Coordinates from ORCA-job run
  C   -0.71179909843817      0.42698439924570      0.19330558963233
  C   0.83449785931006      0.37301648512132      0.23777850925832
  F   -1.14922521927199      0.81871996296283      1.42633577228397
  H   1.18012585745536      1.39442257571501      0.07120329776011
  N   -1.19621271789101      1.27425021133417     -0.79329909154726
  H   -2.18228977975682      1.14078240894433     -0.97431220994117
  H   -0.66428820568354      1.20406787835045     -1.65041443437925
  N   -1.23795329313095     -1.03677427744274      0.07892788747261
  O   -1.77060102382413     -1.35101397663636     -0.98028020597340
  O   -1.04868364593003     -1.76657448705086      1.04667358185638
  N   1.26910339511802     -0.40599044942759     -0.99051704593514
  O   1.56680027563789     -1.58244688750621     -0.83589441100619
  O   1.24507011175605      0.20689590965298     -2.05878106775662
  N   1.44165028152173     -0.17601533361918      1.39195353901083
  H   0.97768713994292     -1.02203530507467      1.69557712190431
  H   1.44411806318461      0.50071088543084      2.14174316736015
