16
Coordinates from ORCA-job run
  C   -0.66672467247659      0.48287175928167     -0.01072573127953
  C   0.70271638571189     -0.02056298310308      0.43495780061434
  F   -0.82467435810994      1.80555396471352      0.24672413941634
  H   0.80635375947360      0.15286182144094      1.50381187187967
  N   -0.92210158122308      0.22868982040513     -1.35765280465486
  H   -1.81616100739693      0.61751611949751     -1.63081273845920
  H   -0.92678517691328     -0.76717705798129     -1.53447758963029
  N   -1.69421100675967     -0.19807480852999      0.95821606944745
  O   -2.68596456746670     -0.70085218037274      0.44364647281898
  O   -1.44316838005991     -0.13471719447813      2.15563370609383
  N   1.74810312595374      0.87366675569438     -0.22505988738930
  O   1.96926790107813      1.94742117651052      0.32287714545738
  O   2.27410657470791      0.45271995932627     -1.25091069053036
  N   0.82716602162666     -1.39423651210479      0.08424057146976
  H   1.20136187586972     -1.46807660989605     -0.85608693831401
  H   1.45071510598444     -1.87760403040386      0.71561860305979
