16
Coordinates from ORCA-job run
  C   -0.83683520299615      0.45919090402509      0.18509930749450
  C   0.71007744662839      0.38001162563275      0.31957964749449
  F   -1.23176926321746      1.32434375550731      1.14541049142860
  H   1.04653525931923      1.40855526323236      0.46154745508979
  N   -1.44262215339732      0.81407099325811     -1.03934947171309
  H   -1.31205697308240      0.08987328978249     -1.73330460792375
  H   -1.05835607437782      1.68184043515516     -1.39020110061923
  N   -1.38314116901837     -0.91678484141403      0.53577655303221
  O   -2.11033780805373     -1.03583953869847      1.50379585987993
  O   -1.00665653451570     -1.80002857083299     -0.23471634372055
  N   1.33413213084615     -0.02094128204437     -1.02155561620016
  O   1.27410951068539      0.82312136749522     -1.91389758925002
  O   1.85537795914321     -1.12678143970392     -1.10517411193274
  N   1.09511993839498     -0.43419240585956      1.40570582743543
  H   2.03600203229116     -0.23153246205844      1.71227538361552
  H   1.03042090135042     -1.41690709347671      1.16900831588908
