16
Coordinates from ORCA-job run
  C   -0.73684623014254      0.03669912642534      0.20254243821284
  C   0.76950783055057      0.08239682123996     -0.14027274967883
  F   -0.85494435032856     -0.47346553579160      1.45184722645171
  H   0.87862446670908      0.38027815531588     -1.18296941261630
  N   -1.43336811350638      1.26501459071215      0.13418706207899
  H   -0.97604641277546      1.97298639720799      0.69228747279948
  H   -1.54640425643936      1.56859663476936     -0.82338854939971
  N   -1.43217727024583     -0.90348693837581     -0.77313421541885
  O   -1.52922953631295     -0.46421862217948     -1.91541584278625
  O   -1.80387959646298     -1.98796076395369     -0.35733429556469
  N   1.29447663945388     -1.33745243881748     -0.06005008331899
  O   1.77203713600748     -1.69667528203065      1.00794877827878
  O   1.15244899778517     -2.01972640311688     -1.07266956088594
  N   1.54344328804978      0.90965083668453      0.71342852678912
  H   1.33143957932075      0.79217768911256      1.69313249112309
  H   1.57091782833735      1.87518573279784      0.42886071393554
