16
Coordinates from ORCA-job run
  C   -0.80315513341616      0.06465872087002      0.16240431890655
  C   0.71063548749689      0.14441551174137     -0.10086569200343
  F   -0.95276775163753     -0.45468440656577      1.41048708407960
  H   0.87302837708485      0.39371923270670     -1.14977852945706
  N   -1.49371137720797      1.28614213335844      0.05217429493830
  H   -0.92101554407120      2.02985694794059      0.43297809296044
  H   -1.72827714496909      1.47865314989558     -0.91238815763660
  N   -1.44254988286570     -0.90466058362420     -0.82683627940968
  O   -1.85527148858587     -1.96839220251551     -0.39774867819142
  O   -1.46941294178052     -0.50533364611548     -1.98694843543801
  N   1.30188821884562     -1.25798912550613      0.07204775232277
  O   1.07606303891743     -2.04737759121130     -0.84037760243957
  O   1.93242285449942     -1.48459116665088      1.09849882262380
  N   1.26906547696264      1.11192176171061      0.77174725552358
  H   1.29424368300861      0.75314748191454      1.71896698939084
  H   2.20881412771859      1.36051378205141      0.49463876382989
