16
Coordinates from ORCA-job run
  C   -0.66559777871194      0.47924493307756      0.18870427557467
  C   0.87434647817339      0.31560490237500      0.16291717636735
  F   -1.01484031793447      0.95794557020779      1.42284235463085
  H   1.27303668954461      1.28816248563653     -0.13114107622495
  N   -1.14046529733212      1.31607524575170     -0.80980706581382
  H   -2.14471003244339      1.25332256447548     -0.91706937934411
  H   -0.67663149497226      1.14323019673792     -1.69204697509712
  N   -1.32545066760028     -0.93565281052292      0.18685771430896
  O   -0.94357876843655     -1.71501615494885      1.05513381299114
  O   -2.17689001607075     -1.15857313651389     -0.66689355177302
  N   1.19324465472196     -0.60892385644646     -1.00472368781734
  O   1.01082927817052     -0.13334297650458     -2.12735155236568
  O   1.56763460320329     -1.74483022435430     -0.75384444085664
  N   1.51772742717886     -0.14467865314424      1.33321338484326
  H   1.02384454910271     -0.91951720898636      1.75390542796705
  H   1.62650069340643      0.60694912315963      1.99830358260939
