16
Coordinates from ORCA-job run
  C   -0.73291136931527      0.40091860862417      0.17005033554313
  C   0.81299532385702      0.40960451306668      0.25339379339856
  F   -1.21664077786739      0.78845483956322      1.38695325419150
  H   1.12207927789614      1.44153919874717      0.07999925398339
  N   -1.22489168752857      1.21612270601907     -0.83920757703659
  H   -0.66721523354174      1.15797919156025     -1.68074588089220
  H   -2.19917050135304      1.03977984795618     -1.04562756666936
  N   -1.19755330573471     -1.08404988160578      0.06102764423488
  O   -0.99730988423710     -1.79620170170554      1.03967059541514
  O   -1.69689759539202     -1.43023497141226     -1.00452535026696
  N   1.30891223080146     -0.36828262027037     -0.95190354339249
  O   1.28290221780504      0.22672989658663     -2.03024471205645
  O   1.65329781386122     -1.52833838486315     -0.77188014194247
  N   1.41251644658486     -0.09838542044380      1.43028968030289
  H   0.97818423768430     -0.96087994799177      1.73148897430958
  H   1.36270280647980      0.58624412616932      2.17126124087744
