16
Coordinates from ORCA-job run
  C   -0.69908633618968      0.41370134724786      0.20456803355321
  C   0.84796803098219      0.40196295933797      0.10583104227418
  F   -1.03597342966174      0.87740003754309      1.44815048238931
  H   1.13025901641045      1.39390760600835     -0.25221261125405
  N   -1.30519692742139      1.18499218051157     -0.77633220854102
  H   -0.89142077370002      1.01196445885924     -1.68327795949633
  H   -2.30600363532317      1.03687100430193     -0.80947784348053
  N   -1.21742084632665     -1.05741127255014      0.25598890177265
  O   -0.66549634261757     -1.79893055497479      1.06468234299596
  O   -2.14220715697021     -1.35606179863533     -0.49124901729084
  N   1.21026444495426     -0.54311786298609     -1.03404238586853
  O   0.83909207418390     -0.18553532796424     -2.15418773627596
  O   1.80434879473684     -1.57601542963651     -0.76757696570074
  N   1.58867287639001      0.07305974501171      1.26227913279023
  H   1.63165576784623      0.85913825247939      1.89416811552605
  H   1.21054444270654     -0.73792534455400      1.73168867660642
