16
Coordinates from ORCA-job run
  C   -0.71813628016565      0.42328337729833      0.17882541418215
  C   0.82829545874465      0.38392443833055      0.24311832353447
  F   -1.17403517148636      0.82861970036623      1.40055556063204
  H   1.16614895789211      1.40637056622527      0.06728748797463
  N   -1.19643693850720      1.25296588351428     -0.82586882498816
  H   -2.17920633491822      1.10979038097554     -1.01741503802654
  H   -0.65375635275623      1.17384551489266     -1.67549719510727
  N   -1.22952793239097     -1.04561030097287      0.07796272026875
  O   -1.05009024315787     -1.75982261912104      1.05913224473999
  O   -1.74003327868991     -1.38067231530265     -0.98591982053116
  N   1.28525396034573     -0.40743921446347     -0.96816705680849
  O   1.58858346252095     -1.57968917482301     -0.79319508581397
  O   1.27308579651424      0.19116738383193     -2.04468016514796
  N   1.42586209337901     -0.14426902256436      1.41241589294373
  H   0.96888131781689     -0.99369770600576      1.71745554290951
  H   1.40411148485884      0.54023310781836      2.15498999923830
