17

C	0.0	0.0	0.0
C	-0.524023	0.173817	-1.439096
F	1.389329	0.0	0.0
H	-1.595724	0.382449	-1.36127
C	-0.473931	1.062959	0.967388
H	-1.564284	1.034828	1.013119
H	-0.043561	0.861026	1.950679
H	-0.140265	2.041858	0.622301
C	-0.381499	-1.350551	0.464134
N	-0.565444	-2.433974	0.877167
N	-0.280012	-0.910071	-2.336108
H	0.625416	-1.331088	-2.172236
H	-1.010248	-1.600624	-2.219634
N	0.144631	1.410484	-1.988634
O	-0.409817	2.490193	-1.780019
O	1.211789	1.261544	-2.579326
Cl	-3.616485	0.0	0.0
