17

C	0.0	0.0	0.0
C	-0.516993	0.064532	-1.437458
F	1.391081	0.0	0.0
H	-1.612112	0.120494	-1.377288
C	-0.478197	1.120778	0.898286
H	-0.106028	0.937417	1.908155
H	-1.570093	1.134513	0.894863
H	-0.088335	2.07353	0.5401
C	-0.380733	-1.313393	0.561369
N	-0.537604	-2.351323	1.086398
N	-0.060388	-1.044741	-2.192906
H	-0.562257	-1.115482	-3.066539
H	0.931076	-0.962612	-2.374219
N	-0.042806	1.400202	-2.02414
O	0.994308	1.385669	-2.690332
O	-0.718409	2.39943	-1.791698
Cl	-3.654817	0.0	0.0
