17

C	0.0	0.0	0.0
C	-0.491971	-0.329819	-1.452373
F	1.386689	0.0	0.0
H	-0.622635	0.61103	-1.988795
C	-0.56034	1.317964	0.473059
H	-0.229279	1.524009	1.492703
H	-0.210826	2.11386	-0.189427
H	-1.654341	1.263136	0.449856
C	-0.37456	-1.095671	0.916319
N	-0.586631	-1.96252	1.679384
N	-1.636438	-1.151715	-1.614886
H	-1.523587	-2.010215	-1.087172
H	-2.48577	-0.690749	-1.260224
N	0.663858	-1.013823	-2.142744
O	0.881434	-2.17675	-1.817569
O	1.305051	-0.367863	-2.967814
Cl	-4.098897	0.0	0.0
