17

C	0.0	0.0	0.0
C	-0.38055	0.212841	-1.478179
F	1.384889	0.0	0.0
H	0.005208	1.195453	-1.759136
C	-0.55825	1.110588	0.86085
H	-0.210215	0.988801	1.888221
H	-1.651756	1.062985	0.839953
H	-0.216952	2.075063	0.47699
C	-0.422428	-1.310204	0.526528
N	-0.706247	-2.32532	1.043816
N	-1.722364	0.031432	-1.852087
H	-2.181135	0.900494	-2.076567
H	-2.328729	-0.439048	-1.178841
N	0.508835	-0.72899	-2.298336
O	0.368568	-1.932365	-2.115496
O	1.278356	-0.210263	-3.107213
Cl	-4.230126	0.0	0.0
