11
Coordinates from ORCA-job run
  C   1.26187798623275     -0.09409596841272     -0.16826155952196
  C   -0.16493281584124     -0.60707948311668     -0.11558462122315
  Cl  1.78478457370166      0.57881129564298      1.40684575819239
  H   -0.35877648466530     -1.11206479798693     -1.06941351976268
  H   1.96098982327655     -0.89403882803589     -0.41149232733431
  H   1.36558112016355      0.70562296806493     -0.90312790090464
  H   -0.24039737244819     -1.36669331310136      0.66789356135756
  C   -1.20179030828620      0.48716123161732      0.10741528272221
  H   -1.14407943231058      1.24497587738869     -0.67875230282913
  H   -1.05152282994149      0.98430071510254      1.06654038387786
  H   -2.21173425988151      0.07210030283713      0.09793724542584
