15

C	0.0	0.0	0.0
C	-0.643886	-0.015857	-1.351984
F	1.389098	0.0	0.0
H	-1.781926	0.09875	-1.045208
H	-0.495757	-0.964745	-1.864425
C	-0.368698	1.193804	0.799049
N	-0.515121	2.087799	1.547248
C	-0.459988	-1.243801	0.742346
H	-0.105528	-2.12779	0.204803
H	-0.045905	-1.243131	1.752472
H	-1.556549	-1.216578	0.771308
N	-0.192606	1.032261	-2.255789
O	0.041934	2.153472	-1.786405
O	-0.122841	0.758288	-3.458221
H	-2.964454	0.0	0.0
