15

C	0.0	0.0	0.0
C	-0.527941	-0.048135	-1.421296
F	1.386035	0.0	0.0
H	-1.637276	-0.022587	-1.30784
H	-0.103079	0.765729	-2.009202
C	-0.412239	1.286968	0.600089
N	-0.534548	2.343886	1.098213
C	-0.465911	-1.173282	0.83384
H	-1.562779	-1.188241	0.781987
H	-0.033434	-2.089213	0.426715
H	-0.123713	-1.042614	1.862828
N	-0.097759	-1.305764	-2.076493
O	-0.822927	-2.295513	-1.961459
O	0.969804	-1.288961	-2.699339
H	-3.047709	0.0	0.0
