12

C	-0.21063	0.1792	0.036851
C	-0.564728	0.443574	-1.423068
Br	1.418682	-0.907308	0.207218
H	-1.407954	1.151899	-1.358608
H	-1.089948	-0.427658	0.413916
H	0.266332	0.936217	-1.943733
C	-0.000402	1.410838	0.772009
N	0.140885	2.424486	1.352325
N	-0.917109	-0.818365	-2.055866
H	-1.651013	-1.18938	-1.422578
H	-1.34641	-0.611161	-2.951377
F	-2.498871	-1.126279	0.071574
