12

C	-0.231545	0.182696	0.025595
C	-0.588771	0.125978	-1.471833
Br	1.398908	-0.868857	0.384328
H	0.243875	0.496736	-2.081434
H	-1.104019	-0.356467	0.520608
H	-1.43067	0.819166	-1.577963
C	-0.002624	1.532685	0.494353
N	0.146172	2.647692	0.841542
N	-1.031401	-1.179296	-1.918691
H	-1.724539	-1.444688	-1.194478
H	-0.251062	-1.82159	-1.824537
F	-2.431044	-1.193057	0.36747
