13

C	0.004209	0.021679	0.00539
C	-0.524241	-0.17764	-1.415634
Cl	1.841675	-0.084668	0.016379
H	-0.199178	0.63641	-2.067772
H	-1.629001	-0.162638	-1.248208
C	-0.27213	1.419179	0.41136
N	-0.483544	2.515523	0.778918
N	-0.559364	-0.965642	0.848741
H	-0.346442	-0.750377	1.8168
H	-1.609469	-0.848637	0.661166
C	-0.10807	-1.451638	-1.983934
N	0.20766	-2.453266	-2.509146
F	-2.847146	-0.267045	-0.017734
