13

C	0.002272	0.023241	0.002704
C	-0.529711	-0.154243	-1.420007
Cl	1.839684	-0.085452	0.007353
H	-0.206485	0.669995	-2.060143
H	-1.634055	-0.141627	-1.249763
C	-0.270769	1.415224	0.430476
N	-0.478782	2.50399	0.821801
N	-0.5611	-0.975021	0.832543
H	-0.346297	-0.774821	1.803388
H	-1.611559	-0.854167	0.648531
C	-0.115119	-1.419359	-2.008755
N	0.199456	-2.413214	-2.549208
F	-2.850022	-0.261869	-0.018209
