19

C	-0.43544	-0.040009	-1.454925
C	0.0	0.0	0.0
F	-1.843681	0.126571	-1.537656
H	1.102033	0.0	0.0
C	0.203572	1.109532	-2.203191
H	-0.090045	1.083261	-3.257774
H	1.291285	1.034149	-2.111887
H	-0.118221	2.048426	-1.753834
C	-0.109817	-1.376837	-2.089862
H	-0.326972	-1.35063	-3.161552
H	-0.71831	-2.160202	-1.634124
H	0.951549	-1.597097	-1.942637
N	-0.494899	-1.190343	0.739261
H	0.074924	-1.978326	0.436949
H	-0.197434	-1.033263	1.699597
N	-0.464083	1.221017	0.62681
H	-1.406313	1.071257	0.969502
H	0.148079	1.43605	1.404863
H	3.016417	0.0	0.0
