19

C	-0.432146	0.009535	-1.457584
C	0.0	0.0	0.0
F	-1.836076	-0.189518	-1.539311
H	1.102033	0.0	0.0
C	-0.137419	1.344355	-2.109967
H	-0.757232	2.119264	-1.655588
H	-0.362222	1.30096	-3.179448
H	0.920197	1.587419	-1.973755
C	0.234978	-1.13524	-2.188364
H	-0.059505	-2.07509	-1.721832
H	-0.063563	-1.135204	-3.242148
H	1.320812	-1.028716	-2.101566
N	-0.469064	-1.208236	0.644523
H	0.108796	-1.389796	1.457788
H	-1.430595	-1.066698	0.937649
N	-0.49618	1.209374	0.708458
H	0.113653	1.976258	0.432166
H	-0.258681	1.050273	1.685172
H	3.023131	0.0	0.0
