19

C	-0.529129	-0.041015	-1.430704
C	0.0	0.0	0.0
F	-0.059856	1.112563	-2.079721
H	1.100894	0.0	0.0
C	0.057332	-1.216787	-2.193044
H	-0.142832	-1.089892	-3.260834
H	-0.388228	-2.16264	-1.874102
H	1.13786	-1.243627	-2.029883
C	-2.041421	0.019268	-1.492718
H	-2.371037	0.951281	-1.030056
H	-2.475538	-0.823003	-0.952347
H	-2.37856	0.003396	-2.534102
N	-0.4625	-1.218474	0.71696
H	0.017199	-2.00879	0.290011
H	-0.027144	-1.145483	1.635518
N	-0.469841	1.185985	0.696144
H	-1.231802	0.93051	1.313837
H	0.298375	1.54892	1.247697
H	3.039818	0.0	0.0
