19

C	-0.530642	-0.11128	-1.425934
C	0.0	0.0	0.0
F	-0.257011	-1.43127	-1.879201
H	1.094865	0.0	0.0
C	-2.036563	0.043115	-1.509342
H	-2.52063	-0.688933	-0.859342
H	-2.370418	-0.116272	-2.5393
H	-2.321641	1.045667	-1.187816
C	0.227377	0.829584	-2.332006
H	0.039733	1.857453	-2.02233
H	-0.091573	0.693456	-3.370687
H	1.29704	0.628736	-2.234091
N	-0.515444	-1.117269	0.813616
H	-0.385847	-1.956872	0.261592
H	0.142837	-1.213055	1.58462
N	-0.412975	1.284496	0.562111
H	0.36338	1.638947	1.111648
H	-1.193383	1.110282	1.187117
H	3.035828	0.0	0.0
