19

C	-0.47122	0.024252	-1.45739
C	0.0	0.0	0.0
F	-0.146785	-1.234154	-2.021101
H	1.102669	0.0	0.0
C	-1.970076	0.188864	-1.621565
H	-2.279468	1.142106	-1.198418
H	-2.513916	-0.608903	-1.107943
H	-2.233879	0.145047	-2.681824
C	0.314138	1.062751	-2.231589
H	0.072864	2.062724	-1.870392
H	1.378684	0.881837	-2.076055
H	0.074437	1.00713	-3.296785
N	-0.440919	-1.168205	0.749594
H	-1.291775	-1.549659	0.352442
H	0.284	-1.870882	0.644747
N	-0.487854	1.230123	0.664147
H	0.296681	1.879354	0.662306
H	-0.609006	0.955605	1.633601
H	3.044241	0.0	0.0
