19

C	-0.398134	-0.06989	-1.4672
C	0.0	0.0	0.0
F	-1.812504	-0.276283	-1.557292
H	1.103289	0.0	0.0
C	-0.083547	1.223221	-2.180208
H	-0.353896	1.150899	-3.238545
H	0.988447	1.419121	-2.087583
H	-0.629727	2.035398	-1.704655
C	0.270071	-1.251294	-2.142426
H	-0.07789	-2.190842	-1.710187
H	0.044251	-1.259335	-3.213056
H	1.351122	-1.177955	-1.987232
N	-0.438343	-1.179954	0.755461
H	-1.187632	-1.646927	0.260073
H	0.344416	-1.819856	0.832714
N	-0.462223	1.244086	0.626237
H	0.311761	1.567753	1.199331
H	-1.206385	0.986897	1.265753
H	2.956378	0.0	0.0
