19

C	-0.529159	-0.101867	-1.427301
C	0.0	0.0	0.0
F	-0.265815	1.140078	-2.067349
H	1.096065	0.0	0.0
C	0.241756	-1.157483	-2.186902
H	0.064903	-2.132132	-1.731281
H	1.308701	-0.933475	-2.11927
H	-0.075628	-1.1785	-3.234266
C	-2.031999	-0.286526	-1.487994
H	-2.367423	-0.264508	-2.528901
H	-2.302299	-1.24454	-1.04276
H	-2.527196	0.514581	-0.934745
N	-0.412113	-1.189168	0.744843
H	-1.195375	-0.925661	1.333727
H	0.362439	-1.456523	1.343661
N	-0.52119	1.222421	0.640583
H	0.140525	1.436832	1.384755
H	-0.400619	1.972738	-0.03491
H	3.041674	0.0	0.0
