19

C	-0.48146	-0.010323	-1.435727
C	0.0	0.0	0.0
F	-1.914931	-0.013587	-1.422045
H	1.110743	0.0	0.0
C	-0.039156	1.23859	-2.163986
H	-0.464222	2.115928	-1.679654
H	-0.354923	1.198342	-3.21106
H	1.05078	1.306884	-2.107665
C	-0.033988	-1.267304	-2.147249
H	-0.349317	-1.242403	-3.194925
H	1.05626	-1.330816	-2.089247
H	-0.455614	-2.139773	-1.651331
N	-0.394038	-1.236232	0.680757
H	0.244398	-1.370107	1.456375
H	-1.332433	-1.140461	1.054288
N	-0.3953	1.247058	0.664905
H	0.247104	1.382448	1.438898
H	-1.328044	1.144231	1.053875
H	2.960181	0.0	0.0
