11

C	0.0	0.0	0.0
C	-0.545584	-0.495237	-1.338429
Cl	1.781703	0.0	0.0
H	-1.645045	-0.454942	-1.239476
H	-0.35018	-0.643715	0.806774
H	-0.220541	0.171844	-2.140949
C	-0.41996	1.378356	0.26835
N	-0.637968	2.501408	0.530469
C	-0.105152	-1.85335	-1.630577
N	0.248721	-2.945014	-1.878373
Cl	-3.445778	0.0	0.0
