11

C	0.0	0.0	0.0
C	-0.245857	0.404719	-1.487224
Cl	1.784083	0.0	0.0
H	0.104754	1.437043	-1.576296
H	-0.387139	-0.988494	0.23343
H	0.454149	-0.202125	-2.068475
C	-0.440232	0.988559	0.978435
N	-0.543527	1.833918	1.78857
C	-1.510955	0.319658	-2.229409
N	-2.229537	0.404531	-3.158703
Cl	-3.031601	0.0	0.0
