11

C	0.0	0.0	0.0
C	-0.250327	-0.104794	-1.535795
Cl	1.783925	0.0	0.0
H	0.378512	-0.934276	-1.869836
H	-0.392588	-0.851369	0.54672
H	0.190911	0.797844	-1.971022
C	-0.422462	1.266789	0.59186
N	-0.511798	2.346035	1.046878
C	-1.538598	-0.311784	-2.206269
N	-2.222199	-0.532263	-3.141288
Cl	-3.021103	0.0	0.0
