11

C	0.0	0.0	0.0
C	-0.530786	-0.342917	-1.392151
Cl	1.781599	0.0	0.0
H	-1.630514	-0.31481	-1.304456
H	-0.362676	-0.723764	0.729772
H	-0.194397	0.41054	-2.109547
C	-0.416894	1.350353	0.385231
N	-0.585393	2.47647	0.671174
C	-0.086403	-1.658327	-1.833349
N	0.269077	-2.714404	-2.203138
Cl	-3.402619	0.0	0.0
