11

C	0.0	0.0	0.0
C	-0.498526	-0.319441	-1.410047
Cl	1.781208	0.0	0.0
H	-1.598259	-0.291494	-1.354896
H	-0.364931	-0.759902	0.689423
H	-0.172968	-1.329108	-1.675104
C	-0.421958	1.324888	0.459564
N	-0.6056	2.417937	0.847027
C	0.005227	0.617713	-2.407116
N	0.410098	1.352605	-3.228087
Cl	-3.363625	0.0	0.0
