11

C	0.0	0.0	0.0
C	-0.323502	-0.104891	-1.539743
Cl	1.78419	0.0	0.0
H	0.054257	0.810473	-2.01478
H	-0.349617	-0.860731	0.560768
H	0.291401	-0.928528	-1.921107
C	-0.424171	1.241263	0.624793
N	-0.5262	2.287771	1.147374
C	-1.658831	-0.336931	-2.133914
N	-2.383135	-0.553633	-3.041046
Cl	-3.034626	0.0	0.0
