15

C	-0.363562	-0.100356	-1.469168
C	0.0	0.0	0.0
F	-1.704003	-0.510369	-1.609751
H	1.09535	0.0	0.0
H	-0.32156	-0.951684	0.434792
C	-0.334285	1.228093	-2.143385
N	-0.30786	2.270809	-2.683984
N	0.473189	-1.06829	-2.096294
H	1.421414	-0.997797	-1.73089
H	0.48962	-0.959086	-3.101846
C	-0.602785	1.183595	0.734147
H	-0.192215	2.125774	0.365496
H	-0.36751	1.116914	1.798331
H	-1.690693	1.21049	0.623315
Br	3.59337	0.0	0.0
