15

C	-0.51391	0.001692	-1.424797
C	0.0	0.0	0.0
F	-0.084337	1.135869	-2.09495
H	1.093455	0.0	0.0
H	-0.31645	-0.939916	0.467956
C	0.02511	-1.161376	-2.178739
N	0.34007	-2.141103	-2.74469
N	-1.956351	0.026681	-1.466257
H	-2.283753	-0.169537	-2.405262
H	-2.324482	-0.680398	-0.840701
C	-0.501785	1.203496	0.791905
H	-1.585589	1.201545	0.924802
H	-0.022483	1.213543	1.771977
H	-0.222017	2.124583	0.278698
Br	3.659594	0.0	0.0
