15

C	-0.367654	-0.100582	-1.468014
C	0.0	0.0	0.0
F	-1.706741	-0.517411	-1.604932
H	1.095366	0.0	0.0
H	-0.320598	-0.951979	0.434881
C	-0.34888	1.228928	-2.141267
N	-0.330195	2.272654	-2.680237
N	0.471844	-1.063899	-2.098836
H	1.421902	-0.989796	-1.738459
H	0.481447	-0.955904	-3.104129
C	-0.602006	1.182616	0.736555
H	-1.690489	1.207898	0.630026
H	-0.362417	1.115998	1.79991
H	-0.194389	2.125604	0.366678
Br	3.593414	0.0	0.0
