15

C	-0.512613	-0.051639	-1.4237
C	0.0	0.0	0.0
F	0.018797	0.999626	-2.148581
H	1.093288	0.0	0.0
H	-0.336334	0.961829	0.399333
C	-0.083513	-1.297488	-2.118421
N	0.154862	-2.320962	-2.643885
N	-1.947474	0.099958	-1.471277
H	-2.378381	-0.496599	-0.779556
H	-2.302026	-0.154575	-2.384869
C	-0.480531	-1.159745	0.86847
H	-0.222949	-2.121111	0.416682
H	-1.55776	-1.142934	1.066696
H	0.029978	-1.1134	1.832155
Br	3.657504	0.0	0.0
