15

C	-0.513696	-0.009445	-1.422424
C	0.0	0.0	0.0
F	0.005602	1.070117	-2.114589
H	1.093293	0.0	0.0
H	-0.335706	0.950927	0.425832
C	-0.074215	-1.230668	-2.156236
N	0.175	-2.247148	-2.689701
N	-1.950022	0.135448	-1.466549
H	-2.38106	-0.539489	-0.848449
H	-2.28772	-0.031365	-2.407171
C	-0.486923	-1.181046	0.835656
H	-0.237262	-2.131639	0.356778
H	0.024654	-1.16646	1.798946
H	-1.563981	-1.158627	1.033993
Br	3.661884	0.0	0.0
