14

C	-0.384031	0.05925	-1.469446
C	0.0	0.0	0.0
Cl	-2.167652	0.419737	-1.67697
H	1.09494	0.0	0.0
H	-0.309461	0.936252	0.475643
C	0.432181	1.153265	-2.140072
H	0.165289	2.116241	-1.698866
H	1.48871	0.947839	-1.920524
H	0.244685	1.183995	-3.214166
C	-0.156009	-1.226613	-2.132286
N	0.038225	-2.256914	-2.662632
C	-0.565617	-1.123915	0.719254
N	-1.005421	-2.033595	1.319803
H	2.720713	0.0	0.0
