14

C	-0.36123	0.063422	-1.478342
C	0.0	0.0	0.0
Cl	-2.166098	0.200932	-1.744758
H	1.094944	0.0	0.0
H	-0.361932	-0.920028	0.46482
C	0.340052	1.239635	-2.137621
H	0.165561	1.248358	-3.214706
H	1.409026	1.136916	-1.911038
H	-0.029636	2.170096	-1.702437
C	0.031457	-1.195515	-2.118914
N	0.316551	-2.210633	-2.637358
C	-0.487196	1.157228	0.726148
N	-0.852709	2.102187	1.322268
H	2.70366	0.0	0.0
