14

C	-0.396413	0.024496	-1.465007
C	0.0	0.0	0.0
Cl	-2.198598	0.304941	-1.653197
H	1.094726	0.0	0.0
H	-0.312981	0.942209	0.46012
C	0.358395	1.146157	-2.159633
H	0.136907	1.164579	-3.227883
H	0.067718	2.100082	-1.714319
H	1.427444	0.982558	-1.97581
C	-0.123238	-1.257664	-2.116512
N	0.083785	-2.272123	-2.671834
C	-0.550979	-1.115906	0.744384
N	-0.976741	-2.021839	1.360452
H	2.716472	0.0	0.0
