14

C	-0.532907	0.132687	-1.427332
C	0.0	0.0	0.0
Cl	0.076445	-1.23687	-2.427805
H	1.094205	0.0	0.0
H	-0.301266	0.892593	0.561692
C	-2.057286	0.125381	-1.514077
H	-2.436609	-0.813895	-1.109101
H	-2.457971	0.956598	-0.927118
H	-2.383623	0.228143	-2.550973
C	-0.036749	1.379994	-2.021778
N	0.231644	2.41024	-2.518499
C	-0.540016	-1.175424	0.657682
N	-0.966614	-2.130259	1.195896
H	2.699258	0.0	0.0
