17

C	0.0	0.0	0.0
C	-0.476726	0.741215	-1.283049
Cl	1.832141	0.0	0.0
H	0.306979	0.568238	-2.028002
C	-0.364922	0.719292	1.227742
N	-0.622572	1.28754	2.222675
N	-0.520824	-1.313482	0.072859
H	-0.195337	-1.813665	0.888246
H	-0.327092	-1.846377	-0.764608
N	-0.464828	2.173875	-0.992763
H	-1.316749	2.400341	-0.486018
H	-0.510533	2.677811	-1.870702
C	-1.805885	0.217123	-1.820018
H	-1.72429	-0.80653	-2.194209
H	-2.617267	0.229951	-1.086856
H	-2.09816	0.848152	-2.666313
Br	-5.062192	0.0	0.0
