17

C	0.0	0.0	0.0
C	-0.451229	0.080026	-1.467811
Cl	1.900696	0.0	0.0
H	-1.543318	0.1192	-1.356832
C	-0.321272	1.233854	0.726315
N	-0.510075	2.234804	1.311501
N	-0.471163	-1.1408	0.698341
H	-0.445486	-1.899586	0.019966
H	-1.458689	-0.957969	0.901834
N	-0.119328	-1.191421	-2.102501
H	-0.812615	-1.406469	-2.806711
H	0.789959	-1.13454	-2.546127
C	0.028092	1.31249	-2.219232
H	-0.458421	1.345121	-3.198459
H	1.111247	1.287938	-2.368002
H	-0.22874	2.230914	-1.6857
Br	-3.71654	0.0	0.0
