17

C	0.0	0.0	0.0
C	-0.385928	0.087946	-1.538581
Cl	1.796544	0.0	0.0
H	0.460049	0.614803	-1.990545
C	-0.33195	1.293734	0.636923
N	-0.569864	2.323041	1.153866
N	-0.569472	-1.132156	0.657821
H	-1.577955	-1.106027	0.474995
H	-0.450909	-1.044146	1.661194
N	-1.565462	0.835176	-1.884328
H	-1.489099	1.794825	-1.565975
H	-2.408809	0.454557	-1.452262
C	-0.463504	-1.312986	-2.130218
H	-0.534327	-1.216549	-3.215514
H	-1.358301	-1.826797	-1.774427
H	0.410031	-1.913498	-1.868794
Br	-4.143023	0.0	0.0
