17

C	0.0	0.0	0.0
C	-0.557908	0.278164	-1.402376
Cl	1.863878	0.0	0.0
H	-1.643321	0.30706	-1.215228
C	-0.315489	1.094764	0.926813
N	-0.530539	1.971777	1.678043
N	-0.503728	-1.210372	0.458683
H	-0.199942	-1.495905	1.37472
H	-0.456842	-1.919436	-0.257942
N	-0.277666	-0.89534	-2.228051
H	-1.051976	-1.048656	-2.859827
H	0.566022	-0.750972	-2.77035
C	-0.094278	1.598801	-1.995633
H	-0.334916	2.4347	-1.334166
H	0.984496	1.594894	-2.177163
H	-0.610464	1.763953	-2.94521
Br	-4.017115	0.0	0.0
