17

C	0.0	0.0	0.0
C	-0.600754	0.300607	-1.377512
Cl	1.864201	0.0	0.0
H	-1.673887	0.370563	-1.138139
C	-0.299071	1.083775	0.94922
N	-0.487232	1.951071	1.718607
N	-0.49548	-1.219195	0.4605
H	-0.476095	-1.905091	-0.28273
H	-0.094086	-1.535982	1.328582
N	-0.411941	-0.874721	-2.221793
H	0.363985	-0.737602	-2.857818
H	-1.255294	-1.038559	-2.754967
C	-0.108606	1.6026	-1.98524
H	-0.673236	1.804653	-2.898859
H	0.955396	1.544521	-2.23326
H	-0.260036	2.442539	-1.303514
Br	-4.037627	0.0	0.0
