17

C	0.0	0.0	0.0
C	-0.581395	0.28442	-1.389888
Cl	1.863613	0.0	0.0
H	-1.659909	0.330157	-1.168959
C	-0.303948	1.093488	0.935957
N	-0.489355	1.964051	1.702087
N	-0.504807	-1.21061	0.467063
H	-0.14366	-1.509051	1.359086
H	-0.471454	-1.913603	-0.258789
N	-0.345556	-0.889145	-2.224319
H	-1.152833	-1.044762	-2.813891
H	0.471216	-0.751178	-2.808405
C	-0.110736	1.597948	-1.99105
H	0.961103	1.571864	-2.209328
H	-0.308784	2.436584	-1.319371
H	-0.655244	1.777617	-2.921479
Br	-4.013783	0.0	0.0
