17
Coordinates from ORCA-job run
  C   0.95178498922169     -0.05071892831626      0.39874244395416
  C   -0.43047663740036      0.23909784642200     -0.21804783506609
  Br  0.88714117783372     -1.30407838298217      1.86903652521085
  H   -0.21615941568665      0.99086313524666     -0.98796663055576
  C   1.59111346385106      1.17180183093036      0.86597726381222
  N   2.06283920000519      2.17730478666051      1.25229256695449
  N   1.83018327918513     -0.61736439958518     -0.74172559295455
  O   2.12821587745208      0.22129902856580     -1.58400905260828
  O   2.08200511513938     -1.80910006044764     -0.76291773595986
  C   -1.37911698000782      0.85127614855505      0.80783045548120
  H   -1.66634760177002      0.11994321881156      1.56521838374792
  H   -2.28588865033621      1.18509998720796      0.29824523768440
  H   -0.93853171964004      1.71692136015266      1.30748887821468
  C   -1.02877232143972     -0.99337881301075     -0.88817058338766
  H   -0.40816440194414     -1.36612926976210     -1.70533520376061
  H   -2.00172605437583     -0.72971008963164     -1.30857954718642
  H   -1.17809932008745     -1.80212739881680     -0.17007957358069
