17
Coordinates from ORCA-job run
  C   0.96886886204697     -0.24938784509571      0.51957205085104
  C   -0.56810943109138     -0.15323445767220      0.39147810587673
  Br  1.51842870561797     -1.92247860620750      1.33246710403526
  H   -0.92930354963485     -0.34895121690168      1.40794744304955
  C   1.51575168300836      0.83029479520653      1.32946327164088
  N   1.91843510307057      1.68648039478490      2.02759913677345
  N   1.57782809253852     -0.14187653148840     -0.88934922205194
  O   1.70932066057184     -1.16816740850980     -1.53591173342338
  O   1.79585702218492      1.00478523735808     -1.26707144322886
  C   -1.14531012064684     -1.20594832954221     -0.55168195102735
  H   -0.89509665389059     -0.98689640107207     -1.59198309753075
  H   -2.23385458453123     -1.19464472444546     -0.46239537926015
  H   -0.79543050103022     -2.21149174585783     -0.31880019407529
  C   -1.01221704633982      1.25208437214364     -0.01897655167177
  H   -2.10390426695755      1.28953295595774     -0.00222898021816
  H   -0.63807696525215      2.01983986652486      0.66009735347964
  H   -0.68318700966453      1.49805964481711     -1.03022591321891
