15

C	0.0	0.0	0.0
C	-0.415489	-0.035325	-1.496238
Cl	1.779776	0.0	0.0
H	0.408116	-0.443404	-2.087493
H	-0.273281	-0.98445	0.392869
N	-0.601837	1.111411	0.672956
H	-1.62161	0.976183	0.538412
H	-0.428272	1.020794	1.668192
N	-0.42813	1.440658	-1.997544
O	-1.511578	1.968065	-2.228118
O	0.668678	1.970777	-2.174443
N	-1.608113	-0.744451	-1.693137
H	-2.379441	-0.43384	-1.026119
H	-1.931469	-0.63904	-2.647142
H	-3.331842	0.0	0.0
