17

C	-0.579491	-0.051373	-1.396408
C	0.0	0.0	0.0
Br	0.321192	-1.493234	-2.398384
H	1.08725	0.0	0.0
N	-1.971667	-0.309088	-1.435947
H	-2.417886	0.470812	-0.960675
H	-2.28671	-0.332475	-2.39935
N	-0.194979	1.212371	-2.205644
O	-0.922912	1.476864	-3.160195
O	0.811667	1.816927	-1.874154
N	-0.315396	-1.153879	0.789096
H	-1.056718	-1.697232	0.367587
H	0.536133	-1.702627	0.873497
N	-0.46743	1.214552	0.687187
O	-1.249032	1.993013	0.096115
O	-0.012237	1.422256	1.809759
H	2.495917	0.0	0.0
