17

C	-0.659436	-0.049122	-1.361049
C	0.0	0.0	0.0
Br	0.303658	-1.540033	-2.402671
H	1.094971	0.0	0.0
N	-2.024867	-0.274606	-1.262355
H	-2.154892	-1.060232	-0.633942
H	-2.466813	-0.413673	-2.160755
N	-0.381473	1.141257	-2.264663
O	0.738857	1.619893	-2.234443
O	-1.299312	1.479312	-3.008445
N	-0.338764	-1.221759	0.718016
H	-0.595622	-0.92933	1.655797
H	0.546126	-1.722985	0.815336
N	-0.427611	1.166276	0.731646
O	-0.362528	1.115073	1.976972
O	-0.712152	2.200943	0.102285
H	2.406626	0.0	0.0
