17

C	-0.597514	0.004093	-1.396242
C	0.0	0.0	0.0
Br	0.163404	-1.661234	-2.334588
H	1.094971	0.0	0.0
N	-1.983463	0.014773	-1.366999
H	-2.291566	-0.716496	-0.737011
H	-2.398145	-0.051208	-2.286397
N	-0.088451	1.097053	-2.32909
O	-0.903628	1.529538	-3.141656
O	1.087126	1.404694	-2.250425
N	-0.464183	-1.177244	0.710045
H	0.344257	-1.794778	0.773225
H	-0.659395	-0.860525	1.655195
N	-0.378925	1.209775	0.68819
O	-0.484659	1.168211	1.931767
O	-0.423003	2.263547	0.029131
H	2.436349	0.0	0.0
