17

C	-0.244646	0.084314	-1.497192
C	0.0	0.0	0.0
Br	-2.216551	0.294045	-1.962737
H	1.09705	0.0	0.0
N	0.529636	1.084041	-2.053659
H	1.444649	1.091723	-1.575803
H	0.617511	0.970635	-3.055084
N	0.05939	-1.293255	-2.215011
O	0.137033	-2.333692	-1.572016
O	0.223672	-1.20671	-3.428762
N	-0.559667	-1.040629	0.782632
H	-1.530163	-1.199989	0.547691
H	-0.025299	-1.880484	0.621637
N	-0.422412	1.318194	0.58937
O	0.3085	2.289666	0.407605
O	-1.467503	1.334339	1.244004
H	2.631363	0.0	0.0
