17

C	-0.510726	0.050925	-1.425551
C	0.0	0.0	0.0
Br	0.510151	1.301076	-2.530734
H	1.096034	0.0	0.0
N	-0.518222	-1.243647	-2.020432
H	0.109147	-1.285987	-2.809259
H	-0.258934	-1.90484	-1.292448
N	-2.00203	0.514282	-1.442137
O	-2.663891	0.057097	-0.512786
O	-2.446454	1.155004	-2.379894
N	-0.265712	-1.24697	0.649775
H	0.51273	-1.427965	1.277756
H	-1.132098	-1.212283	1.17061
N	-0.404453	1.162583	0.782795
O	-0.687407	2.211055	0.186391
O	-0.332284	1.06052	2.015703
H	2.458626	0.0	0.0
