15

C	0.0	0.0	0.0
C	-0.378694	0.338537	-1.458603
F	1.391161	0.0	0.0
H	0.153065	-0.405105	-2.066847
H	-0.329848	0.798974	0.671732
C	-0.53739	-1.334379	0.442936
H	-1.630411	-1.30306	0.463092
H	-0.202528	-2.12329	-0.237834
H	-0.175281	-1.567415	1.447016
C	0.226029	1.641983	-1.805618
N	0.716348	2.669614	-2.090259
N	-1.770089	0.325051	-1.846824
H	-2.38913	0.74271	-1.152526
H	-2.101855	-0.628332	-1.915384
Cl	-4.342616	0.0	0.0
