15

C	0.0	0.0	0.0
C	-0.339017	0.285722	-1.485573
F	1.391135	0.0	0.0
H	0.268737	-0.440625	-2.04149
H	-0.330999	0.824403	0.638516
C	-0.556771	-1.312281	0.477641
H	-1.647532	-1.241528	0.510512
H	-0.185327	-1.535504	1.480579
H	-0.256964	-2.122517	-0.193784
C	0.204412	1.61483	-1.830788
N	0.633957	2.674687	-2.093581
N	-1.701725	0.181909	-1.952735
H	-2.362409	0.652862	-1.337418
H	-1.998471	-0.784934	-1.912677
Cl	-4.208954	0.0	0.0
