15

C	0.0	0.0	0.0
C	-0.339778	-0.190412	-1.500549
F	1.39249	0.0	0.0
H	0.126438	-1.148378	-1.769396
H	-0.324917	0.990899	0.332521
C	-0.582754	-1.071768	0.875539
H	-1.672328	-0.966183	0.856247
H	-0.235969	-0.952806	1.905192
H	-0.2961	-2.065947	0.521796
C	0.386846	0.838821	-2.269379
N	0.95156	1.654641	-2.89525
N	-1.714573	-0.215817	-1.942128
H	-2.233426	-0.95346	-1.478621
H	-2.214533	0.621046	-1.659974
Cl	-4.250094	0.0	0.0
