15

C	0.0	0.0	0.0
C	-0.354609	-0.157266	-1.497553
F	1.391873	0.0	0.0
H	0.206149	-1.045949	-1.818136
H	-0.328288	0.975308	0.371966
C	-0.547892	-1.11531	0.849223
H	-0.243552	-2.086659	0.447932
H	-1.639425	-1.048757	0.869599
H	-0.169893	-1.027455	1.870466
C	0.236256	0.980259	-2.230044
N	0.704596	1.895587	-2.796036
N	-1.732139	-0.32791	-1.89557
H	-2.352605	0.349194	-1.456664
H	-2.082262	-1.21454	-1.554657
Cl	-4.26507	0.0	0.0
