17

C	-0.302448	0.003004	-1.511554
C	0.0	0.0	0.0
Cl	-2.000545	0.436778	-1.844971
H	1.096228	0.0	0.0
N	0.554573	0.847881	-2.276996
H	0.343515	1.814852	-2.068007
H	1.520685	0.65709	-2.000399
N	-0.077821	-1.434294	-2.03279
O	-0.990547	-2.239337	-1.889152
O	1.027751	-1.662368	-2.502353
C	-0.547227	-1.134681	0.72714
N	-1.015271	-1.994484	1.377624
C	-0.407347	1.304586	0.689125
H	-0.004973	2.157991	0.140602
H	-1.490388	1.40234	0.775224
H	0.038382	1.318877	1.685179
Br	3.422396	0.0	0.0
