17

C	-0.549325	0.015467	-1.426934
C	0.0	0.0	0.0
Cl	0.305823	-1.268011	-2.387725
H	1.092239	0.0	0.0
N	-1.958006	-0.080144	-1.46701
H	-2.283231	-0.059551	-2.425191
H	-2.259118	-0.93377	-1.012639
N	-0.189688	1.308791	-2.161101
O	0.74208	1.973124	-1.736493
O	-0.864013	1.555462	-3.158232
C	-0.454881	-1.25656	0.597212
N	-0.895692	-2.228279	1.089865
C	-0.498715	1.169148	0.858527
H	-1.588577	1.221052	0.87216
H	-0.084206	2.102442	0.482142
H	-0.129145	1.028739	1.875738
Br	3.472727	0.0	0.0
