17

C	-0.437184	0.00998	-1.454499
C	0.0	0.0	0.0
Cl	-2.274319	-0.33136	-1.551576
H	1.094311	0.0	0.0
N	-0.0593	1.166711	-2.127941
H	-0.245491	1.094666	-3.118891
H	-0.462597	1.998879	-1.726244
N	0.150534	-1.167272	-2.238254
O	0.158692	-1.043916	-3.459276
O	0.527159	-2.138715	-1.602407
C	-0.505733	-1.151504	0.739396
N	-0.923451	-2.008663	1.425347
C	-0.415661	1.289804	0.719344
H	-1.48968	1.478638	0.640455
H	0.156548	2.129765	0.321226
H	-0.152066	1.198913	1.773511
Br	3.426788	0.0	0.0
