17

C	-0.457156	-0.038544	-1.462488
C	0.0	0.0	0.0
Cl	0.300734	1.258009	-2.389763
H	1.093987	0.0	0.0
N	-0.188869	-1.273183	-2.069646
H	-0.479569	-1.290268	-3.037117
H	-0.602956	-2.039671	-1.556436
N	-2.011334	0.275708	-1.457323
O	-2.398636	1.437323	-1.446361
O	-2.7337	-0.718176	-1.391152
C	-0.46246	-1.208814	0.67639
N	-0.85483	-2.180614	1.208653
C	-0.433036	1.243548	0.781146
H	0.108324	1.245006	1.728298
H	-1.505799	1.26707	0.980328
H	-0.150626	2.140552	0.230714
Br	3.42809	0.0	0.0
