17

C	-0.265318	0.046914	-1.509612
C	0.0	0.0	0.0
Cl	-1.980109	0.424053	-1.922634
H	1.096801	0.0	0.0
N	0.593676	0.991652	-2.079164
H	1.545273	0.848915	-1.727521
H	0.588165	0.931624	-3.088344
N	-0.071828	-1.381924	-2.146289
O	0.744944	-1.45701	-3.060163
O	-0.757246	-2.299653	-1.713464
C	-0.554744	-1.13442	0.725983
N	-1.020834	-1.956567	1.424616
C	-0.432522	1.304839	0.679962
H	-0.005049	1.328767	1.684142
H	-1.519249	1.376608	0.751068
H	-0.044904	2.150659	0.11332
Br	3.418213	0.0	0.0
