17

C	-0.365706	-0.017557	-1.496009
C	0.0	0.0	0.0
Cl	0.357859	1.38117	-2.288815
H	1.09628	0.0	0.0
N	0.023464	-1.194037	-2.209186
H	1.037358	-1.257555	-2.148451
H	-0.382069	-2.003737	-1.752033
N	-1.895492	0.093663	-1.596124
O	-2.499166	-0.975098	-1.503705
O	-2.412672	1.202667	-1.664643
C	-0.444401	-1.24362	0.621586
N	-0.809667	-2.243305	1.120489
C	-0.49175	1.207478	0.795538
H	-0.165668	2.127572	0.31169
H	-0.045014	1.171825	1.791107
H	-1.580158	1.220115	0.894998
Br	3.445189	0.0	0.0
