17

C	-0.279649	0.12783	-1.498593
C	0.0	0.0	0.0
Cl	-2.000754	0.506173	-1.872133
H	1.09666	0.0	0.0
N	0.560436	1.115859	-2.023893
H	0.544448	1.111823	-3.035126
H	1.517093	0.964069	-1.691822
N	-0.068405	-1.261893	-2.209375
O	-0.754441	-2.20318	-1.834995
O	0.762629	-1.285679	-3.110235
C	-0.540145	-1.177848	0.66075
N	-0.989608	-2.044052	1.315369
C	-0.432601	1.258405	0.761558
H	-0.051579	2.139466	0.24681
H	0.001716	1.220717	1.762172
H	-1.519091	1.321656	0.843755
Br	3.413018	0.0	0.0
