17

C	-0.340071	0.13055	-1.496185
C	0.0	0.0	0.0
Cl	-2.047863	0.582064	-1.747612
H	1.096116	0.0	0.0
N	0.497475	1.040486	-2.207464
H	0.254753	1.98872	-1.952919
H	1.468881	0.861452	-1.942177
N	-0.125472	-1.258844	-2.138867
O	-1.042738	-2.068375	-2.078382
O	0.989395	-1.45224	-2.603711
C	-0.539812	-1.194374	0.632443
N	-0.989333	-2.115944	1.206548
C	-0.395324	1.241072	0.805537
H	-1.476726	1.33506	0.914071
H	0.06375	1.16803	1.792539
H	0.004104	2.136829	0.326246
Br	3.417757	0.0	0.0
