17

C	-0.517722	-0.000903	-1.440849
C	0.0	0.0	0.0
Cl	0.330708	-1.322605	-2.351103
H	1.091901	0.0	0.0
N	-1.928094	-0.062079	-1.519559
H	-2.221284	-0.05604	-2.488773
H	-2.261488	-0.901286	-1.059783
N	-0.108355	1.268992	-2.192676
O	-0.722972	1.483798	-3.235308
O	0.795288	1.949639	-1.73309
C	-0.472818	-1.245622	0.603165
N	-0.923462	-2.222408	1.076676
C	-0.505353	1.186902	0.829067
H	-0.17751	1.050644	1.861488
H	-0.059755	2.107896	0.458068
H	-1.594126	1.259612	0.80194
Br	3.475494	0.0	0.0
