17

C	-0.295261	-0.000646	-1.499752
C	0.0	0.0	0.0
Cl	-0.086502	1.702439	-2.172494
H	1.09852	0.0	0.0
N	0.491935	-0.964022	-2.123003
H	1.464073	-0.884429	-1.821119
H	0.397356	-0.955308	-3.129204
N	-1.761435	-0.291338	-1.842512
O	-2.602994	-0.076954	-0.977559
O	-1.985941	-0.695516	-2.977806
C	-0.446745	-1.272802	0.561595
N	-0.796579	-2.276059	1.062683
C	-0.472882	1.174747	0.851277
H	-0.012536	2.095594	0.497167
H	-1.557642	1.273254	0.845157
H	-0.130252	1.005199	1.874161
Br	3.423361	0.0	0.0
