17

C	-0.354767	0.049649	-1.492182
C	0.0	0.0	0.0
Cl	-2.125051	0.07013	-1.733331
H	1.099262	0.0	0.0
N	0.221904	1.131264	-2.210491
H	1.231613	1.11266	-2.072291
H	-0.153155	2.002211	-1.859191
N	0.16419	-1.247035	-2.151526
O	-0.390425	-2.287371	-1.82145
O	1.108148	-1.136486	-2.919953
C	-0.523896	-1.16027	0.707189
N	-0.961924	-2.023931	1.372679
C	-0.415605	1.275523	0.740685
H	-1.493324	1.44545	0.690293
H	-0.120285	1.181067	1.786645
H	0.119899	2.134653	0.334447
Br	3.415876	0.0	0.0
