17

C	-0.423017	0.011926	-1.467461
C	0.0	0.0	0.0
Cl	0.374899	1.340374	-2.313969
H	1.095584	0.0	0.0
N	-0.133187	-1.201628	-2.117905
H	-0.419365	-1.20393	-3.087198
H	-0.469801	-2.00818	-1.608464
N	-1.971549	0.289894	-1.589276
O	-2.399368	0.735046	-2.649725
O	-2.666728	-0.107688	-0.656491
C	-0.431461	-1.237091	0.644806
N	-0.759248	-2.243367	1.155531
C	-0.421988	1.228981	0.807126
H	-0.091804	2.131843	0.29266
H	-1.497165	1.267997	0.978165
H	0.096323	1.194862	1.766285
Br	3.434072	0.0	0.0
