17

C	0.0	0.0	0.0
C	-0.260036	0.200779	-1.532385
Cl	1.804635	0.0	0.0
H	0.343556	-0.594183	-1.969122
N	-0.389194	1.233174	0.883006
O	-0.353138	1.01791	2.089315
O	-0.669479	2.306437	0.366493
N	-0.536232	-1.179647	0.472306
H	-1.596632	-0.93346	0.37293
H	-0.260944	-1.299775	1.439867
N	0.175763	1.456247	-2.044843
H	-0.496275	2.167364	-1.785793
H	0.202677	1.394477	-3.053778
N	-1.650226	-0.175421	-2.090126
O	-1.863481	-1.372903	-2.236685
O	-2.334311	0.73135	-2.550098
F	-2.631317	0.0	0.0
