17

C	0.0	0.0	0.0
C	-0.407431	0.056257	-1.530751
Cl	1.771039	0.0	0.0
H	0.471617	0.333517	-2.117966
N	-0.328085	1.432368	0.553593
O	0.18591	2.367615	-0.046056
O	-1.032246	1.512195	1.545879
N	-0.613682	-0.926781	0.843627
H	-1.641217	-0.730786	0.713284
H	-0.376291	-1.858263	0.527172
N	-1.501965	0.856517	-1.826555
H	-1.719203	0.81766	-2.81186
H	-2.306	0.573671	-1.197774
N	-0.583678	-1.449352	-1.98097
O	-1.51353	-1.700071	-2.741213
O	0.269276	-2.267862	-1.629622
F	-2.955919	0.0	0.0
