17

C	0.0	0.0	0.0
C	-0.304936	0.116121	-1.548516
Cl	1.794482	0.0	0.0
H	0.44713	0.790514	-1.943794
N	-0.314099	1.43194	0.596085
O	-0.557441	1.46661	1.795214
O	-0.251869	2.405565	-0.146764
N	-0.627063	-1.006965	0.689509
H	-1.658731	-0.82914	0.503435
H	-0.440522	-0.907538	1.681738
N	-1.58367	0.462504	-2.03916
H	-1.594763	1.463132	-2.173852
H	-2.316522	0.212703	-1.324666
N	0.072703	-1.219655	-2.175658
O	-0.641981	-2.184698	-1.937608
O	1.017046	-1.21477	-2.970473
F	-2.950643	0.0	0.0
