17

C	0.0	0.0	0.0
C	-0.342532	-0.011979	-1.555974
Cl	1.798619	0.0	0.0
H	0.4924	0.481008	-2.046958
N	-0.295298	1.466133	0.505455
O	-0.169374	2.392162	-0.28917
O	-0.57961	1.578743	1.690751
N	-0.628683	-0.96544	0.744142
H	-0.420812	-0.836215	1.727662
H	-1.666692	-0.777983	0.554754
N	-1.565862	0.485848	-2.064839
H	-1.479918	1.492747	-2.102243
H	-2.320627	0.254319	-1.375473
N	-0.215708	-1.46545	-1.97264
O	0.882901	-1.838787	-2.393043
O	-1.217528	-2.164854	-1.897354
F	-2.914669	0.0	0.0
