18

C	0.0	0.0	0.0
C	-0.143335	-0.083568	-1.556997
Cl	1.847746	0.0	0.0
H	0.329419	0.802801	-1.972411
N	-0.538072	1.205421	0.510582
H	-1.550683	1.065075	0.61127
H	-0.386289	1.986352	-0.117521
C	-0.508198	-1.175959	0.796757
H	-0.042085	-2.105446	0.486
H	-0.290144	-0.976195	1.847489
H	-1.593012	-1.229284	0.661435
N	-1.523477	-0.084299	-2.169568
O	-1.948113	1.027854	-2.459102
O	-2.044998	-1.166185	-2.394543
N	0.562598	-1.225896	-2.238277
O	1.125121	-0.927969	-3.292707
O	0.505749	-2.348426	-1.754372
Cl	-3.727436	0.0	0.0
