18

C	0.0	0.0	0.0
C	-0.169647	-0.103316	-1.558013
Cl	1.796467	0.0	0.0
H	0.326679	0.763507	-1.987405
N	-0.537741	1.221835	0.494814
H	-1.550525	1.08686	0.596864
H	-0.387156	1.985948	-0.153927
C	-0.53101	-1.154287	0.816594
H	-0.308544	-0.9392	1.863517
H	-0.079558	-2.09703	0.52452
H	-1.616226	-1.191525	0.682031
N	-1.549767	-0.062497	-2.16667
O	-1.953419	1.067221	-2.417532
O	-2.093184	-1.124759	-2.428305
N	0.502638	-1.273456	-2.223663
O	0.409159	-2.387319	-1.72497
O	1.081692	-1.007288	-3.277687
Cl	-3.754548	0.0	0.0
