18

C	0.0	0.0	0.0
C	-0.545455	-0.109759	-1.437954
Cl	1.789543	0.0	0.0
H	-1.632974	-0.255071	-1.351938
N	-0.496168	1.163363	0.67843
H	-1.512222	1.058815	0.746163
H	-0.277857	1.998787	0.151573
C	-0.4385	-1.230265	0.786199
H	-1.527127	-1.300967	0.758128
H	0.005294	-2.141918	0.390547
H	-0.106343	-1.079285	1.813812
N	0.02988	-1.252057	-2.215713
O	-0.480325	-2.351561	-2.017242
O	0.978156	-1.021861	-2.962812
N	-0.354937	1.093869	-2.31455
O	0.359675	2.019423	-1.93943
O	-0.959856	1.045833	-3.381381
Cl	-3.601914	0.0	0.0
