18
Coordinates from ORCA-job run
  C   -0.75059118638064      0.28497374117612     -0.22334668773960
  C   0.76202844566133      0.43047832622493     -0.05485124995137
  F   -1.03947751112540      0.82158145871234     -1.46192786323124
  H   0.97337036932740      1.50237862974854     -0.01812872404085
  N   -1.46767988268863      1.23599975220822      0.74086333993103
  O   -2.47759655524517      0.82997042261846      1.29975948479392
  O   -0.99906557225225      2.36654511076287      0.81444536484554
  C   -1.31519526386844     -1.10226671773406     -0.14099959660486
  H   -1.18046151777352     -1.52399252920747      0.85274840967686
  H   -2.38068363762205     -1.06645123637466     -0.36166494848989
  H   -0.82242802383913     -1.73023452340629     -0.88413945730690
  C   1.55294055717927     -0.24064120846682     -1.16032260391105
  H   1.46281124562551     -1.32660153599688     -1.11319715841312
  H   1.19044760173348      0.10931553907634     -2.12634378739629
  H   2.60673017529025      0.01390883247763     -1.06648309287872
  N   1.18627938604884     -0.08899835870974      1.29339844641498
  O   0.35325393154610     -0.04374762942212      2.19726491825888
  O   2.34431743838304     -0.47321807368741      1.41092520604268
