18
Coordinates from ORCA-job run
  C   -0.76606353592923      0.32057958997134     -0.18994310531604
  C   0.72521551979714      0.48993781616288      0.08827194771206
  F   -1.05108348450232      1.25179368573443     -1.17096018676994
  H   0.89433395917455      1.55072212290686      0.27598659533348
  N   -1.54923742829431      0.82425704466456      1.02523407055441
  O   -2.58994748712309      0.24934505868676      1.31624101021508
  O   -1.09197300130309      1.82247047505001      1.57368759114722
  C   -1.25812057313839     -1.02256580350588     -0.63856640431748
  H   -0.74282539663887     -1.29742636114687     -1.55924213864917
  H   -1.08510624499706     -1.77626106426301      0.12574488520001
  H   -2.32603209583430     -0.95961674975690     -0.84013518314824
  C   1.60575393352077     -0.00601016513819     -1.04546129163839
  H   1.57427465850436     -1.09408210386635     -1.12499038912207
  H   2.63556743847957      0.29928121113031     -0.86461127485030
  H   1.26946160645415      0.43198607343352     -1.98596132437170
  N   1.14022798603270     -0.19174526262516      1.35868976626896
  O   0.32530652683476     -0.91186992862462      1.93334611140245
  O   2.29124761896264      0.01920436118634      1.72266932034964
