18
Coordinates from ORCA-job run
  C   -0.72823981526597      0.14968458296722      0.07451029641233
  C   0.76087136536171     -0.18492681387969     -0.03463830940553
  F   -0.88822058333343      1.38955639740350      0.60351259640587
  H   0.85028114353198     -1.22804541002215     -0.33545530223764
  N   -1.28489747841160     -0.84508798711912      1.09408861788550
  O   -1.20110000154895     -2.02512508221905      0.76728684984972
  O   -1.76071116081043     -0.39935595833452      2.12785473157681
  C   -1.53305260348723      0.02707490772721     -1.19409974271972
  H   -1.22086704366689      0.80256347989904     -1.89403236630845
  H   -1.39207281376750     -0.95092940894899     -1.65056672571342
  H   -2.58849700777458      0.17603502818190     -0.95875957430371
  C   1.53345436262809      0.12482846813482      1.22983548542853
  H   1.41662773057708      1.17037477245905      1.50607262025934
  H   1.17599872419076     -0.50436083187521      2.04735456644154
  H   2.59335389103395     -0.08553508749806      1.07871561153913
  N   1.30038328224785      0.59978848600590     -1.19489564047663
  O   1.34994410300784      0.01581555840423     -2.27688777359906
  O   1.61674390548732      1.76864489871391     -0.99089594103460
