18
Coordinates from ORCA-job run
  C   -0.75222337819357      0.31270562253616     -0.30310401877603
  C   0.75811486011513      0.11146913487654     -0.40542560320626
  F   -1.06076675459418      1.40390338255824     -1.06230522701001
  H   0.95921404784921     -0.04533945177168     -1.46749459793454
  N   -1.19035215050281      0.63425572963647      1.12198468427173
  O   -1.06422340671733     -0.28966647304570      1.92008206507686
  O   -1.65471788752449      1.74026741726854      1.34432423049286
  C   -1.55756082402108     -0.87085253178703     -0.77920823016465
  H   -2.61472259840691     -0.59896407425672     -0.76485524421843
  H   -1.27398671485054     -1.11068615520668     -1.80540862095130
  H   -1.40459505702868     -1.73614574568068     -0.13827664501061
  C   1.38437019099365     -0.98055864484764      0.44025242393795
  H   1.25603780997174     -0.77582658825966      1.50040071783436
  H   2.45009539015809     -1.03546435167803      0.20807931487873
  H   0.93629380050251     -1.94787563526380      0.21107659952592
  N   1.43667714775875      1.41408163276426     -0.09054618526096
  O   1.27820932736593      1.84978904750394      1.04694881219014
  O   2.11513619712460      1.92290768465346     -0.97752447567577
