18
Coordinates from ORCA-job run
  C   -0.71385605287790      0.20647043483816      0.07082834006852
  C   0.74407552465460     -0.24586996693494     -0.03557400172905
  F   -0.77786242221536      1.42995442206595      0.65579806329037
  H   0.75250078441662     -1.27555150352395     -0.39063633855770
  N   -1.36829902698811     -0.78363888603683      1.03484292630645
  O   -1.83302408771440     -0.34599179637742      2.07699757203624
  O   -1.36872297790111     -1.95170710622458      0.65800967701733
  C   -1.50630823340758      0.21066621347549     -1.21133422187400
  H   -2.54884472998306      0.43822921342622     -0.98131147399309
  H   -1.11909276352155      0.98751862277705     -1.87107934312720
  H   -1.44133525942298     -0.75404925667408     -1.71125792946472
  C   1.51613933357602     -0.06861357379783      1.25450969304962
  H   1.47916972058568      0.96633324445350      1.58711844475048
  H   2.55819333850513     -0.35615994737856      1.10646577760738
  H   1.09463711335251     -0.71065384394786      2.03051351530810
  N   1.36767294771876      0.55121508837998     -1.14402325695431
  O   1.38242648904132      0.02492980597327     -2.25637338833733
  O   1.78153030218144      1.67491883550644     -0.87249405539708
