18
Coordinates from ORCA-job run
  C   -0.74666858419586     -0.22844566226694     -0.36461007378569
  C   0.76442480400730      0.00951953348194     -0.45315296731219
  F   -1.00510540656207     -1.30136961885349     -1.17485817467388
  H   0.99313629185155      0.15969379228680     -1.50998429694040
  N   -1.40981365329125      0.97379706940911     -1.03619906443087
  O   -1.83421134246591      1.85218142165785     -0.29144438274277
  O   -1.41606697664972      0.97833667744433     -2.25984763575572
  C   -1.33843679370609     -0.46745829958198      0.99481433524860
  H   -0.93923401004058     -1.40148908186853      1.39091498078468
  H   -1.10743150691372      0.34544551206428      1.67793767874896
  H   -2.42095128429428     -0.56145014240818      0.90138600844538
  C   1.58070097437315     -1.11388372120737      0.14929580619694
  H   2.64195372997176     -0.93571935056859     -0.03322654415962
  H   1.42407688697812     -1.18168292792585      1.22440465574189
  H   1.30302272647249     -2.05663411240060     -0.32351196205839
  N   1.09214073176009      1.31740035927192      0.20851661237837
  O   1.20390791694963      1.32111628773542      1.43263256763672
  O   1.21455549575538      2.29164226372989     -0.53106754332200
