17

C	0.0	0.0	0.0
C	-0.243001	0.004529	-1.537652
F	1.37308	0.0	0.0
H	0.125816	0.993804	-1.836713
H	0.488584	-0.716308	-1.907013
C	-0.63434	1.110669	0.766834
H	-1.719068	0.977572	0.700087
H	-0.328784	1.094515	1.812975
H	-0.356021	2.058422	0.303963
N	-0.387921	-1.33089	0.593395
O	-0.640174	-1.346842	1.795697
O	-0.348541	-2.316895	-0.137728
C	-1.588345	-0.263424	-2.18982
H	-1.4574	-0.340254	-3.276754
H	-2.042442	-1.182489	-1.829992
H	-2.318785	0.51611	-2.004924
Cl	-3.932301	0.0	0.0
