16

C	-0.497441	0.019893	-1.441258
C	0.0	0.0	0.0
Cl	-2.370618	-0.160522	-1.406422
H	1.092947	0.0	0.0
N	-0.053281	1.146165	-2.093752
H	-0.427037	1.262847	-3.021732
H	-0.117885	1.953089	-1.490898
N	-0.071093	-1.199051	-2.239455
O	0.341138	-2.168256	-1.619615
O	-0.19062	-1.104643	-3.456595
C	-0.497191	-1.138908	0.77445
N	-0.913808	-1.959147	1.50484
N	-0.370895	1.285903	0.600677
H	0.342033	1.523387	1.280043
H	-1.267488	1.220607	1.066013
Cl	3.240774	0.0	0.0
