16

C	-0.269682	0.132879	-1.498811
C	0.0	0.0	0.0
Cl	-1.992555	0.401671	-1.898137
H	1.102309	0.0	0.0
N	0.521528	1.196185	-1.970551
H	0.481028	1.253675	-2.980568
H	1.49022	1.037138	-1.678409
N	0.057671	-1.203202	-2.243825
O	0.673286	-1.087237	-3.298581
O	-0.366762	-2.246146	-1.769818
C	-0.56205	-1.165605	0.669356
N	-0.982004	-2.049481	1.318749
N	-0.516013	1.209344	0.66692
H	-0.122873	1.996064	0.158121
H	-0.093123	1.224168	1.590165
Cl	3.266214	0.0	0.0
