16

C	-0.289647	-0.008201	-1.505223
C	0.0	0.0	0.0
Cl	-0.036843	1.659836	-2.185304
H	1.096977	0.0	0.0
N	0.477297	-1.010904	-2.103058
H	0.38655	-1.013301	-3.109627
H	1.450889	-0.924554	-1.810083
N	-1.760963	-0.281105	-1.813947
O	-2.023076	-0.697875	-2.935911
O	-2.575635	-0.039004	-0.928559
C	-0.434113	-1.287337	0.56566
N	-0.781929	-2.279182	1.091707
N	-0.480678	1.15035	0.72337
H	-1.406242	0.987772	1.093327
H	0.166016	1.352925	1.473354
Cl	3.25597	0.0	0.0
