16

C	-0.589384	-0.182144	-1.39957
C	0.0	0.0	0.0
Cl	0.050282	-1.640473	-2.17506
H	1.108888	0.0	0.0
N	-1.9978	-0.209342	-1.361082
H	-2.291185	0.592951	-0.811394
H	-2.371873	-0.153431	-2.300271
N	-0.094687	0.995271	-2.295244
O	-0.723929	1.155273	-3.339818
O	0.853183	1.668463	-1.914059
C	-0.456846	-1.10905	0.838834
N	-0.831367	-1.947248	1.572782
N	-0.526993	1.277477	0.530269
H	0.228577	1.947298	0.445115
H	-0.735329	1.177285	1.517556
Cl	3.289966	0.0	0.0
