18

C	-0.096181	0.036491	-1.531793
C	0.0	0.0	0.0
F	-0.004556	-1.307323	-2.023278
H	1.099288	0.0	0.0
C	-1.413376	0.487031	-2.052195
N	-2.481001	0.828261	-2.406302
N	0.9648	0.835969	-1.999559
H	1.81777	0.597227	-1.44163
H	1.103593	0.725367	-2.995693
C	-0.63833	-1.223868	0.621334
H	-0.460723	-1.214859	1.70129
H	-0.206306	-2.138362	0.21653
H	-1.724594	-1.248511	0.459842
C	-0.502645	1.299994	0.608403
H	-0.239446	1.329246	1.670466
H	-0.027848	2.154968	0.124081
H	-1.592259	1.406526	0.523075
F	2.740572	0.0	0.0
