18

C	-0.469639	-0.039507	-1.436622
C	0.0	0.0	0.0
F	0.048758	1.084761	-2.122433
H	1.095851	0.0	0.0
C	0.064731	-1.214146	-2.166954
N	0.418459	-2.145171	-2.787722
N	-1.897118	-0.062935	-1.574263
H	-2.279657	0.708324	-1.040652
H	-2.148551	0.058364	-2.549236
C	-0.44312	-1.242225	0.760465
H	-0.067738	-2.147911	0.276064
H	0.002324	-1.210732	1.759071
H	-1.532604	-1.325704	0.857614
C	-0.452835	1.279419	0.693945
H	0.129602	1.38131	1.613113
H	-0.233653	2.1538	0.077428
H	-1.518636	1.289481	0.969831
F	2.646327	0.0	0.0
