18

C	-0.445448	-0.001931	-1.444438
C	0.0	0.0	0.0
F	-0.029539	1.164978	-2.083001
H	1.096638	0.0	0.0
C	0.209427	-1.1096	-2.201559
N	0.596729	-2.02064	-2.8342
N	-1.880635	-0.051013	-1.600612
H	-2.269002	-0.716642	-0.947128
H	-2.133338	-0.327076	-2.541826
C	-0.40671	-1.282318	0.716332
H	0.11741	-1.313737	1.675299
H	-0.090841	-2.169385	0.15881
H	-1.485459	-1.361084	0.925205
C	-0.493768	1.241555	0.726732
H	-1.581704	1.260231	0.870568
H	-0.00867	1.27967	1.706444
H	-0.200685	2.139993	0.181274
F	2.641938	0.0	0.0
