18

C	-0.136793	-0.129268	-1.528117
C	0.0	0.0	0.0
F	-1.298378	-0.862166	-1.903235
H	1.097156	0.0	0.0
C	-0.364541	1.184573	-2.195534
N	-0.513446	2.219452	-2.732848
N	1.02301	-0.797002	-1.99809
H	1.844729	-0.556582	-1.391763
H	1.202804	-0.623611	-2.977211
C	-0.490478	-1.277207	0.665479
H	-0.164905	-1.283306	1.710237
H	-0.057749	-2.148875	0.17257
H	-1.582254	-1.366405	0.637116
C	-0.612594	1.248355	0.603562
H	-1.692769	1.311068	0.417069
H	-0.458672	1.239385	1.687291
H	-0.143311	2.154306	0.214028
F	2.753295	0.0	0.0
