18

C	-0.487097	0.037752	-1.426524
C	0.0	0.0	0.0
F	-1.914933	0.294713	-1.445008
H	1.095775	0.0	0.0
C	0.068326	1.19067	-2.173013
N	0.434616	2.11146	-2.801765
N	-0.21696	-1.141914	-2.16257
H	-0.671515	-1.103967	-3.066385
H	-0.535227	-1.952086	-1.650049
C	-0.445433	-1.276151	0.706579
H	-0.20236	-1.18727	1.768579
H	0.119705	-2.138426	0.340519
H	-1.523002	-1.471245	0.619394
C	-0.454053	1.242105	0.75641
H	-1.537798	1.277007	0.918288
H	-0.152204	2.152846	0.230882
H	0.052876	1.255777	1.725135
F	2.637544	0.0	0.0
