18

C	-0.508673	0.034776	-1.418625
C	0.0	0.0	0.0
F	-1.943494	0.253915	-1.410288
H	1.096623	0.0	0.0
C	0.00012	1.207015	-2.168417
N	0.338633	2.136039	-2.800741
N	-0.21968	-1.132117	-2.167354
H	-0.713719	-1.115643	-3.05042
H	-0.47266	-1.956389	-1.642513
C	-0.434738	-1.276626	0.714081
H	-1.511877	-1.476054	0.636703
H	-0.181403	-1.182699	1.773224
H	0.130649	-2.138977	0.348126
C	-0.450817	1.23878	0.764534
H	-0.174888	2.152798	0.230842
H	0.081121	1.260071	1.719463
H	-1.530314	1.259959	0.954628
F	2.637885	0.0	0.0
