18

C	-0.480071	-0.014919	-1.436758
C	0.0	0.0	0.0
F	-0.081084	1.164015	-2.057504
H	1.096513	0.0	0.0
C	0.142589	-1.131831	-2.190286
N	0.561177	-2.043097	-2.798976
N	-1.919632	-0.108265	-1.657471
H	-2.371916	0.459557	-0.948846
H	-2.213414	-1.066658	-1.512632
C	-0.429801	-1.262931	0.734698
H	-0.094363	-2.160777	0.206547
H	-1.515534	-1.331248	0.896319
H	0.061553	-1.274747	1.711327
C	-0.45888	1.256111	0.727503
H	-0.177005	2.149047	0.167955
H	0.061683	1.297039	1.688113
H	-1.540561	1.290818	0.933221
F	2.644104	0.0	0.0
