18

C	-0.114027	-0.087961	-1.533172
C	0.0	0.0	0.0
F	-0.107771	-1.445039	-1.894555
H	1.096058	0.0	0.0
C	-1.396269	0.449196	-2.060832
N	-2.42516	0.898608	-2.405012
N	1.008855	0.531316	-2.184316
H	0.831452	1.518183	-2.312444
H	1.82106	0.417419	-1.535305
C	-0.652787	-1.139716	0.75158
H	-1.742005	-1.158299	0.611188
H	-0.246661	-2.098955	0.433202
H	-0.455813	-1.030168	1.822563
C	-0.452949	1.365002	0.497443
H	-0.149475	1.48778	1.540988
H	-1.540394	1.500992	0.433751
H	0.029309	2.16643	-0.068561
F	2.728435	0.0	0.0
