14
Coordinates from ORCA-job run
  C   0.54079196667152      0.80815114535566     -0.11044468038605
  C   -0.50268395948717     -0.29190932826035     -0.25691939499944
  F   0.45146582115622      1.67273698995751     -1.14816571480647
  H   -0.43499577418533     -0.71112862730428     -1.26128858130286
  H   0.47104793644466      1.34007122515837      0.83759287179470
  N   1.88206324740622      0.13324047450735     -0.14542618390080
  O   2.39326894582348     -0.09654531171291      0.94784600636563
  O   2.31370523331426     -0.18308593497194     -1.24746315222356
  N   -1.84229406907267      0.40594884913102     -0.18714251597900
  O   -2.60487798783884      0.27752957075873     -1.13643736608606
  O   -2.05518133392538      1.02517696546335      0.85234767752343
  N   -0.47991729109263     -1.31090509540180      0.73456229133457
  H   -0.22532527732850     -0.97197358548745      1.65157434565713
  H   0.09293254211417     -2.09730733719325      0.47036439700878
