14
Coordinates from ORCA-job run
  C   0.74808077868829      0.47911196192457     -0.72938415154201
  C   -0.48291566008848     -0.37003082696037     -0.43269549713017
  F   1.48368652420913     -0.10851784460297     -1.69601119978013
  H   -0.89536130778971     -0.65366220145584     -1.40392947413273
  H   0.49337098754430      1.49766129679792     -1.02070539083931
  N   1.58331329823023      0.58602047274022      0.52144700661699
  O   2.77922178980618      0.36142727866020      0.45264360125123
  O   0.94162610527128      0.92341962209497      1.51465441517806
  N   -1.56981911835216      0.54741378383494      0.16502114512485
  O   -2.12384173109035      0.17162542752697      1.18846101356838
  O   -1.81864236627875      1.56692346148254     -0.47020782074705
  N   -0.18314010941814     -1.51242975075383      0.33536205944461
  H   -0.04687207376222     -1.27804237621304      1.31034942352213
  H   -0.90870711696961     -2.21092030507628      0.26599486946514
