14
Coordinates from ORCA-job run
  C   0.68587989287386      0.43629228303356     -0.73154058951483
  C   -0.60512753166363     -0.33342393898243     -0.42011035814704
  F   1.40117613201708     -0.29570651094441     -1.62004183022969
  H   -1.05735412520551     -0.55454881004703     -1.38986797954203
  H   0.51262718532779      1.44074989214633     -1.11660588040209
  N   1.47991142965317      0.57107762494590      0.53685927357085
  O   2.50017298635771     -0.08916173899344      0.66489896832774
  O   0.96520833446189      1.32102601106894      1.36181116755360
  N   -1.56263224660723      0.62199536009785      0.25322782116802
  O   -1.91599850845433      1.57235134589928     -0.43827274749237
  O   -1.89056216802960      0.39129596712307      1.40802006650883
  N   -0.47888424378269     -1.52594473193562      0.34234706417906
  H   -0.14201550300761     -1.35553911287684      1.28058708320028
  H   0.10659836605911     -2.20046364053515     -0.13131205918032
