14
Coordinates from ORCA-job run
  C   0.69747387626669      0.42861322196472     -0.76730859978294
  C   -0.55310679454780     -0.32776361775101     -0.34726900811136
  F   1.39502031425253     -0.35207196898365     -1.63199245309853
  H   -1.08697688009870     -0.59769070208812     -1.27038908576260
  H   0.48137119230039      1.39586477872301     -1.21689274542587
  N   1.53678213722556      0.67946062656609      0.45935623159164
  O   1.01121058238869      1.43921588854358      1.26335289764995
  O   2.61840629471703      0.12287827485549      0.54867736596175
  N   -1.50996985045828      0.61827680918339      0.34362110313208
  O   -1.75186590613718      1.65504984208262     -0.26323786764969
  O   -2.01469722138258      0.25099869673048      1.39522072856905
  N   -0.19214954551219     -1.39441733989150      0.53138735690290
  H   0.37804628433198     -2.07131968848409      0.03990997682901
  H   -1.00954448334614     -1.84709482145099      0.91656409919460
