16

C	-0.430056	-0.047693	-1.456609
C	0.0	0.0	0.0
Br	-2.474477	-0.528955	-1.482158
H	1.091807	0.0	0.0
H	-0.3878	0.887245	0.497266
N	-0.236336	1.230989	-1.996915
H	-0.436727	1.271366	-2.986104
H	-0.73261	1.957476	-1.500544
C	0.266823	-1.097469	-2.290894
H	0.037858	-2.097347	-1.93564
H	1.341961	-0.920961	-2.192288
H	-0.038862	-1.005096	-3.336158
N	-0.449981	-1.148183	0.818588
O	-0.19771	-2.280315	0.416361
O	-1.021545	-0.890915	1.878834
Br	3.49619	0.0	0.0
