16

C	-0.33166	0.005711	-1.491214
C	0.0	0.0	0.0
Br	-2.307447	0.208558	-1.69966
H	1.093937	0.0	0.0
H	-0.400423	-0.871801	0.512152
N	0.302958	1.039493	-2.264353
H	0.175312	1.924705	-1.786756
H	1.305129	0.842354	-2.242275
C	0.068056	-1.348485	-2.050406
H	-0.124255	-1.361488	-3.123626
H	1.138906	-1.487028	-1.866002
H	-0.48378	-2.158204	-1.570222
N	-0.485361	1.174972	0.750137
O	-1.049049	0.9668	1.825046
O	-0.292714	2.294474	0.274747
Br	3.465248	0.0	0.0
