16

C	-0.327772	0.030708	-1.485163
C	0.0	0.0	0.0
Br	-2.309425	0.184252	-1.729347
H	1.093964	0.0	0.0
H	-0.391458	0.889602	0.485335
N	0.261642	1.268629	-1.942345
H	0.233851	1.298877	-2.955628
H	1.241444	1.265569	-1.652474
C	0.128042	-1.192217	-2.264422
H	-0.394916	-2.098869	-1.970432
H	-0.03565	-1.014119	-3.330961
H	1.198313	-1.320994	-2.073879
N	-0.518191	-1.163321	0.74381
O	-1.269035	-0.933077	1.693957
O	-0.162986	-2.287555	0.393778
Br	3.461605	0.0	0.0
