16

C	-0.318561	-0.14484	-1.485774
C	0.0	0.0	0.0
Br	-2.290788	-0.007057	-1.734086
H	1.094098	0.0	0.0
H	-0.38829	0.941327	0.38539
N	0.282933	0.960997	-2.203322
H	0.030639	1.835706	-1.753556
H	1.294326	0.857271	-2.099687
C	0.166056	-1.439493	-2.103676
H	1.231808	-1.540859	-1.873165
H	0.022239	-1.378704	-3.183187
H	-0.356538	-2.303982	-1.703713
N	-0.527721	-1.056249	0.890071
O	-0.173757	-2.217856	0.689637
O	-1.28759	-0.702092	1.795271
Br	3.467491	0.0	0.0
