16

C	-0.327732	-0.039191	-1.485412
C	0.0	0.0	0.0
Br	-2.30923	0.104277	-1.737843
H	1.091348	0.0	0.0
H	-0.39199	0.911161	0.443184
N	0.262927	1.175523	-1.999511
H	0.235674	1.160179	-3.013181
H	1.242392	1.187514	-1.708538
C	0.127687	-1.297978	-2.20448
H	-0.396081	-2.189653	-1.868271
H	-0.034659	-1.171086	-3.278817
H	1.197655	-1.417261	-2.006297
N	-0.518409	-1.127863	0.796855
O	-1.276148	-0.854813	1.730783
O	-0.157217	-2.266659	0.50275
Br	3.462345	0.0	0.0
