16

C	-0.545559	0.064343	-1.417286
C	0.0	0.0	0.0
Br	0.055576	-1.475438	-2.496792
H	1.088139	0.0	0.0
H	-0.344974	0.898938	0.518011
N	-1.990503	0.00138	-1.387239
H	-2.368993	0.228734	-2.299214
H	-2.345988	0.659235	-0.701322
C	0.057019	1.303397	-2.073597
H	1.148182	1.270799	-2.023355
H	-0.26026	1.369379	-3.117209
H	-0.298724	2.192958	-1.54049
N	-0.565665	-1.124693	0.781881
O	-1.494063	-0.851379	1.551185
O	-0.100647	-2.245888	0.613145
Br	3.52058	0.0	0.0
