13
Coordinates from ORCA-job run
  C   -0.38643448432944     -0.13764812727745     -0.20178955432593
  C   1.11613262128976     -0.10214012875576      0.12044327293000
  Cl  -0.69033991156194     -1.48050637884338     -1.35039498257498
  H   1.39589347283135     -1.06274863612453      0.56225221628158
  H   1.29616197461134      0.68089072200809      0.86447513133018
  C   -0.79061695090537      1.11612248694395     -0.83971291568644
  N   -1.11734971792543      2.14502870263537     -1.30356845563092
  C   -1.20021433799279     -0.37459092846432      1.06572078991756
  H   -1.03388797614715      0.44220933542257      1.77231124343927
  H   -0.89736576980935     -1.31823735209304      1.52312314736459
  H   -2.26291660941262     -0.42442911487520      0.82838306293211
  C   1.94762612493867      0.15337449141037     -1.05217303090059
  N   2.62331156441297      0.36367492801332     -1.98806992507641
