14
Coordinates from ORCA-job run
  C   0.14510066820671     -0.56685082438633     -0.16696886398055
  C   0.24392521653958      0.94842556906283     -0.10317235270303
  F   0.55461510580733     -0.98624576108907     -1.43366271145043
  H   1.15019230786046      1.23913185060569     -0.64264356676676
  H   0.36506152443845      1.23660134705949      0.94418984314081
  N   -1.09968677821079     -1.05538117404136      0.16022330649548
  H   -1.75438572165618     -0.34491650037101      0.44463356098744
  H   -1.10692410565634     -1.91977303771018      0.67556545544820
  N   1.25292998861711     -1.17136260523285      0.71999376378533
  O   2.35966841567574     -0.65136075841410      0.63205655095625
  O   0.96503219387228     -2.14005842395593      1.41676772340798
  N   -0.99958247325822      1.52705160908414     -0.59756501605070
  H   -1.08491551713940      1.35619281154301     -1.59241154229149
  H   -0.99103082509673      2.52854589784568     -0.45600615097853
