14
Coordinates from ORCA-job run
  C   0.00324909111137     -0.56838513435269     -0.08979281121610
  C   -0.55700839089010      0.83079621163067     -0.18877923608472
  F   0.68370068793470     -0.83924696171580     -1.26271302424635
  H   -1.35894433995266      0.80291329627122     -0.94292793677139
  H   -0.99941452152971      1.08015684205279      0.77355192097536
  N   -0.95408634408503     -1.54601312504770      0.23192320452943
  H   -1.74534399763819     -1.49922129473410     -0.39588505390977
  H   -0.54948797694149     -2.47433069288801      0.20012300718797
  N   1.05805010229498     -0.61821357563755      1.01505079374412
  O   2.05843917195734     -1.29063633362081      0.79988150290658
  O   0.78086251657457     -0.02664631503150      2.04858728410180
  N   0.53098977693978      1.74347125551695     -0.48608793901704
  H   0.76322974859869      1.71687717649860     -1.46894142709391
  H   0.28376447562575      2.68947865105793     -0.23499028510598
