14
Coordinates from ORCA-job run
  C   0.18756408619812     -0.57389278292106     -0.09144142886414
  C   0.19230139293894      0.94154095514859     -0.20923898976187
  F   0.69231221238565     -1.11400191715860     -1.27396279340073
  H   0.23872982074528      1.36004685223235      0.79940538700317
  H   1.10743854598821      1.22487522563179     -0.73753000019269
  N   -1.04300277833971     -1.10259863562551      0.23187619011323
  H   -1.02264927126988     -1.88861128545994      0.86049577413278
  H   -1.74979150291499     -0.40432076517032      0.39850551284495
  N   1.27772540450856     -0.99052491763179      0.91819296861301
  O   2.35838699824055     -0.42195505705047      0.81028896283701
  O   1.00487886666927     -1.87288804912837      1.72676641919658
  N   -1.05499792376869      1.37448981411576     -0.82843458327981
  H   -1.07322513110966      1.08482788036752     -1.79899689709022
  H   -1.11467072027165      2.38401268265006     -0.80692652215125
