14
Coordinates from ORCA-job run
  C   0.06455278622960     -0.53848977410489     -0.20654804507108
  C   0.28464507563437      0.96202480777854     -0.16470599469495
  F   0.17219968366267     -1.02673342413208     -1.45782515174332
  H   1.27693267823822      1.15818563233760     -0.58028552933157
  H   0.29392621288137      1.26088077934857      0.89436770554477
  N   -1.18877562397684     -0.91642983677756      0.33037971697431
  H   -1.19267636109891     -0.78455678535384      1.33356619981671
  H   -1.38564308308905     -1.88628030371886      0.11444240853351
  N   1.24442673898656     -1.16362426574422      0.59052268184848
  O   2.19245715998793     -1.62376192663725     -0.02974861544729
  O   1.13229193704614     -1.09580988694599      1.81379093963128
  N   -0.71738097595335      1.60288910627661     -0.99455060470455
  H   -0.54083394569149      2.59693698140864     -1.04721788170196
  H   -1.63512228285722      1.45376889626473     -0.59718782965434
