14
Coordinates from ORCA-job run
  C   -0.03681101555494     -0.70716218350180     -0.31134207073684
  C   -0.07040346791842      0.70235905726603     -0.85636755127136
  F   0.27064997215426     -1.59172167274642     -1.31177863125406
  H   -0.88799952053371      0.71368659131723     -1.57974152514092
  H   0.86626704357781      0.89123133579539     -1.38675342229117
  N   -1.22667496503553     -1.06708273977058      0.31558295411706
  H   -1.12296026612080     -1.91517912051453      0.85725013130947
  H   -1.54025888859445     -0.29274533244833      0.88834956962940
  N   1.18912032259050     -0.86175909781032      0.64203450242994
  O   1.18562988870479     -1.85693358537118      1.35913706180005
  O   2.07575497360315     -0.01134827537866      0.59855437802687
  N   -0.36030010166683      1.62547070438272      0.23428278356844
  H   -0.84743505388641      2.44104495113717     -0.10917421327649
  H   0.50442107868060      1.93013936764328      0.66196603308961
