18
Coordinates from ORCA-job run
  C   -0.53773619438174      0.32236159507748     -0.34963775721665
  C   0.94872040537476     -0.05086817534773     -0.18339588054314
  Br  -0.86193955731394      0.60737791800487     -2.28885692880178
  H   1.52954854910955      0.80985868958377     -0.54976394183123
  C   -0.83749826429785      1.64256794483485      0.33913793333680
  H   -1.87653661811057      1.93321343896475      0.17239945668292
  H   -0.19286549921211      2.43901281740070     -0.04007517193844
  H   -0.65789287331787      1.52686802341543      1.40889983380250
  C   -1.46382254924967     -0.78477217268063      0.12089938796436
  H   -2.50561121033029     -0.51298637284807     -0.05900195437008
  H   -1.32659024039108     -0.92048471886421      1.19785064317469
  H   -1.24564473377101     -1.72523651675328     -0.38344864008315
  N   1.25733024027709     -1.29638603973963     -0.87800529782964
  H   1.01980222841567     -1.22071056035962     -1.86048488786882
  H   2.25477710416812     -1.46667676938824     -0.81557328410324
  N   1.22556801436123     -0.18813686419716      1.23971676915817
  H   1.07955462812617     -1.15883317959264      1.49480525119048
  H   2.19083657054353      0.04483094248934      1.43453446927624
