18
Coordinates from ORCA-job run
  C   -0.58478269477837      0.14129744856562     -0.19822224935147
  C   0.84276323054885     -0.22291668955206      0.23729743937869
  Br  -0.83802684935197     -0.50397129206894     -2.06537879151558
  H   0.92246212044430      0.15500938281573      1.26576365712550
  C   -0.79314168759690      1.64596091707175     -0.21124444064336
  H   -0.63785451063570      2.02725674505280      0.80434589304740
  H   -0.08297073290952      2.13996273722483     -0.87008516691200
  H   -1.81270595289645      1.88689957406239     -0.51868809373460
  C   -1.62228131155768     -0.55834128307920      0.66299980763748
  H   -1.50435501940491     -1.63878431028796      0.62859496920784
  H   -1.48838312196735     -0.23390179998146      1.70113996937505
  H   -2.62990059052933     -0.28564091166161      0.34296186083389
  N   1.81770883816703      0.52325377974911     -0.54819031450741
  H   2.74496945608875      0.37266734948514     -0.16832124352924
  H   1.81401238622459      0.18123947236610     -1.50337117336469
  N   0.99268672216822     -1.67022229065586      0.32175107566938
  H   0.96827916384107     -2.06679043082289     -0.61179099639852
  H   1.89252055414537     -1.89397839828351      0.73043779768163
