18
Coordinates from ORCA-job run
  C   -0.53149788946919      0.36852897526520     -0.38192328124905
  C   0.93820884800054     -0.09459127331749     -0.30281889692385
  Br  -0.84328569071197      0.94804369335837     -2.24038595742624
  H   1.54833900983462      0.68066113905231     -0.78818626640331
  C   -0.78142895165287      1.57849195836839      0.50736296961573
  H   -1.77411403775622      1.99034562659531      0.31992845143797
  H   -0.04898356432268      2.36870069847688      0.31875222819970
  H   -0.73170547931495      1.27935115744171      1.55793814480561
  C   -1.49957592944644     -0.75855552281915     -0.06912972559339
  H   -1.27816739714738     -1.14380088057895      0.93031642372281
  H   -2.52863149939866     -0.39416298613177     -0.08826984776479
  H   -1.40682109585927     -1.56328115555295     -0.79832940633467
  N   1.13009263389003     -1.32053605614279     -1.04311862125684
  H   2.09665447454126     -1.42660555392219     -1.32129123542991
  H   0.87222953938704     -2.10950637339187     -0.46151034293151
  N   1.28078752405124     -0.28355569843182      1.11525639797440
  H   1.36756018696339      0.61122660471641      1.58460557099049
  H   2.19033931841152     -0.72975435298560      1.16080339456684
