18
Coordinates from ORCA-job run
  C   -0.57758261518704      0.16944140000866     -0.25698732789659
  C   0.86572332260015     -0.19738486598734      0.12718942652481
  Br  -0.87496062240327     -0.27468220016924     -2.15710260774007
  H   0.98748908870241      0.21862201864120      1.14323887012757
  C   -0.80189976514865      1.66454986750047     -0.09591787150856
  H   -0.07791018887974      2.22574520827126     -0.68369887218776
  H   -0.68024255685890      1.93522345903261      0.95916749509320
  H   -1.81293523490069      1.93560351128879     -0.40535608769268
  C   -1.58495025759554     -0.63165474391304      0.55408184673602
  H   -1.52203636836995     -1.69688898522908      0.33096604290488
  H   -2.60116367922170     -0.30049761771597      0.33286067166653
  H   -1.40003832042581     -0.47354271801316      1.62374062207516
  N   1.81266244493585      0.50006182785679     -0.71187687181360
  H   2.74074190023025      0.45110954886995     -0.30941186385682
  H   1.83196137205859      0.05493327767527     -1.62303556677755
  N   1.06452678071514     -1.64650130566267      0.09402668461730
  H   0.57821626126015     -2.09603331395501      0.86170948156795
  H   2.05239843848876     -1.83810436849947      0.21440592816023
