18
Coordinates from ORCA-job run
  C   -0.61082161382544      0.10556641264203     -0.21001913068100
  C   0.81653146966946     -0.33912030433791      0.15081936663670
  Br  -1.07029740143310     -0.58293096605328     -2.00193632781889
  H   0.92990811381765     -0.04577509706933      1.20975329031982
  C   -0.71744176869467      1.62190943506974     -0.27097943984366
  H   -0.39194658302144      2.04902019906203      0.68557243885166
  H   -0.10828905684633      2.03402821163009     -1.07568728464385
  H   -1.75205224160212      1.92408135700334     -0.44293087708881
  C   -1.60996777947991     -0.47977828416446      0.77521571989292
  H   -1.52615500086166     -1.56448443555607      0.80645821986879
  H   -2.62833387343590     -0.19948829578886      0.49992895137327
  H   -1.40239148889349     -0.08441685661792      1.77615081528240
  N   1.80206093296831      0.31121207795000     -0.71310038760600
  H   2.70798200844211     -0.10879710164230     -0.53991602425043
  H   1.88341870345220      1.29705812880686     -0.49083357227664
  N   0.92934533187331     -1.77897337238288      0.11540445681287
  H   1.77861568855022     -2.07598550008483      0.58040944805324
  H   0.96883455932081     -2.08012560846626     -0.85230966288239
