18
Coordinates from ORCA-job run
  C   -0.65541191068685      0.10786254512189     -0.36845638256257
  C   0.71058756742888     -0.60915076677270     -0.33915642586156
  Br  -1.24013310929386      0.17270983897892     -2.25014984849631
  H   0.57713930659089     -1.55924834383010     -0.86562234545873
  C   -0.56387144632292      1.54270081421680      0.12906062619994
  H   -0.22957174528511      1.55740688006088      1.17276358613805
  H   -1.54530677562993      2.01872748803545      0.09144566998789
  H   0.12005100796340      2.13241003750821     -0.48247911087090
  C   -1.70826088245821     -0.68101715853723      0.39520567053026
  H   -1.74828353487842     -1.71410448987250      0.04300549355478
  H   -2.69313253242425     -0.23065904445299      0.25689386124931
  H   -1.45863944489648     -0.69581237450814      1.45659691351590
  N   1.02692753039884     -0.94581046810606      1.05249623389813
  H   1.32575403848637     -0.11072050539861      1.54584192365119
  H   1.80981933859840     -1.58985122771254      1.06443125857109
  N   1.71024542990985      0.15097621746739     -1.07679471060925
  H   2.07419942422042      0.90179058179829     -0.50139912530588
  H   2.48788773827899     -0.44821002399693     -1.32468328813137
