18
Coordinates from ORCA-job run
  C   -0.54392772636070      0.36265208397938     -0.38674546411391
  C   0.95395263519187      0.00654940723605     -0.28442790092239
  Br  -0.91908406048606      0.76932123506536     -2.27902860857355
  H   1.50439313471442      0.83067195501225     -0.74864543168240
  C   -0.86725363775381      1.61855858344175      0.40835285965573
  H   -0.73033008564206      1.42533117009808      1.47277549340002
  H   -1.89695294787760      1.92997481397434      0.22217693602375
  H   -0.20215398995005      2.43733012607958      0.12520958631419
  C   -1.44106034632162     -0.79840976374668      0.01543544394521
  H   -1.25858655477154     -1.06873458480003      1.06181827963122
  H   -1.27486909690926     -1.66808034426825     -0.62138728709172
  H   -2.49072226461527     -0.51240825290896     -0.07200314976295
  N   1.25441408042135     -1.19377725996262     -1.05264165719313
  H   1.00534902061450     -2.02066977874199     -0.52209850725693
  H   2.24718710439479     -1.24231445771091     -1.24562018536409
  N   1.33238105658810     -0.00042085646771      1.13220425226569
  H   0.98382047359951     -0.84501587525341      1.57404901400072
  H   2.34344320516342     -0.02855820102623      1.20157632672454
