15
Coordinates from ORCA-job run
  C   1.13925006705694      0.14637556243970     -0.16715369584004
  C   -0.34233480746183      0.43265273690543      0.14055721483332
  Br  1.98581448338534     -1.00615374819124      1.11117265920352
  H   -0.68754141674268      1.02431836388045     -0.71671850579426
  H   1.69782905926053      1.07997814693902     -0.18106680926895
  N   1.22951153443985     -0.40710679098705     -1.56694775037252
  O   1.37976565602665     -1.60813169119039     -1.75138891663299
  O   1.09456855183537      0.44944601456777     -2.44058010903602
  N   -0.39022734344633      1.22427573071082      1.36117044171363
  H   -0.73901139891760      2.15499389661617      1.18023847767484
  H   -0.97983009296037      0.79218997257680      2.05873644762880
  C   -1.18082898492474     -0.83382437514391      0.22400625386854
  H   -1.04817836580983     -1.47584115977660     -0.64839140448431
  H   -0.92105764628158     -1.40997871316609      1.11414042708370
  H   -2.23772929545973     -0.56219394618087      0.28222526942272
