15
Coordinates from ORCA-job run
  C   0.73560429756287      0.42446393468823     -0.81611546078949
  C   -0.43538521857219      0.50612625157228      0.16547145005591
  Br  1.88835977016010      1.96905808567500     -0.68237830455515
  H   -0.88053144890815      1.49703970320560     -0.01982380824133
  H   0.38829407482217      0.37292978929485     -1.84625701903429
  N   1.51654255578933     -0.84541985877172     -0.58190687655275
  O   2.49726926830018     -0.83355082358171      0.14306709345811
  O   1.02799049327133     -1.82757468487185     -1.13985051074477
  N   0.06609788572113      0.32496056800205      1.51702217325683
  H   -0.70710002729096      0.32026925098758      2.17036777274308
  H   0.69246604970789      1.07778985683605      1.77690407827360
  C   -1.49289333170932     -0.55213940002372     -0.12419360741731
  H   -1.11005625857295     -1.54933310030466      0.08967750703611
  H   -1.82269697612729     -0.51493916842650     -1.16432605833138
  H   -2.36396113415414     -0.36968040428148      0.51134157084282
