15
Coordinates from ORCA-job run
  C   0.74678438278329      0.43010110590462     -0.84879284410639
  C   -0.39477451167136      0.63489147581518      0.14471817468173
  Br  2.14109805534310      1.74754736482704     -0.72405140916042
  H   -0.88355777428315      1.55813079776303     -0.18861429144677
  H   0.37749274701901      0.44373716191341     -1.87213534769278
  N   1.33613403923940     -0.94403752958467     -0.67650121910047
  O   1.21222698039818     -1.71094179794880     -1.62849680855147
  O   1.83789369337250     -1.21844715344098      0.40946204354059
  N   0.09005098815243      0.87616548889373      1.49044589516285
  H   -0.69011684297017      1.09606932710675      2.09653809886812
  H   0.55843791755166      0.05479829237190      1.85226517949519
  C   -1.39002376214017     -0.52437243389428      0.00316491025535
  H   -1.69784770089215     -0.68733416623277     -1.03394089405997
  H   -0.95960951916167     -1.45338142115913      0.38599271140795
  H   -2.28418869274092     -0.30492651233501      0.59094580070650
