19

C	0.0	0.0	0.0
C	-0.181771	-0.024764	-1.577066
Br	2.004113	0.0	0.0
H	0.414443	0.842953	-1.911367
N	-0.593641	1.127253	0.625781
H	-0.436734	1.945375	0.043911
H	-1.618964	0.860925	0.548388
C	-0.471346	-1.265072	0.680911
H	-0.161519	-1.249544	1.728792
H	-0.081263	-2.146691	0.178496
H	-1.566302	-1.217578	0.608637
C	-1.575757	0.178461	-2.156504
H	-2.235956	-0.657679	-1.939377
H	-2.076066	1.045935	-1.74516
H	-1.439444	0.305578	-3.241499
N	0.325564	-1.283308	-2.142724
H	0.013733	-1.342329	-3.104824
H	1.337795	-1.27526	-2.141895
F	-2.993317	0.0	0.0
