19

C	0.0	0.0	0.0
C	-0.227906	-0.117575	-1.577201
Br	1.97387	0.0	0.0
H	0.40521	-0.96674	-1.874075
N	-0.597591	1.129368	0.639974
H	-1.615633	0.923492	0.564403
H	-0.403918	1.969356	0.104553
C	-0.483061	-1.256305	0.699039
H	-0.152037	-1.250038	1.7401
H	-0.110168	-2.152706	0.199
H	-1.577223	-1.214796	0.660734
C	0.261341	1.11047	-2.349869
H	-0.307783	1.9942	-2.042122
H	1.32427	1.316114	-2.240443
H	0.049198	0.943151	-3.410105
N	-1.597194	-0.386689	-1.998394
H	-1.945908	0.44186	-2.468168
H	-2.244868	-0.45228	-1.183294
F	-3.145472	0.0	0.0
