19

C	0.0	0.0	0.0
C	-0.180914	0.011777	-1.575684
Br	2.006223	0.0	0.0
H	0.470015	0.842724	-1.905062
N	-0.580916	1.121657	0.651493
H	-0.418576	1.954304	0.090993
H	-1.6053	0.881914	0.578882
C	-0.487749	-1.27026	0.657681
H	-0.204822	-1.261216	1.713099
H	-0.088302	-2.15163	0.16071
H	-1.581019	-1.218101	0.560089
C	-1.56028	0.325891	-2.133143
H	-2.320342	-0.368888	-1.788197
H	-1.903957	1.305791	-1.80271
H	-1.470211	0.347604	-3.228899
N	0.252205	-1.269491	-2.153154
H	1.2571	-1.357874	-2.061376
H	0.032543	-1.256537	-3.142497
F	-3.023581	0.0	0.0
