14

C	0.0	0.0	0.0
C	-0.508351	-0.224569	-1.407414
F	1.388513	0.0	0.0
H	-1.605178	-0.163303	-1.378218
H	-0.121972	0.564801	-2.052142
N	-0.251549	1.503673	0.386563
O	-0.264408	2.342156	-0.50747
O	-0.318249	1.737123	1.588814
N	-0.51626	-0.888503	0.925723
H	-0.283415	-0.585425	1.863585
H	-1.53715	-0.889315	0.817022
C	-0.070836	-1.522989	-1.908277
N	0.277175	-2.547652	-2.362849
Cl	-3.525958	0.0	0.0
