14

C	0.0	0.0	0.0
C	-0.511944	-0.207083	-1.414052
F	1.381542	0.0	0.0
H	-0.484094	-1.284574	-1.595978
H	-1.561105	0.106744	-1.450929
N	-0.264812	1.475549	0.440444
O	-0.44689	2.319818	-0.427317
O	-0.19221	1.685858	1.647776
N	-0.520987	-0.9267	0.894108
H	-1.541517	-0.928179	0.762747
H	-0.321404	-0.620278	1.840169
C	0.296956	0.456925	-2.428804
N	0.949201	0.931556	-3.280709
Cl	-3.507249	0.0	0.0
