12

C	-0.468076	0.014035	-1.42482
C	0.0	0.0	0.0
Cl	0.101715	-1.419154	-2.302202
H	1.089773	0.0	0.0
H	-0.381823	0.897506	0.496645
H	-0.3922	-0.899523	0.481272
N	-2.015831	0.010488	-1.457034
O	-2.593259	-1.064838	-1.391585
O	-2.548077	1.116631	-1.426827
C	-0.037434	1.204746	-2.156533
N	0.317346	2.160843	-2.739522
F	2.592245	0.0	0.0
