12

C	-0.326591	-0.013312	-1.448337
C	0.0	0.0	0.0
Cl	-2.107628	0.101533	-1.842156
H	1.091705	0.0	0.0
H	-0.393591	-0.903233	0.470033
H	-0.414014	0.895439	0.4624
N	0.279445	1.224341	-2.128957
O	0.100046	2.288938	-1.558465
O	0.850594	1.058262	-3.199159
C	0.174149	-1.204558	-2.130095
N	0.488354	-2.212401	-2.644608
F	2.577432	0.0	0.0
