15

C	0.0	0.0	0.0
C	-0.496738	-0.043793	-1.424322
F	1.395733	0.0	0.0
H	-1.560008	0.227442	-1.360807
H	0.063646	0.709434	-1.991591
N	-0.237788	1.451109	0.564392
O	-0.314986	1.554386	1.785608
O	-0.244221	2.393882	-0.221292
N	-0.562166	-0.962563	0.811897
H	-0.463235	-0.681185	1.782157
H	-1.581889	-0.941239	0.576012
N	-0.392311	-1.403486	-1.950239
H	-0.852246	-1.433981	-2.850946
H	0.581711	-1.648698	-2.080209
H	-3.114124	0.0	0.0
