15

C	0.0	0.0	0.0
C	-0.514906	-0.10737	-1.418724
F	1.3827	0.0	0.0
H	-1.601058	0.051752	-1.343879
H	-0.344469	-1.154233	-1.685117
N	-0.244684	1.451386	0.560301
O	-0.088294	1.582602	1.773018
O	-0.51893	2.368101	-0.208164
N	-0.5916	-0.949494	0.819671
H	-1.626702	-0.810908	0.662758
H	-0.380841	-0.732884	1.788685
N	0.20624	0.74113	-2.375146
H	0.01927	0.374265	-3.300559
H	-0.202202	1.665921	-2.33192
H	-3.092132	0.0	0.0
