15

C	0.0	0.0	0.0
C	-0.529841	0.286985	-1.38804
F	1.375262	0.0	0.0
H	-0.41499	-0.661608	-1.920785
H	-1.607201	0.464992	-1.249872
N	-0.24394	1.242395	0.945775
O	-0.423644	2.354783	0.457106
O	-0.164288	1.019178	2.151278
N	-0.58635	-1.140857	0.52751
H	-1.620321	-0.974688	0.407752
H	-0.382229	-1.197529	1.520234
N	0.221138	1.318019	-2.116735
H	-0.157178	1.340836	-3.056563
H	-0.001659	2.207197	-1.68955
H	-3.105019	0.0	0.0
