15

C	0.0	0.0	0.0
C	-0.503828	-0.023382	-1.422425
F	1.394579	0.0	0.0
H	-0.137652	0.875068	-1.924764
H	-1.597901	0.033224	-1.32399
N	-0.217979	1.466716	0.579076
O	-0.337403	1.556243	1.798744
O	-0.161458	2.425346	-0.186116
N	-0.572419	-0.948961	0.816252
H	-1.603993	-0.8517	0.646559
H	-0.385617	-0.72028	1.78678
N	-0.102462	-1.269527	-2.074099
H	0.792292	-1.144668	-2.531277
H	-0.787942	-1.498064	-2.781876
H	-3.098634	0.0	0.0
