15

C	0.0	0.0	0.0
C	-0.345944	-0.000212	-1.529274
F	1.355496	0.0	0.0
H	0.215308	-0.813919	-2.026905
H	0.027722	0.951057	-1.917129
N	-0.376945	1.390223	0.714482
O	-1.599615	1.781454	0.578277
O	0.634229	2.224188	0.820689
N	-0.286504	-1.176008	0.771984
H	-1.236268	-1.514344	0.577292
H	0.387246	-1.93026	0.533874
N	-1.776143	-0.259411	-1.777025
H	-1.917985	-0.598639	-2.734219
H	-2.271558	0.618658	-1.625787
H	-2.050928	0.0	0.0
