15

C	0.0	0.0	0.0
C	-0.373038	0.489919	-1.420613
F	1.392096	0.0	0.0
H	0.473588	0.14448	-2.021758
H	-0.327028	1.579301	-1.402408
N	-0.236161	1.101374	1.098864
O	-0.185698	2.283155	0.775703
O	-0.350085	0.693207	2.252088
N	-0.570121	-1.212198	0.353187
H	-0.396106	-1.395279	1.335851
H	-1.591862	-1.0707	0.23542
N	-1.602078	0.051065	-2.036411
H	-2.37866	0.16075	-1.352193
H	-1.537706	-0.948459	-2.197759
H	-3.261503	0.0	0.0
