15

C	0.0	0.0	0.0
C	-0.413905	-0.436049	-1.424435
F	1.370543	0.0	0.0
H	0.443555	-0.179837	-2.051419
H	-0.462357	-1.52896	-1.365039
N	-0.215049	1.554748	0.158483
O	-0.469208	1.976748	1.283703
O	-0.00665	2.260793	-0.825369
N	-0.592107	-0.712834	1.029082
H	-1.612119	-0.688044	0.82854
H	-0.441891	-0.233167	1.910354
N	-1.621168	0.069007	-2.034441
H	-1.499864	1.063689	-2.184265
H	-2.399309	-0.023684	-1.352954
H	-3.299861	0.0	0.0
