15

C	0.0	0.0	0.0
C	-0.527336	0.307761	-1.384232
F	1.360964	0.0	0.0
H	-1.621861	0.375534	-1.243545
H	-0.323516	-0.609047	-1.96949
N	-0.289244	1.196727	0.949506
O	-1.202491	1.09627	1.757286
O	0.458267	2.166128	0.83007
N	-0.578253	-1.137461	0.603588
H	-1.601924	-0.904243	0.632891
H	-0.491971	-1.903758	-0.058206
N	0.013699	1.525371	-1.971366
H	1.016692	1.439576	-2.079811
H	-0.396116	1.651623	-2.887838
H	-3.198281	0.0	0.0
