15

C	0.0	0.0	0.0
C	-0.51781	0.145653	-1.416502
F	1.360914	0.0	0.0
H	-0.304985	-0.837106	-1.877781
H	-1.611886	0.225821	-1.291822
N	-0.292054	1.280156	0.823086
O	-1.06453	1.215922	1.768189
O	0.335094	2.280232	0.478524
N	-0.567188	-1.078086	0.710695
H	-0.473288	-1.902448	0.124735
H	-1.593276	-0.849148	0.716443
N	0.024862	1.275238	-2.161849
H	1.036309	1.226773	-2.163533
H	-0.295662	1.206004	-3.119797
H	-3.140614	0.0	0.0
