15

C	0.0	0.0	0.0
C	-0.485472	0.525066	-1.368659
F	1.400239	0.0	0.0
H	-1.017837	1.458202	-1.199793
H	0.430082	0.756033	-1.925625
N	-0.186741	1.121995	1.097316
O	-0.402886	0.751218	2.247695
O	0.015178	2.284045	0.761027
N	-0.565588	-1.200418	0.38339
H	-1.597092	-1.010038	0.31116
H	-0.346824	-1.375318	1.359857
N	-1.353487	-0.340802	-2.139647
H	-2.226446	-0.372288	-1.594668
H	-0.966816	-1.277812	-2.144028
H	-3.029353	0.0	0.0
