17

C	-0.303287	-0.026032	-1.496437
C	0.0	0.0	0.0
F	-0.086389	-1.354733	-1.953892
H	1.097463	0.0	0.0
C	-1.725525	0.241821	-1.813503
N	-2.856391	0.439082	-2.058428
N	0.538499	0.897412	-2.15296
H	1.497704	0.768285	-1.829621
H	0.487472	0.792351	-3.15793
N	-0.611236	-1.164559	0.637408
H	-0.148795	-1.990134	0.273864
H	-0.378332	-1.1202	1.623229
C	-0.504403	1.275152	0.649884
H	-0.131699	2.151461	0.119154
H	-0.137758	1.324964	1.67926
H	-1.598175	1.291246	0.666956
Cl	3.467183	0.0	0.0
