17

C	-0.305108	-0.105228	-1.491976
C	0.0	0.0	0.0
F	-1.63401	-0.482348	-1.717126
H	1.106275	0.0	0.0
C	-0.180361	1.210619	-2.17408
N	-0.074679	2.239422	-2.730715
N	0.537883	-1.118569	-2.051179
H	0.541389	-1.076712	-3.062383
H	1.490025	-0.994864	-1.703899
N	-0.519358	-1.216526	0.653962
H	0.107601	-1.39924	1.432071
H	-0.382666	-1.990958	0.011161
C	-0.58444	1.22958	0.662392
H	-1.668233	1.253763	0.518227
H	-0.136424	2.148029	0.277383
H	-0.38487	1.183494	1.735729
Cl	3.430821	0.0	0.0
