17

C	-0.524371	-0.02468	-1.436285
C	0.0	0.0	0.0
F	-0.111045	1.114243	-2.108939
H	1.099679	0.0	0.0
C	0.040967	-1.180526	-2.185646
N	0.360374	-2.147638	-2.771271
N	-1.957982	-0.057992	-1.429687
H	-2.317562	-0.387162	-2.316975
H	-2.220224	-0.708411	-0.693982
N	-0.524889	-1.216051	0.657673
H	0.119613	-1.976306	0.45327
H	-0.460802	-1.071875	1.65968
C	-0.48953	1.242408	0.724329
H	0.00721	1.300063	1.697177
H	-0.218213	2.134823	0.160252
H	-1.573107	1.226944	0.866598
Cl	3.464765	0.0	0.0
