17

C	-0.534126	0.000281	-1.431426
C	0.0	0.0	0.0
F	-1.975596	0.023917	-1.322356
H	1.094431	0.0	0.0
C	-0.230387	1.23822	-2.177057
N	-0.046365	2.224327	-2.785775
N	-0.095148	-1.125158	-2.138335
H	-0.153758	-1.924941	-1.517603
H	-0.607141	-1.260389	-3.000246
N	-0.402814	-1.285753	0.582913
H	0.29553	-1.555006	1.266649
H	-1.30124	-1.196721	1.046276
C	-0.486588	1.211527	0.783893
H	-1.578553	1.230561	0.847386
H	-0.144697	2.142389	0.325011
H	-0.068773	1.169309	1.792037
Cl	3.452391	0.0	0.0
