17

C	-0.516748	0.018531	-1.437666
C	0.0	0.0	0.0
F	-1.959416	0.073813	-1.354031
H	1.094428	0.0	0.0
C	-0.171915	1.251123	-2.173154
N	0.043049	2.233909	-2.778235
N	-0.093659	-1.113375	-2.139448
H	-0.587775	-1.231934	-3.012172
H	-0.177653	-1.915345	-1.525
N	-0.415137	-1.287899	0.566578
H	0.268319	-1.563603	1.260751
H	-1.320181	-1.197812	1.014037
C	-0.48658	1.210285	0.78619
H	-0.132209	2.142191	0.338475
H	-0.082418	1.157643	1.799629
H	-1.579105	1.236353	0.835453
Cl	3.457104	0.0	0.0
