17

C	-0.524136	-0.033753	-1.436695
C	0.0	0.0	0.0
F	-0.11669	1.103655	-2.114202
H	1.096131	0.0	0.0
C	0.046674	-1.189499	-2.17992
N	0.389722	-2.151897	-2.759132
N	-1.957807	-0.073452	-1.429147
H	-2.31644	-0.404866	-2.315353
H	-2.217582	-0.722265	-0.693127
N	-0.521539	-1.213337	0.664819
H	-0.455941	-1.061304	1.664026
H	0.125106	-1.970073	0.466889
C	-0.492033	1.245632	0.71604
H	0.008949	1.313397	1.684555
H	-1.573819	1.226185	0.864596
H	-0.228797	2.135201	0.145019
Cl	3.459831	0.0	0.0
