17

C	-0.517223	-0.05815	-1.432462
C	0.0	0.0	0.0
F	0.090777	0.968637	-2.177266
H	1.094998	0.0	0.0
C	-0.160525	-1.329167	-2.096927
N	0.084297	-2.291053	-2.722694
N	-1.94289	0.074535	-1.480787
H	-2.26381	-0.027434	-2.436588
H	-2.188712	1.003225	-1.159318
N	-0.431095	-1.223285	0.664816
H	-1.332331	-1.101504	1.10862
H	0.257502	-1.48378	1.357605
C	-0.438834	1.290713	0.690825
H	-1.511869	1.290448	0.918346
H	-0.194277	2.166613	0.084552
H	0.105948	1.379612	1.632657
Cl	3.449841	0.0	0.0
