16

C	-0.586709	-0.012033	-1.424352
C	0.0	0.0	0.0
Cl	-0.152249	-1.550967	-2.186169
H	1.096061	0.0	0.0
C	-2.038401	0.127012	-1.396697
N	-3.208824	0.216951	-1.338216
N	-0.002344	1.075464	-2.34122
O	1.206992	1.196228	-2.314298
O	-0.802574	1.671914	-3.051306
N	-0.50911	-1.122629	0.739756
H	0.274851	-1.719476	0.969904
H	-0.904413	-0.788128	1.609432
N	-0.419606	1.292878	0.646774
O	-0.62559	1.293884	1.856965
O	-0.487993	2.278611	-0.083945
Br	3.386044	0.0	0.0
