16

C	-0.589542	0.055111	-1.415414
C	0.0	0.0	0.0
Cl	-2.338382	0.346675	-1.341108
H	1.090768	0.0	0.0
C	0.016387	1.016798	-2.324163
N	0.433977	1.749538	-3.14304
N	-0.329721	-1.351917	-2.022017
O	0.836838	-1.53708	-2.328121
O	-1.263158	-2.127298	-2.113649
N	-0.444386	-1.153721	0.682432
H	-1.334901	-1.013209	1.140716
H	0.258346	-1.433293	1.353971
N	-0.394156	1.309895	0.673984
O	-1.027776	1.24489	1.725789
O	-0.045742	2.34138	0.110175
Br	3.33375	0.0	0.0
