16

C	-0.503476	-0.006769	-1.449291
C	0.0	0.0	0.0
Cl	0.476575	0.963507	-2.528741
H	1.092145	0.0	0.0
C	-0.547995	-1.377794	-1.957116
N	-0.594968	-2.444033	-2.448921
N	-1.989724	0.462397	-1.499874
O	-2.383659	1.070581	-2.476845
O	-2.660161	0.103238	-0.538287
N	-0.408788	-1.139739	0.732855
H	-1.329146	-1.037972	1.13452
H	0.277516	-1.346934	1.445245
N	-0.393854	1.315071	0.658641
O	-0.371979	1.326637	1.884865
O	-0.665183	2.274728	-0.059589
Br	3.338079	0.0	0.0
