16

C	-0.504867	-0.022696	-1.44735
C	0.0	0.0	0.0
Cl	-0.127579	1.369757	-2.467125
H	1.100797	0.0	0.0
C	0.017803	-1.223548	-2.094152
N	0.409558	-2.172453	-2.664976
N	-2.044662	-0.150309	-1.447232
O	-2.625504	0.408988	-0.52531
O	-2.562026	-0.7516	-2.376972
N	-0.464137	-1.19836	0.617268
H	-1.278684	-1.014814	1.189516
H	0.274414	-1.577336	1.19714
N	-0.392227	1.250132	0.766635
O	-0.089352	2.32986	0.277282
O	-0.927553	1.090494	1.861145
Br	3.322606	0.0	0.0
