16

C	-0.566781	0.053117	-1.431847
C	0.0	0.0	0.0
Cl	-2.332002	0.280226	-1.368069
H	1.102295	0.0	0.0
C	0.012141	1.025049	-2.34881
N	0.421191	1.733956	-3.193555
N	-0.281773	-1.324604	-2.100028
O	-1.123275	-1.770413	-2.865997
O	0.8073	-1.805331	-1.832995
N	-0.434528	-1.095896	0.761638
H	-1.369644	-1.429052	0.587836
H	0.260587	-1.824696	0.795623
N	-0.390905	1.321134	0.656777
O	-0.823247	1.305868	1.800109
O	-0.203709	2.325827	-0.02642
Br	3.35188	0.0	0.0
