17

C	-0.263577	0.038593	-1.515695
C	0.0	0.0	0.0
F	-0.368677	1.377163	-1.855463
H	1.091074	0.0	0.0
N	0.713673	-0.5642	-2.32336
H	0.497196	-1.546054	-2.428508
H	1.606836	-0.47456	-1.820659
N	-1.657917	-0.503829	-1.862493
O	-1.791502	-1.294627	-2.787069
O	-2.569212	-0.04077	-1.178658
N	-0.392761	-1.328822	0.539009
O	-0.548885	-1.454678	1.748839
O	-0.437022	-2.269778	-0.269018
N	-0.471027	1.062786	0.803295
H	-1.275628	1.518069	0.401199
H	0.281747	1.72168	0.951061
H	2.620632	0.0	0.0
