17

C	-0.39872	-0.00759	-1.457775
C	0.0	0.0	0.0
F	0.11356	1.138991	-2.023292
H	1.091756	0.0	0.0
N	-0.060576	-1.152033	-2.195989
H	0.78054	-1.572525	-1.816376
H	0.070288	-0.889701	-3.163422
N	-1.921795	0.187635	-1.616508
O	-2.631655	-0.206429	-0.696847
O	-2.319126	0.655793	-2.678288
N	-0.338674	-1.254709	0.71831
O	0.091875	-2.308733	0.242532
O	-0.900836	-1.171761	1.817115
N	-0.470092	1.17704	0.645475
H	0.266188	1.493761	1.265913
H	-1.292855	0.964852	1.192128
H	2.582332	0.0	0.0
