17

C	-0.478709	0.135368	-1.437787
C	0.0	0.0	0.0
F	-1.81956	0.41843	-1.446493
H	1.090316	0.0	0.0
N	0.218815	1.162719	-2.133246
H	1.203686	0.893331	-2.117536
H	0.141995	1.976286	-1.528435
N	-0.307441	-1.135414	-2.26376
O	0.833478	-1.378444	-2.63257
O	-1.310105	-1.789857	-2.514867
N	-0.455477	-1.230721	0.674318
O	-0.235679	-2.297934	0.094116
O	-0.934506	-1.140842	1.81284
N	-0.350439	1.203796	0.690737
H	-1.239151	1.10222	1.162736
H	0.372588	1.375061	1.382287
H	2.569651	0.0	0.0
