17

C	-0.375413	0.016144	-1.470047
C	0.0	0.0	0.0
F	-0.094277	1.2961	-1.958386
H	1.09207	0.0	0.0
N	0.286943	-1.018436	-2.107085
H	1.277443	-0.986964	-1.856291
H	0.121173	-1.057801	-3.102434
N	-1.887247	-0.070165	-1.745358
O	-2.580241	0.795249	-1.217636
O	-2.299783	-0.951972	-2.491677
N	-0.501167	-1.305377	0.558695
O	0.306571	-2.165393	0.88664
O	-1.726505	-1.40681	0.672248
N	-0.458439	1.056866	0.835834
H	-1.351108	1.422967	0.537653
H	0.24951	1.780407	0.845272
H	2.752157	0.0	0.0
