17

C	-0.599261	-0.043216	-1.398694
C	0.0	0.0	0.0
F	0.192727	-0.773163	-2.273574
H	1.087478	0.0	0.0
N	-1.947806	-0.447333	-1.418556
H	-1.971008	-1.427175	-1.163006
H	-2.338166	-0.30647	-2.340616
N	-0.515852	1.362214	-2.000277
O	-1.505343	1.788184	-2.594024
O	0.567407	1.919664	-1.927311
N	-0.347014	-1.209612	0.720481
O	-0.427786	-2.276349	0.074682
O	-0.394127	-1.155687	1.960858
N	-0.385019	1.197112	0.683812
H	-1.122325	0.998489	1.345784
H	0.432243	1.519549	1.195396
H	2.458746	0.0	0.0
