17

C	-0.481756	0.119497	-1.437617
C	0.0	0.0	0.0
F	-1.828538	0.37442	-1.449624
H	1.090303	0.0	0.0
N	0.195527	1.157703	-2.137355
H	0.100198	1.973645	-1.53818
H	1.186193	0.908388	-2.118097
N	-0.281686	-1.152337	-2.257361
O	0.864658	-1.372005	-2.625239
O	-1.270121	-1.830876	-2.50476
N	-0.451256	-1.229055	0.681787
O	-0.953706	-1.133362	1.809996
O	-0.206484	-2.299333	0.11682
N	-0.356847	1.205576	0.683993
H	0.375168	1.392346	1.361466
H	-1.234683	1.093807	1.17262
H	2.570797	0.0	0.0
