17

C	-0.285524	0.129537	-1.514148
C	0.0	0.0	0.0
F	-1.254315	1.138224	-1.730247
H	1.090794	0.0	0.0
N	0.876772	0.393366	-2.18935
H	0.905787	0.017475	-3.123156
H	1.724592	0.21167	-1.624541
N	-1.079253	-1.065224	-2.124019
O	-0.626751	-1.598705	-3.131778
O	-2.150663	-1.329842	-1.59526
N	-0.375676	-1.354207	0.497128
O	0.103622	-2.286099	-0.155857
O	-1.039991	-1.478418	1.522291
N	-0.472027	1.04878	0.818429
H	0.282281	1.706141	0.967782
H	-1.278593	1.51136	0.429141
H	2.656786	0.0	0.0
