17

C	-0.485165	0.105663	-1.434189
C	0.0	0.0	0.0
F	-0.03817	-0.990559	-2.131781
H	1.086881	0.0	0.0
N	-1.872998	0.33678	-1.590605
H	-2.097601	0.353924	-2.579778
H	-2.350889	-0.437983	-1.144299
N	0.180417	1.294023	-2.150329
O	0.187666	1.212473	-3.376366
O	0.57719	2.245789	-1.495742
N	-0.456173	-1.30807	0.573765
O	-1.401094	-1.925426	0.052042
O	0.136562	-1.685841	1.576971
N	-0.436396	1.036305	0.886654
H	0.363978	1.633373	1.063539
H	-1.18041	1.579831	0.471721
H	2.655265	0.0	0.0
