15

C	0.0	0.0	0.0
C	-0.300299	0.109081	-1.501628
F	1.400615	0.0	0.0
H	0.281739	-0.681966	-1.974258
H	-0.299082	0.899849	0.545216
N	-0.520714	-1.231146	0.498811
H	-0.378827	-1.269742	1.502232
H	-1.530265	-1.208743	0.347844
N	0.364145	1.38685	-1.979319
O	1.117839	1.314634	-2.947676
O	0.06139	2.425086	-1.395222
N	-1.631687	0.119283	-1.991564
H	-2.309177	0.499945	-1.332717
H	-1.940432	-0.819972	-2.192448
Cl	-4.014426	0.0	0.0
