15

C	0.0	0.0	0.0
C	-0.447634	-0.228409	-1.44644
F	1.404675	0.0	0.0
H	-0.222497	-1.258083	-1.732291
H	-0.320969	0.987353	0.334926
N	-0.550618	-1.001647	0.816351
H	-0.110655	-1.899639	0.669128
H	-0.586734	-0.764134	1.794771
N	0.439234	0.618248	-2.320018
O	0.345892	1.834011	-2.163353
O	1.182214	0.060504	-3.123269
N	-1.796979	0.097332	-1.773757
H	-2.025746	1.030092	-1.448214
H	-2.464991	-0.498324	-1.283768
Cl	-4.539291	0.0	0.0
