15

C	0.0	0.0	0.0
C	-0.31578	0.282741	-1.473483
F	1.401018	0.0	0.0
H	0.186668	-0.494893	-2.050528
H	-0.291228	0.840311	0.63652
N	-0.529408	-1.268079	0.372048
H	-1.495131	-1.305211	0.052505
H	-0.568663	-1.337649	1.380803
N	0.470472	1.542746	-1.83287
O	1.196528	1.495352	-2.824632
O	0.283811	2.538413	-1.140588
N	-1.654356	0.469664	-1.878813
H	-1.98765	-0.282974	-2.457511
H	-2.33948	0.618476	-1.136239
Cl	-4.108795	0.0	0.0
