15

C	0.0	0.0	0.0
C	-0.361343	-0.12745	-1.511045
F	1.416984	0.0	0.0
H	0.612768	-0.238813	-1.997246
H	-0.302219	0.960692	0.417038
N	-0.455736	-1.157413	0.705562
H	-1.476068	-1.132616	0.624714
H	-0.250474	-1.023242	1.689831
N	-0.85395	1.205349	-2.032058
O	-0.256402	2.197104	-1.608444
O	-1.734085	1.221082	-2.880503
N	-1.222619	-1.175718	-1.962066
H	-2.153717	-1.013096	-1.572159
H	-0.867419	-2.035585	-1.558448
Cl	-3.50831	0.0	0.0
