15

C	0.0	0.0	0.0
C	-0.340848	-0.320625	-1.481811
F	1.419956	0.0	0.0
H	0.592521	-0.591144	-1.982131
H	-0.321282	1.004425	0.261957
N	-0.4801	-0.925223	0.957321
H	-1.437185	-0.663955	1.183678
H	-0.524735	-1.846755	0.538285
N	-0.697911	0.989991	-2.230801
O	-1.37737	0.873112	-3.246348
O	-0.194386	2.039937	-1.838605
N	-1.298857	-1.343832	-1.638436
H	-2.173306	-1.058692	-1.182343
H	-1.482999	-1.500821	-2.620106
Cl	-3.671032	0.0	0.0
