15

C	0.0	0.0	0.0
C	-0.365925	-0.222378	-1.480109
F	1.410135	0.0	0.0
H	-1.449407	-0.343144	-1.539052
H	-0.3123	1.012191	0.264878
N	-0.501377	-0.93314	0.928039
H	-0.818464	-1.774182	0.455673
H	-1.323437	-0.539975	1.375346
N	0.249964	-1.534125	-1.894063
O	1.338871	-1.511671	-2.459104
O	-0.366051	-2.558258	-1.585938
N	0.11124	0.793051	-2.379459
H	-0.519881	1.582449	-2.325512
H	1.039215	1.078891	-2.090822
Cl	-3.476875	0.0	0.0
