16
Coordinates from ORCA-job run
  C   -0.75566802881142      0.07615900893753     -0.22981532112986
  C   0.49144658400137     -0.50580989132347      0.45460437619633
  H   -1.11374876019673     -0.67516844973866     -0.94298863656308
  H   0.21114055862746     -1.24449381192710      1.21016943543433
  N   -0.35493021386506      1.24946949872131     -0.97986756852292
  H   -0.45126237509032      2.05798537565823     -0.37545402365038
  H   -0.93646476089806      1.38123382424259     -1.79554600006973
  N   -1.73691132989789      0.41426499823989      0.79615997422126
  H   -1.91670057243940     -0.37938037321076      1.40087704295882
  H   -2.61227944186982      0.65797703145933      0.34624587153241
  N   1.31462760503904      0.50033935829405      0.99655399602788
  H   2.11425768984246      0.11109663240734      1.47652342510413
  H   1.63893679971040      1.10077569049722      0.24858940182822
  N   1.20176084878161     -1.36853220536421     -0.61235561304857
  O   2.32148358873157     -1.02775751185725     -0.97880395881686
  O   0.58331180833479     -2.35115917503603     -1.01489240150199
