16
Coordinates from ORCA-job run
  C   -0.83357839005910     -0.03498876067777     -0.15367959891010
  C   0.44845741064093     -0.67079374998971      0.38756706162070
  H   -1.33343620409745     -0.77077390898596     -0.79343484491659
  H   0.20634232625123     -1.60158761051120      0.90229961640813
  N   -0.43589000598910      1.17978840019923     -0.88395339252813
  H   -1.23787773431390      1.79101709432235     -0.97432170197102
  H   -0.12389266162720      0.95054328706257     -1.82236001096007
  N   -1.68209497464118      0.22353064971027      0.97949515512610
  H   -1.21920124201155      0.87104801656127      1.60556134378810
  H   -2.57512225656628      0.60160171384680      0.69019979978742
  N   1.13597469348996      0.23837859724023      1.21881832023222
  H   1.34731179670858      1.07782800742528      0.69411506224310
  H   1.98321809505361     -0.15516601322215      1.60271165260125
  N   1.25346818848096     -1.12366711393833     -0.84544852955943
  O   2.33243105407379     -0.58113751135006     -1.06798616510558
  O   0.73288990460669     -1.99462109769283     -1.53958376785610
