16
Coordinates from ORCA-job run
  C   -0.73338851705484      0.01949871890280     -0.18733256046201
  C   0.53880515131281     -0.67182317133633      0.33511790367309
  H   -1.27445173745300     -0.70063627436595     -0.81403611564337
  H   0.25865800763116     -1.52255024979782      0.96338182868231
  N   -0.35111717623598      1.13441247428231     -1.01950021380734
  H   -1.07266583578154      1.36215519898861     -1.68914254267857
  H   -0.17176124491838      1.94751734271404     -0.44326349590055
  N   -1.48014795073677      0.45135427520022      0.99711335163075
  H   -1.81230745730602     -0.35383523780300      1.51908226932272
  H   -2.29603195354060      0.97588645298288      0.70210313270685
  N   1.47275634475348      0.16739048771154      1.02693566816772
  H   0.96199536994406      0.68081576677282      1.73610046376751
  H   1.88416074456847      0.81942819079698      0.36971702142488
  N   1.20885984816650     -1.28582890255374     -0.85923914428888
  O   2.24370713645134     -0.78059752441966     -1.27511875072290
  O   0.62192927019932     -2.24318754807569     -1.36091881587221
