16
Coordinates from ORCA-job run
  C   -0.78380645353457     -0.09576649064701     -0.08812608875881
  C   0.62911594469665     -0.55673268375286      0.28988768719950
  H   -1.27108957947196     -0.91176202807984     -0.64030328641197
  H   0.54902286265740     -1.34959879815643      1.03185936217324
  N   -0.70165571561766      1.15314875808675     -0.84190819740794
  H   -1.63680970564763      1.50035060901389     -1.01737748182845
  H   -0.24925754599606      0.98102197474644     -1.73305923144538
  N   -1.50970709495775      0.07439997369463      1.15650999777950
  H   -1.22030258463221      0.94921222784854      1.57984970588200
  H   -2.50453620828420      0.13172826722213      0.97741992003904
  N   1.48543101028707      0.49861676762364      0.71500229107253
  H   1.73344281543914      0.44204468732033      1.68856158478395
  H   1.10213122048946      1.39884426801652      0.45886743115459
  N   1.28488142011789     -1.24204380529384     -0.90077045914861
  O   1.12750459963183     -0.73977759819571     -2.01443109191982
  O   1.96663501482260     -2.23368612944720     -0.66298214316336
