16
Coordinates from ORCA-job run
  C   -0.78373414964176     -0.03020050989434     -0.22520646374293
  C   0.53113500068453     -0.57244534566499      0.34236854751337
  H   -1.33223769224669     -0.86596139870977     -0.67219455218360
  H   0.32652010442150     -1.40637074948687      1.03055206446605
  N   -0.45353461753547      0.89380980123382     -1.27252076870178
  H   -1.27579142826569      1.24555787024371     -1.74350039357356
  H   0.10402635637238      1.65474788880543     -0.90666655461321
  N   -1.49810495214539      0.57918215266424      0.91256622240633
  H   -1.97116530514030     -0.14089670458479      1.45042445327594
  H   -2.21137024187760      1.20290225342868      0.55430986511921
  N   1.29246762085467      0.51716519670389      0.87249550164898
  H   2.17936101919587      0.20980875299605      1.24648503645933
  H   0.73159152342222      0.95505606822463      1.59320686319909
  N   1.27666953623049     -1.23593827183430     -0.78803479574357
  O   2.40057318184662     -0.83957233192998     -1.06738689493253
  O   0.68459404382461     -2.16684467219541     -1.32689813059710
