17

C	-0.430994	-0.025401	-1.468737
C	0.0	0.0	0.0
F	-0.088639	1.287377	-1.932934
H	1.086438	0.0	0.0
N	0.351349	-0.996885	-2.129211
H	0.254519	-0.890094	-3.131548
H	1.332045	-0.887119	-1.874393
N	-1.818604	-0.257672	-1.642135
H	-2.031157	-0.386405	-2.623255
H	-2.329322	0.535642	-1.278382
N	-0.503018	-1.211812	0.717205
O	-1.505778	-1.079917	1.417063
O	0.121504	-2.246465	0.533825
N	-0.504562	1.176631	0.760594
O	-1.506364	1.767669	0.35895
O	0.114063	1.442338	1.785414
Br	3.391063	0.0	0.0
