16

C	-0.420135	0.02483	-1.452427
C	0.0	0.0	0.0
F	-1.801838	-0.101876	-1.584837
H	1.09016	0.0	0.0
H	0.032974	-0.855395	-1.912354
C	0.045985	1.296246	-2.123975
H	1.116495	1.429959	-1.948425
H	-0.494082	2.158626	-1.726455
H	-0.144469	1.234358	-3.19706
N	-0.442745	-1.233186	0.714219
O	-0.59184	-1.155324	1.929507
O	-0.540974	-2.255647	0.039654
N	-0.545651	1.181476	0.719117
O	0.229013	2.106128	0.944262
O	-1.751037	1.176066	0.964806
Br	3.372532	0.0	0.0
