16

C	-0.418359	-0.046579	-1.452218
C	0.0	0.0	0.0
F	-1.803525	-0.140072	-1.573317
H	1.09639	0.0	0.0
H	0.005296	-0.964177	-1.862795
C	0.083016	1.168538	-2.19607
H	-0.419261	2.070002	-1.840984
H	-0.122136	1.052032	-3.261664
H	1.158496	1.273532	-2.038019
N	-0.432698	-1.203419	0.770672
O	-0.519405	-2.254921	0.14095
O	-0.576059	-1.077459	1.981019
N	-0.548508	1.215325	0.657579
O	-1.742859	1.20207	0.951358
O	0.213794	2.170479	0.782522
Br	3.380912	0.0	0.0
