16

C	-0.418812	-0.001847	-1.442432
C	0.0	0.0	0.0
F	0.062368	-1.099239	-2.038418
H	1.095835	0.0	0.0
N	-1.942501	-0.01369	-1.647901
O	-2.34349	-0.566536	-2.664573
O	-2.613296	0.54396	-0.791401
N	0.0729	1.189556	-2.271005
O	1.264587	1.164173	-2.530741
O	-0.760607	2.009485	-2.630541
C	-0.486123	-1.195345	0.641147
N	-0.861257	-2.211243	1.101352
N	-0.324937	1.196881	0.730524
O	-0.122296	2.262389	0.128804
O	-0.588832	1.094071	1.935246
H	2.317389	0.0	0.0
