16

C	-0.446316	0.029258	-1.427908
C	0.0	0.0	0.0
F	-0.612701	-1.216775	-1.898988
H	1.11519	0.0	0.0
N	-1.7914	0.725967	-1.691855
O	-2.703834	0.339674	-0.977549
O	-1.860035	1.506075	-2.632158
N	0.57411	0.722286	-2.333867
O	1.047265	1.762573	-1.907802
O	0.833145	0.156942	-3.387835
C	-0.390307	-1.206204	0.68073
N	-0.639622	-2.2234	1.216135
N	-0.353699	1.171361	0.771793
O	-0.753418	2.181815	0.17531
O	-0.108756	1.108295	1.982461
H	2.292966	0.0	0.0
