16

C	-0.20739	-0.106286	-1.485362
C	0.0	0.0	0.0
F	-0.531255	-1.373035	-1.839297
H	1.11329	0.0	0.0
N	-1.317507	0.737879	-2.085181
O	-2.312443	0.882779	-1.383964
O	-1.193008	1.070787	-3.257335
N	1.127071	0.229692	-2.109787
O	1.400275	1.450166	-2.136394
O	1.994059	-0.659742	-1.778752
C	-0.467664	-1.126291	0.761749
N	-0.809244	-2.067436	1.378501
N	-0.346933	1.281278	0.625356
O	-0.534384	1.272628	1.843304
O	-0.297378	2.281715	-0.087794
H	2.315325	0.0	0.0
