16

C	-0.571666	-0.117477	-1.376253
C	0.0	0.0	0.0
F	-1.909022	-0.176054	-1.435417
H	1.11271	0.0	0.0
N	-0.106591	0.970718	-2.335583
O	-0.809955	1.104661	-3.331169
O	0.93508	1.547265	-2.07368
N	-0.040617	-1.412028	-2.007073
O	1.065304	-1.347434	-2.528376
O	-0.761459	-2.394822	-1.895136
C	-0.352728	-1.134216	0.818076
N	-0.562265	-2.084182	1.480718
N	-0.392815	1.231647	0.645074
O	-0.880062	2.140746	-0.050205
O	-0.099074	1.330003	1.844707
H	2.288989	0.0	0.0
