17

C	0.0	0.0	0.0
C	-0.218782	-0.074953	-1.566155
Br	1.973184	0.0	0.0
H	0.311845	-0.961222	-1.918793
N	-0.538708	1.099205	0.70518
H	-1.551947	0.93592	0.766672
H	-0.385461	1.960051	0.194109
C	-0.471469	-1.307493	0.60847
H	-0.200622	-1.31188	1.665664
H	-0.01179	-2.16635	0.11578
H	-1.560913	-1.346988	0.516942
N	0.47881	1.06491	-2.285907
O	1.216997	0.762172	-3.216784
O	0.232409	2.20677	-1.90926
C	-1.54697	-0.101126	-2.190324
N	-2.361589	-0.11281	-3.039952
Cl	-3.609078	0.0	0.0
