17

C	0.0	0.0	0.0
C	-0.530333	0.028781	-1.449777
Br	2.013569	0.0	0.0
H	-1.624701	-0.108775	-1.32462
N	-0.491508	1.170048	0.600359
H	-0.039689	2.028154	0.32403
H	-0.643078	1.099792	1.593155
C	-0.464346	-1.224899	0.760766
H	-1.558899	-1.224456	0.731976
H	-0.071562	-2.140414	0.325767
H	-0.113639	-1.147987	1.793169
N	0.003267	-1.089567	-2.298224
O	-0.426292	-2.211176	-2.041663
O	0.823893	-0.821711	-3.172923
C	-0.248344	1.302201	-2.098845
N	-0.061288	2.35052	-2.594095
Cl	-3.676399	0.0	0.0
