17

C	0.0	0.0	0.0
C	-0.180234	-0.04014	-1.564471
Br	2.045367	0.0	0.0
H	0.406049	-0.884868	-1.92979
N	-0.525639	1.0764	0.729142
H	-0.411974	1.948159	0.228724
H	-1.530929	0.893099	0.843547
C	-0.451301	-1.324056	0.572958
H	-1.543342	-1.3555	0.492202
H	-0.001806	-2.165945	0.042618
H	-0.164451	-1.366642	1.625337
N	0.460263	1.152948	-2.247898
O	0.173608	2.27085	-1.829504
O	1.196433	0.912494	-3.198422
C	-1.497538	-0.149907	-2.203525
N	-2.300315	-0.284348	-3.053276
Cl	-3.574152	0.0	0.0
