16

C	-0.575298	-0.033801	-1.507587
C	0.18491	0.061828	-0.196129
F	-1.948311	-0.283714	-1.167313
H	1.223517	0.29583	-0.415473
H	-0.225053	0.93556	0.344658
N	-0.494087	1.200877	-2.225749
H	-0.782863	1.956194	-1.614127
H	-1.131579	1.173038	-3.013409
C	-0.146917	-1.196172	-2.368947
H	-0.808401	-1.289054	-3.236533
H	0.877367	-1.039016	-2.710654
H	-0.187307	-2.099712	-1.763847
N	0.14994	-1.176013	0.552629
H	-0.703872	-1.199816	1.098988
H	0.945804	-1.123886	1.235394
H	2.245386	-0.712809	2.254337
