16

C	-0.23076	0.001422	-1.351949
C	0.031323	-0.089507	0.143681
F	-1.652149	0.168681	-1.466438
H	1.110014	-0.235628	0.253656
H	-0.219494	0.897862	0.568146
N	0.401103	1.12216	-1.966974
H	1.435729	0.93898	-1.90495
H	0.237229	1.939643	-1.38347
C	0.145952	-1.260721	-2.0875
H	-0.170724	-1.16258	-3.127537
H	-0.325667	-2.127687	-1.623915
H	1.235322	-1.352437	-2.049142
N	-0.712167	-1.189858	0.768333
H	-1.698704	-0.995088	0.644781
H	-0.524299	-1.19368	1.764037
H	3.014235	0.408784	-1.451893
