14

C	0.0	0.0	0.0
C	-0.380628	0.069766	-1.52588
Br	1.946988	0.0	0.0
H	-1.457318	0.212332	-1.654648
H	-0.380051	0.854856	0.558367
C	-0.401888	-1.280928	0.573105
N	-0.589461	-2.282658	1.154634
N	0.023969	-1.027727	-2.336074
H	-0.619016	-1.795232	-2.182447
H	0.974066	-1.323771	-2.150846
N	0.209768	1.369736	-2.06904
O	-0.116764	2.385771	-1.455445
O	0.940694	1.33534	-3.04823
Br	-3.286497	0.0	0.0
