15

C	-0.497472	-0.03941	-1.457998
C	0.0	0.0	0.0
Cl	0.084816	-1.644901	-2.144719
H	1.109845	0.0	0.0
N	-1.893407	0.165301	-1.583792
H	-2.402325	-0.499704	-1.015757
H	-2.182432	0.118434	-2.552434
C	0.192216	1.000452	-2.230664
N	0.639803	1.850859	-2.906244
N	-0.481277	-1.217952	0.753215
O	0.343572	-1.843797	1.399747
O	-1.684947	-1.482877	0.680819
C	-0.514874	1.174032	0.69013
N	-0.90727	2.117992	1.26958
Cl	3.158931	0.0	0.0
