11

C	-0.462348	-0.041946	-1.442543
C	0.0	0.0	0.0
Cl	-0.584597	1.62598	-2.098095
H	1.088064	0.0	0.0
H	-1.440678	-0.503976	-1.561853
H	0.274782	-0.56708	-2.049157
H	-0.376144	0.848107	0.567263
N	-0.40452	-1.209138	0.692505
O	-0.487215	-2.25246	0.023385
O	-0.531276	-1.166677	1.923013
H	2.630871	0.0	0.0
