14

C	-0.494503	0.007421	-1.425156
C	0.0	0.0	0.0
Cl	0.054617	-1.586079	-2.237574
H	1.095828	0.0	0.0
H	-1.582768	-0.067206	-1.504008
H	-0.321295	-0.938613	0.46707
N	-0.059403	1.158798	-2.133042
H	-0.387283	1.152869	-3.090586
H	0.954876	1.210504	-2.120484
C	-0.54719	1.188674	0.776725
H	-0.195659	2.128437	0.346523
H	-1.64577	1.212146	0.784016
H	-0.205514	1.145668	1.815988
Br	2.936225	0.0	0.0
