14

C	-0.323321	-0.048092	-1.475101
C	0.0	0.0	0.0
Cl	-2.114938	-0.315733	-1.758904
H	1.097552	0.0	0.0
H	-0.159382	0.938179	-1.925341
H	-0.33548	-0.936748	0.454307
N	0.406659	-1.116961	-2.095487
H	0.446586	-0.985842	-3.098654
H	1.356921	-1.104292	-1.727561
C	-0.550536	1.211969	0.729279
H	-0.228062	1.201927	1.77285
H	-1.643338	1.238581	0.705054
H	-0.172215	2.135254	0.281721
Br	3.651875	0.0	0.0
