14

C	-0.46612	0.026444	-1.434793
C	0.0	0.0	0.0
Cl	-2.377662	-0.199959	-1.424256
H	1.09444	0.0	0.0
H	-0.391663	1.01795	-1.88131
H	-0.328656	-0.944904	0.448079
N	0.168687	-0.92329	-2.233649
H	0.264096	-1.823969	-1.787587
H	-0.20809	-1.002222	-3.165822
C	-0.496354	1.176623	0.828761
H	-0.169445	2.119622	0.381813
H	-1.584858	1.191744	0.916806
H	-0.062532	1.128588	1.829839
Br	3.745196	0.0	0.0
