14

C	-0.306346	-0.011228	-1.484416
C	0.0	0.0	0.0
Cl	-2.086992	-0.265425	-1.771642
H	1.096918	0.0	0.0
H	-0.091892	0.969273	-1.915987
H	-0.33488	-0.949222	0.434609
N	0.427577	-1.000097	-2.24051
H	0.313076	-1.896668	-1.776947
H	1.414184	-0.760043	-2.135378
C	-0.556495	1.187947	0.76586
H	-1.649845	1.200008	0.759817
H	-0.199293	2.124475	0.328031
H	-0.21473	1.164048	1.803225
Br	3.656097	0.0	0.0
