14

C	-0.408454	0.159916	-1.463095
C	0.0	0.0	0.0
Cl	-0.499061	-1.476088	-2.245648
H	1.09556	0.0	0.0
H	-1.423245	0.560059	-1.557223
H	-0.374548	-0.933035	0.425859
N	0.481216	0.987262	-2.242347
H	1.441617	0.762228	-1.981599
H	0.318637	1.957035	-2.001224
C	-0.473708	1.194136	0.825186
H	-1.567009	1.259443	0.86662
H	-0.095266	1.119831	1.84696
H	-0.08829	2.130722	0.413116
Br	3.687827	0.0	0.0
