14

C	-0.436091	0.016169	-1.445503
C	0.0	0.0	0.0
Cl	-2.269035	0.587528	-1.502006
H	1.095071	0.0	0.0
H	0.051328	0.820676	-1.992355
H	-0.321425	0.937111	0.460622
N	-0.256806	-1.200821	-2.114682
H	-0.742486	-1.964483	-1.667722
H	-0.507118	-1.150195	-3.091197
C	-0.520722	-1.187907	0.797312
H	-1.610929	-1.270489	0.748021
H	-0.070163	-2.119881	0.447516
H	-0.234081	-1.078842	1.845081
Br	3.736936	0.0	0.0
