16

C	0.0	0.0	0.0
C	-0.585396	0.177009	-1.406818
Br	1.955001	0.0	0.0
H	-1.644927	0.412304	-1.247475
H	-0.289872	-1.005077	0.310818
C	-0.485735	1.017154	1.016138
H	-1.577264	0.964988	1.02755
H	-0.17088	2.024509	0.74245
H	-0.09328	0.776158	2.006314
N	-0.477488	-0.940689	-2.290188
H	0.40959	-1.415969	-2.187589
H	-1.243591	-1.570467	-2.092231
N	0.028995	1.389705	-2.060887
O	-0.369827	2.488267	-1.671016
O	0.904641	1.216183	-2.903952
Cl	-3.683184	0.0	0.0
