16

C	0.0	0.0	0.0
C	-0.392389	0.129468	-1.479402
Br	1.953648	0.0	0.0
H	0.122213	0.98937	-1.913076
H	-0.297505	-0.982524	0.367845
C	-0.579183	1.117847	0.83619
H	-1.670558	1.035771	0.813667
H	-0.279094	2.093561	0.444424
H	-0.241141	1.04085	1.871045
N	-1.769536	0.156552	-1.799485
H	-2.413237	-0.263499	-1.126586
H	-2.103494	1.091658	-1.974074
N	0.209239	-1.055022	-2.235147
O	-0.002773	-2.174112	-1.777895
O	0.803616	-0.815062	-3.283415
Cl	-4.325983	0.0	0.0
