16

C	0.0	0.0	0.0
C	-0.482639	0.396614	-1.38805
F	1.397194	0.0	0.0
H	-1.568411	0.269284	-1.401406
H	-0.035072	-0.332181	-2.077884
C	-0.362145	1.027497	1.006443
N	-0.565514	1.854908	1.816022
C	-0.494847	-1.365066	0.427132
H	-0.199302	-2.100051	-0.327647
H	-1.584363	-1.333343	0.497099
H	-0.052743	-1.64107	1.387733
C	-0.096571	1.823839	-1.775197
H	0.962476	2.017766	-1.586781
H	-0.295134	2.003193	-2.83648
H	-0.688774	2.541406	-1.196186
Cl	-3.748462	0.0	0.0
