16

C	0.0	0.0	0.0
C	-0.480607	-0.298952	-1.412328
F	1.397386	0.0	0.0
H	-1.553708	-0.095038	-1.438827
H	0.029738	0.406189	-2.076615
C	-0.360404	1.387052	0.37494
N	-0.555008	2.500675	0.690139
C	-0.49181	-0.97642	1.045923
H	-0.058448	-1.95907	0.853129
H	-0.179395	-0.646079	2.038761
H	-1.581519	-1.018376	0.999568
C	-0.194577	-1.737683	-1.83603
H	-0.88059	-2.428093	-1.342919
H	0.832045	-2.026999	-1.596658
H	-0.33497	-1.84983	-2.914338
Cl	-3.780341	0.0	0.0
