16

C	0.0	0.0	0.0
C	-0.34758	-0.011208	-1.570163
F	1.397398	0.0	0.0
H	-1.427843	-0.059647	-1.714635
H	-0.000789	-0.965348	-1.940395
C	-0.402376	1.256112	0.687112
N	-0.698245	2.259543	1.23809
C	-0.328445	-1.314655	0.848582
H	-0.020972	-2.168332	0.264214
H	-1.40418	-1.437575	0.995002
H	0.079172	-1.224449	1.838552
C	0.084601	1.215977	-2.281598
H	1.16013	1.310255	-2.236783
H	-0.265841	1.134977	-3.314533
H	-0.384387	2.11116	-1.846113
Cl	-2.139213	0.0	0.0
