16

C	0.0	0.0	0.0
C	-0.175359	0.188125	-1.505952
F	1.39665	0.0	0.0
H	0.204346	-0.731686	-1.937197
H	0.522817	0.962283	-1.782093
C	-0.377417	1.202576	0.768732
N	-0.585052	2.183194	1.364612
C	-0.570395	-1.295447	0.580975
H	-0.200086	-1.391015	1.573584
H	-1.698045	-1.225735	0.561427
H	-0.2142	-2.082902	-0.021445
C	-1.516927	0.529587	-2.250999
H	-1.320964	0.37438	-3.26368
H	-2.391419	-0.117819	-1.918276
H	-1.819181	1.532113	-2.054518
Cl	-3.725323	0.0	0.0
