12
Coordinates from ORCA-job run
  C   0.50108358981181      0.36977958730409      0.90558636297192
  C   -0.69150400308907     -0.20628578837796      0.12910156867128
  Br  1.35292653239613     -1.03942992529195      1.94053646083754
  H   -1.39574502158583     -0.65978145040956      0.82908501897175
  H   0.10241376173107      1.08070246879458      1.63418102960647
  C   1.47607324711504      1.05268435964070      0.06726968870065
  N   2.26771139008802      1.65472456452191     -0.55879857793913
  N   -0.24523591038542     -1.32621084713624     -0.78887500477038
  O   0.55469311467730     -1.02045603301447     -1.66303187309406
  O   -0.72300768089638     -2.43033159942657     -0.56112131597948
  C   -1.33685093247115      0.83332284794341     -0.66415908844937
  N   -1.86255808739153      1.69128181545206     -1.27077426952719
