12
Coordinates from ORCA-job run
  C   0.61632665269562      0.69996067886180      0.47888035098380
  C   -0.60171920925318     -0.14251760847673      0.07759107140736
  Br  0.11219405701673      1.90425260740247      1.91681369745979
  H   -0.94333816926593     -0.75821937822304      0.91170618494387
  H   0.92950689995485      1.31408655371393     -0.36666687030984
  C   1.70798963079930     -0.16531860042583      0.90233537896394
  N   2.57758948828039     -0.88508469134377      1.22909648570209
  N   -0.16134307227169     -1.10476636467892     -1.01421460878876
  O   -0.41222634689078     -2.28845839615587     -0.83405629218370
  O   0.40970930666153     -0.59557590432683     -1.97126275895741
  C   -1.68214740017702      0.68229733721757     -0.44821735355122
  N   -2.55354183754982      1.34034376643522     -0.88100528566993
