12
Coordinates from ORCA-job run
  C   0.37111150935542      0.31777956072480      0.98544763219754
  C   -0.72002278168978     -0.13664641685686      0.00570963614625
  Br  0.88878272207737     -1.16882043153827      2.12779233152328
  H   -1.57493204422948     -0.51960576196660      0.56599051535004
  H   -0.07562613161332      1.06520035129901      1.64653193555902
  C   1.53833297653205      0.89970118271101      0.33833027673404
  N   2.48061010767990      1.41859500698760     -0.13466679512149
  N   -0.23335649398844     -1.29375896095467     -0.84292352332229
  O   -0.84626787334713     -2.34659667691681     -0.71860350651040
  O   0.72861740559846     -1.06650392782244     -1.56457223715343
  C   -1.11491511471593      0.96253194139860     -0.86747154467558
  N   -1.44233428165910      1.86812413293465     -1.54056472072697
