12
Coordinates from ORCA-job run
  C   0.50790891658559      0.63115608698426      0.66522152635341
  C   -0.50520458382551     -0.35643055344435      0.07155536377401
  Br  0.06609612136233      0.95581169477173      2.52845518961140
  H   -0.46137050846614     -1.31882981637618      0.58472877434663
  H   0.43584156828707      1.58556609611849      0.14169030017626
  C   1.85654823922456      0.09470177457488      0.55145777451907
  N   2.93542632369384     -0.35794471718059      0.44085683946183
  N   -0.10500070983124     -0.62068737268484     -1.37130512768239
  O   0.06125734694155      0.37453309450819     -2.06644531892165
  O   0.01732332861018     -1.79288459598966     -1.69922677800119
  C   -1.85842975294746      0.18489693875665      0.07882041504945
  N   -2.94939628963478      0.62011136996142      0.07419104131317
