16

C	0.0	0.0	0.0
C	-0.520075	0.00494	-1.421779
F	1.397194	0.0	0.0
H	-1.618728	-0.01929	-1.31016
H	-0.188476	-0.935343	-1.879167
C	-0.329521	1.270435	0.693502
N	-0.392051	2.293825	1.266513
C	-0.521906	-1.180667	0.781804
H	-0.217221	-2.103135	0.279006
H	-1.620374	-1.083858	0.778497
H	-0.12597	-1.1725	1.800726
C	-0.052365	1.203837	-2.236876
H	1.032665	1.328302	-2.183425
H	-0.330237	1.083309	-3.287697
H	-0.522344	2.120496	-1.87227
H	-3.243	0.0	0.0
