16

C	0.0	0.0	0.0
C	-0.520861	-0.082081	-1.425776
F	1.397662	0.0	0.0
H	-0.182458	-1.043014	-1.83289
H	-1.620318	-0.105863	-1.312145
C	-0.327437	1.313508	0.60594
N	-0.292912	2.379226	1.102082
C	-0.515334	-1.133867	0.858379
H	-1.613338	-1.042801	0.860215
H	-0.210976	-2.083976	0.409325
H	-0.109852	-1.061665	1.870745
C	-0.065915	1.074422	-2.30684
H	1.021629	1.188424	-2.295856
H	-0.512687	2.011743	-1.967022
H	-0.38282	0.911461	-3.34074
H	-3.261518	0.0	0.0
