16

C	0.0	0.0	0.0
C	-0.532911	0.064593	-1.41626
F	1.397398	0.0	0.0
H	-1.631334	0.043784	-1.29303
H	-0.217824	-0.859296	-1.916538
C	-0.351	1.236015	0.742754
N	-0.479546	2.232223	1.351174
C	-0.522529	-1.212295	0.733377
H	-0.224074	-2.11401	0.190985
H	-1.620851	-1.115241	0.741505
H	-0.121253	-1.248665	1.749493
C	-0.069064	1.290237	-2.192337
H	1.021248	1.374081	-2.201796
H	-0.41705	1.237736	-3.227905
H	-0.480874	2.201534	-1.751915
H	-3.29075	0.0	0.0
