16

C	0.0	0.0	0.0
C	-0.484032	0.232499	-1.447504
Br	1.950068	0.0	0.0
H	-1.57582	0.32966	-1.343954
N	-0.44631	1.124217	0.781021
H	-0.155679	1.000332	1.74546
H	-1.468902	1.095542	0.750714
N	-0.446489	-1.325346	0.388203
H	-0.089412	-1.542062	1.312249
H	-1.468549	-1.264357	0.442
N	-0.091145	-0.874439	-2.321189
H	-0.784725	-0.946158	-3.057549
H	-0.166404	-1.710021	-1.747318
C	0.026869	1.499737	-1.984286
N	0.366566	2.508793	-2.479124
Cl	-3.558351	0.0	0.0
