16

C	0.0	0.0	0.0
C	-0.018725	-0.05317	-1.555368
Br	2.296329	0.0	0.0
H	0.740043	-0.787641	-1.844045
N	-0.48897	1.142495	0.497371
H	-0.745729	1.826837	-0.200497
H	-1.11773	1.04652	1.279882
N	-0.372003	-1.138807	0.709828
H	-1.400186	-1.145991	0.727901
H	0.004379	-1.982082	0.298393
N	0.24758	1.283958	-2.08398
H	0.061509	1.300564	-3.07897
H	1.23147	1.474961	-1.926152
C	-1.258646	-0.5589	-2.172811
N	-2.017976	-1.012498	-2.947207
Cl	-3.411929	0.0	0.0
