16

C	0.0	0.0	0.0
C	-0.265627	0.012861	-1.539044
Br	2.109629	0.0	0.0
H	0.439178	0.734681	-1.958065
N	-0.43873	1.240884	0.559708
H	-1.455986	1.170436	0.639727
H	-0.037658	1.374084	1.479712
N	-0.511454	-1.129887	0.608512
H	-0.19803	-2.019751	0.25203
H	-0.597574	-1.094682	1.610895
N	-1.593707	0.387502	-1.945566
H	-2.326315	-0.084237	-1.408565
H	-1.721426	1.376857	-1.77499
C	0.074751	-1.310612	-2.089946
N	0.370069	-2.388111	-2.451819
Cl	-4.070255	0.0	0.0
