16

C	0.0	0.0	0.0
C	-0.394051	0.115832	-1.483746
Br	2.090628	0.0	0.0
H	-1.494493	0.108558	-1.415924
N	-0.428137	1.118772	0.704272
H	-0.383852	0.985325	1.702908
H	-0.01314	1.989561	0.40928
N	-0.476915	-1.175189	0.619345
H	-0.305499	-1.94789	-0.01581
H	-1.495313	-1.036157	0.67534
N	0.050023	-1.049617	-2.230296
H	-0.49425	-1.130225	-3.080318
H	1.030144	-0.952625	-2.471829
C	0.027231	1.399591	-2.068091
N	0.401192	2.390107	-2.579783
Cl	-3.585574	0.0	0.0
