17

C	0.020399	-0.042824	-0.004638
C	-0.370004	0.004294	-1.497077
F	1.377258	0.409766	0.081466
H	0.44627	-0.515521	-2.017256
N	-0.810479	0.737931	0.799456
H	-1.809384	0.849712	0.442012
H	-0.833208	0.426007	1.761727
C	0.124483	-1.4677	0.426069
N	0.171852	-2.592645	0.764615
C	-0.42756	1.450781	-1.971896
H	-1.298075	1.943614	-1.536892
H	0.475496	1.99272	-1.685424
H	-0.53037	1.455789	-3.059972
N	-1.625914	-0.654436	-1.810289
H	-2.379736	-0.166471	-1.304934
H	-1.606485	-1.614559	-1.481994
H	-3.274233	0.939764	-0.067667
