18

C	0.0	0.0	0.0
C	-0.48467	-0.437734	-1.376095
F	1.450872	0.0	0.0
H	-1.577058	-0.42571	-1.285675
N	-0.434842	1.333683	0.282769
H	-0.163797	1.562132	1.234378
H	-1.457444	1.272615	0.280803
N	-0.399588	-0.962037	0.96798
H	0.078477	-0.785368	1.843505
H	-0.159381	-1.879775	0.613306
N	-0.064352	-1.825631	-1.606756
H	-0.750616	-2.284295	-2.191015
H	0.821624	-1.831383	-2.097993
C	-0.026079	0.520487	-2.466908
H	-0.3627	1.536464	-2.262918
H	1.06776	0.528475	-2.519438
H	-0.424332	0.199094	-3.43406
Cl	-3.861193	0.0	0.0
