18

C	0.0	0.0	0.0
C	-0.502855	0.160812	-1.43033
F	1.401564	0.0	0.0
H	-1.594586	0.125681	-1.325145
N	-0.417747	1.122491	0.792941
H	0.143843	1.930647	0.554706
H	-0.289036	0.917004	1.776175
N	-0.458753	-1.256205	0.517456
H	-1.480705	-1.197455	0.523511
H	-0.139628	-1.361521	1.474877
N	0.039909	-0.932302	-2.25361
H	-0.625148	-1.100122	-3.001012
H	0.028371	-1.764663	-1.671791
C	-0.105312	1.497697	-2.037042
H	-0.382232	1.510404	-3.094749
H	-0.629556	2.321856	-1.548225
H	0.976923	1.637091	-1.972435
Cl	-3.867572	0.0	0.0
