15
Coordinates from ORCA-job run
  C   -0.52736012141377     -0.42662821277610     -0.42222697558068
  C   0.80399405334365      0.33305163413979     -0.40580307156215
  Cl  -0.72221070222733     -1.10688238221854     -2.04764069847473
  H   1.60055463591020     -0.31607058390791     -0.76941989998037
  N   -0.33442951911255     -1.67509307096165      0.50567183781853
  O   -1.34587173457017     -2.09339606981300      1.04689790980384
  O   0.79680028239062     -2.13762721713858      0.58586661313306
  N   -1.63473390944227      0.35930993497998     -0.09822548185984
  H   -2.50122437348673     -0.14475681246353     -0.23362419316145
  H   -1.56678771665820      0.69919194793298      0.85318702972411
  N   1.23054759515416      0.71136624009373      1.00471203990487
  O   0.38524883097328      0.64986647041695      1.89206519997134
  O   2.39583261571702      1.05497619600160      1.12163297211646
  C   0.72672979958790      1.55249214875643     -1.19740634060883
  N   0.69391026383416      2.53819977695785     -1.83468694124417
