15
Coordinates from ORCA-job run
  C   -0.48714358832009     -0.49101503450570     -0.40278229779430
  C   0.79620096243980      0.34710588616393     -0.40746767885216
  Cl  -0.58161957056694     -1.31461394720727     -1.96942563012489
  H   1.64158975551997     -0.28011327122387     -0.69041353064123
  N   -0.25522312782374     -1.64399123193122      0.63494188178030
  O   0.89664212809327     -2.03218035487901      0.78436984942623
  O   -1.25812536223656     -2.07009405551071      1.18556015486439
  N   -1.64978358622060      0.24949720863587     -0.18210742419109
  H   -1.63674791173011      0.67024556529317      0.73885378064809
  H   -2.47965998986504     -0.31674536278460     -0.30041205218060
  N   1.14835343798264      0.86335848686001      0.97980892047411
  O   0.27346025224603      0.82966055337441      1.83947669857041
  O   2.28850774886532      1.27972245617711      1.10649476387065
  C   0.67996822056436      1.49150474812184     -1.29972838345147
  N   0.62358063105168      2.41865835341601     -2.01816905239843
