15
Coordinates from ORCA-job run
  C   -0.28198925659657     -0.64287399600525      0.05032603627846
  C   0.43584623085521      0.71984625657642      0.09421024209838
  Cl  0.46519284970598     -1.82462317807840      1.09450441219544
  H   -0.15916789668060      1.43366234173554     -0.47951830027061
  N   -1.71666974128815     -0.29304121212528      0.62752776156151
  O   -2.35347746661801      0.44197595234764     -0.12329590054330
  O   -2.08029058832186     -0.74670737659530      1.69814947837137
  N   -0.34267328457537     -1.11306589787264     -1.27190192724855
  H   -0.73737599682183     -2.04273198231285     -1.33084761020692
  H   -0.82979375670337     -0.46821817531006     -1.88219634133877
  N   1.75253808382718      0.60776592568386     -0.64054414181212
  O   2.70729863318896      0.16522477955327     -0.01728674863658
  O   1.72294875773077      0.96031509633159     -1.81368634509471
  C   0.63913911594062      1.19582495163380      1.45211879992762
  N   0.77847431635706      1.60664651443767      2.54344058471880
