15
Coordinates from ORCA-job run
  C   -0.53107628065833     -0.41741564473267     -0.28534454713818
  C   0.84924451826374      0.24264186477323     -0.40566020735894
  Cl  -1.00694904476208     -0.97218584358024     -1.94823857441304
  H   1.58683749158253     -0.51881882606850     -0.66848609351951
  N   -0.39296365208425     -1.73334795288268      0.50396514550976
  O   -1.29158175262151     -1.98579665976412      1.29285858400549
  O   0.56909878514791     -2.42963939831803      0.22739420316862
  N   -1.42885984243556      0.41634943196299      0.37451772294110
  H   -1.61920047260398      1.26861188652977     -0.13749546542885
  H   -2.28100614240031     -0.06038793510642      0.63814289185795
  N   1.22386153342237      0.76638081965675      0.97420876895500
  O   1.31880085357063      1.97578470707812      1.12137990393763
  O   1.37735798788650     -0.10035983336466      1.82331653312092
  C   0.83015616482374      1.33652646231061     -1.36388313030201
  N   0.79727985286859      2.21165692150583     -2.14667573533602
