15
Coordinates from ORCA-job run
  C   -0.31263746638135     -0.62586617814092     -0.07385425929659
  C   0.49190046510466      0.65777396459268      0.20808305970260
  Cl  0.49470421230181     -2.05959638690138      0.50659833833143
  H   -0.12988825371063      1.51296257895841     -0.06535865740902
  N   -1.62696234501382     -0.40267811231407      0.78454705750842
  O   -1.86801573613336     -1.11469967812249      1.74326949614754
  O   -2.31178433906182      0.52245212083351      0.35470321162911
  N   -0.58886128802383     -0.73015295636086     -1.44732374909646
  H   -1.11387906381610      0.06516000941327     -1.79006190782498
  H   -1.04798247917877     -1.60082646901834     -1.68095749526736
  N   1.68193686716922      0.70785049169863     -0.72322413575246
  O   1.50976661934656      1.35429867468747     -1.74964606335350
  O   2.68448526769284      0.09363427909478     -0.38612744594961
  C   0.91345672077890      0.75377214333553      1.59540366571000
  N   1.22576081892572      0.86591551824383      2.72194888492090
