15
Coordinates from ORCA-job run
  C   -0.36705873638772     -0.58525235621538     -0.43577458878328
  C   0.65548302101634      0.57185645649576     -0.42476258369250
  Cl  0.31258128672397     -1.97067558313725     -1.26650324536255
  H   0.97943214958659      0.71474216164061     -1.45696508065684
  N   -0.62994598638715     -0.98580106045666      1.06347301355347
  O   -1.48852295727765     -0.29861314540868      1.60652676572767
  O   0.03159807856239     -1.87903926293540      1.56420324919783
  N   -1.53428631743490     -0.13631711931521     -1.08856178688282
  H   -2.13727691818839     -0.91213338499431     -1.33352202886900
  H   -2.03933106041879      0.52057895765943     -0.50294551499141
  N   1.89197331358964      0.21407446508748      0.36996093171041
  O   2.84615971874373     -0.19428197525848     -0.28038128123788
  O   1.82069794626719      0.35492321644702      1.58567424760549
  C   0.07274591195820      1.79443110707947      0.11013323712850
  N   -0.41624945035350      2.79250752331154      0.49044466555288
