15
Coordinates from ORCA-job run
  C   -0.28758027414276     -0.61102390754396      0.07339886033748
  C   0.40163113223039      0.76651233116637      0.12668649356825
  Cl  0.47317712407671     -1.76955243645605      1.16196348192215
  H   -0.24234069252623      1.50632394554176     -0.35246345398989
  N   -1.73510300644863     -0.40771321138152      0.64199847928481
  O   -1.99231552630951      0.65704938983409      1.19301028201364
  O   -2.49806140741774     -1.34252358014125      0.45017882622415
  N   -0.29807608081680     -1.11794323819084     -1.23269014892174
  H   -0.67376908028060     -0.46535233227342     -1.91035793023707
  H   -0.77002851667054     -2.01180921296432     -1.27964398554481
  N   1.64257109111920      0.68987304612755     -0.74058261431151
  O   2.65688410174856      0.23489934648826     -0.23390370136864
  O   1.49234038186785      1.08229837029953     -1.89241100294084
  C   0.75872757069546      1.20097579184162      1.46613215015524
  N   1.07494318287467      1.58798569765219      2.52868426380874
