15
Coordinates from ORCA-job run
  C   -0.47023490983474     -0.45066886113558     -0.33715856001428
  C   0.77839480989016      0.44077716818999     -0.38125885127946
  Cl  -0.93456054524655     -0.80919932012514     -2.05665857896615
  H   1.61458601542187     -0.13661712205748     -0.78161400536084
  N   -0.08343046137725     -1.83270150662383      0.22268380610695
  O   -0.88692024749117     -2.34977204718693      0.98471873748331
  O   0.96572312852425     -2.30457672943019     -0.18175585383524
  N   -1.45537043824640      0.10794287111537      0.47105065528797
  H   -1.80033817545324      0.99016711947594      0.11422329284775
  H   -2.20881756329469     -0.53663134495271      0.67008657589527
  N   1.13240814741930      0.79789250172071      1.05590346273645
  O   1.02805638681252      1.96641538732606      1.39780260895036
  O   1.46122513678696     -0.15360881402714      1.75049185864634
  C   0.53614142130220      1.65201674949967     -1.14897941706205
  N   0.32313729478676      2.61856394821124     -1.78153573143638
