15
Coordinates from ORCA-job run
  C   -0.34607578417031     -0.57850957085183     -0.36477339888662
  C   0.56078294185120      0.65209893932225     -0.27589578642109
  Cl  0.48896282093936     -1.84327014939194     -1.33465669690954
  H   0.81761070870871      0.93542026546329     -1.30248095641534
  N   -0.65030587980852     -1.15298725175336      1.02208820463283
  O   -1.30784433243836     -2.18276826812028      1.02595958123487
  O   -0.28789149730282     -0.49591687642041      1.98720738083253
  N   -1.60569330348796     -0.19795981604921     -0.87192744387684
  H   -1.53790865060907      0.21564303898719     -1.79365448659505
  H   -2.23086797820426     -0.99623860670932     -0.90075781841646
  N   1.92215728554919      0.41637254846662      0.37849880661718
  O   2.18148254447954     -0.69212354338479      0.81663941172364
  O   2.64660161819889      1.40168123785711      0.36718000431908
  C   -0.08089142072564      1.78437905377547      0.38010427566471
  N   -0.57211907297997      2.73417899880920      0.86546892249614
