17

C	0.0	0.0	0.0
C	-0.564984	-0.028005	-1.41275
Br	1.942334	0.0	0.0
H	-1.658426	-0.028375	-1.191216
H	-0.295699	0.949366	-1.831759
C	-0.520177	1.205405	0.747151
H	-0.201398	2.106307	0.216981
H	-0.148797	1.233699	1.77056
H	-1.617485	1.067971	0.698003
N	-0.376932	-1.260217	0.780351
O	-0.651659	-1.138758	1.9676
O	-0.306961	-2.333201	0.185616
C	-0.149573	-1.122706	-2.387233
H	0.934096	-1.271683	-2.418162
H	-0.617569	-2.07238	-2.137964
H	-0.477753	-0.834914	-3.392025
F	-2.908006	0.0	0.0
