17

C	0.0	0.0	0.0
C	-0.552097	-0.066216	-1.406788
Br	1.956468	0.0	0.0
H	-0.084729	-0.895371	-1.94001
H	-1.624935	-0.262838	-1.20046
C	-0.527991	1.149642	0.816564
H	-0.171947	1.092705	1.843778
H	-1.626178	1.014474	0.740288
H	-0.198233	2.090755	0.37213
N	-0.342664	-1.317228	0.712897
O	-0.436998	-1.296059	1.934332
O	-0.433876	-2.324698	0.021541
C	-0.412349	1.245165	-2.167793
H	-1.104652	1.98414	-1.76071
H	-0.681226	1.089959	-3.216983
H	0.604836	1.650838	-2.139238
F	-2.900575	0.0	0.0
