14
Coordinates from ORCA-job run
  C   0.42510846362610      0.03121491765778     -0.93917279139982
  C   -0.77294697312427     -0.11036057138154      0.00320189981473
  F   0.31534996266329     -0.98328221227059     -1.87709626710421
  H   -1.68607050355050     -0.12844896178429     -0.59146343421066
  H   0.35037920516637      0.96979037449803     -1.50476147626126
  N   1.64469495797851     -0.16707084920754     -0.22076126964123
  H   1.68130180991100      0.43122434202421      0.59590347489982
  H   2.44492766127842      0.01285116793165     -0.81221088924766
  N   -0.86091598973573      1.21443968033024      0.75973570583891
  O   -1.69741148946334      2.02370032323631      0.36517350065166
  O   -0.06101304653080      1.39521008019496      1.67392187711515
  N   -0.66755230971380     -1.19534806008213      0.90386390654796
  H   -1.37641535488192     -1.89375667471779      0.75195655350930
  H   0.25856360637667     -1.59916355642931      0.89270920948731
