14
Coordinates from ORCA-job run
  C   0.73400264981523      0.39820515486933     -0.69292120296651
  C   -0.67756116490704     -0.01287904076045     -0.27587243977619
  F   0.88139766469060     -0.00362422015565     -2.02985783707638
  H   -1.35824768854901      0.18143587933566     -1.10505290417391
  H   0.83348113551033      1.48297418916403     -0.68502230199420
  N   1.68601490107761     -0.19200594113399      0.16644263502889
  H   1.70912893431966     -1.19304157554417      0.01402126513162
  H   2.60909127009052      0.19029752639074      0.01504632866420
  N   -1.11685717142200      0.98035434668759      0.81485026463778
  O   -1.20910269926390      2.15404232221777      0.46759528401213
  O   -1.34144988780901      0.54024511842865      1.93713406504977
  N   -0.73475662110574     -1.36437663323268      0.13825047290850
  H   -0.33075181549489     -1.45765845981400      1.06186823342566
  H   -1.68638950695238     -1.70196866645285      0.17051813712864
