14
Coordinates from ORCA-job run
  C   0.61873573429912      0.03180928382869     -0.82742934684820
  C   -0.75397022265047      0.01580220359689     -0.14973702001223
  F   0.54408770903516     -0.87650485005530     -1.87170144086647
  H   -1.52189097248035      0.11419068383127     -0.91764426345733
  H   0.80149005899370      1.01104234205409     -1.29027516155203
  N   1.63979958890595     -0.42876944979768      0.06449423072620
  H   1.69474695371000      0.19685502549915      0.85943427212699
  H   2.53161377658182     -0.44620056846670     -0.41360535173358
  N   -0.89310282381916      1.29264584918518      0.66693341323991
  O   -1.92545727087491      1.94094258547294      0.52708029193077
  O   0.02476230486248      1.56861706445346      1.43905184047919
  N   -0.95233035319338     -1.10247862755489      0.70173074299699
  H   -0.09467877948911     -1.62746634751097      0.81017912148056
  H   -1.71380570388083     -1.68848519453614      0.40148867148927
