14
Coordinates from ORCA-job run
  C   0.89661636084294      0.35048008974296     -0.12838875070501
  C   -0.54484568453263     -0.13711672332281     -0.17129797409982
  F   0.92155281513779      1.48222294817150     -0.97211834625865
  H   -0.85902335478664     -0.27963411193969     -1.20703162805082
  H   1.14221875548525      0.72483891207603      0.86771315757776
  N   1.80305146482286     -0.65470835380652     -0.50228820270274
  H   1.58017801099479     -1.05903303411305     -1.40164987116736
  H   2.75374507153191     -0.31202800195746     -0.50245855942892
  N   -1.39206041429259      1.04557682290687      0.30310145197276
  O   -1.22490363323727      1.39365234222110      1.47054287700631
  O   -2.17991124200712      1.54296549076774     -0.49521731505986
  N   -0.74977243571178     -1.31002579158575      0.59561712340640
  H   -0.42769058255058     -1.19131392272256      1.54699680844398
  H   -1.72015513169696     -1.59487666643835      0.59647922906601
