14
Coordinates from ORCA-job run
  C   0.87034569859782      0.37605598083888     -0.08774641496966
  C   -0.58633744987752     -0.04777528979191     -0.11693564483639
  F   1.00347831681301      1.40402585351172     -1.02924885798806
  H   -0.88162588483335     -0.29283480070621     -1.14446601741965
  H   1.10839914654034      0.80019415966463      0.88715647427752
  N   1.70613185441752     -0.73563921708081     -0.35726923392913
  H   2.67888496784925     -0.51188283610706     -0.19767978691116
  H   1.59305245581831     -1.04939212743277     -1.31377071262487
  N   -1.43550588449315      1.16417687764103      0.21048709495100
  O   -1.08318257604307      1.87096325247268      1.14645396159158
  O   -2.44771728906990      1.31454490864990     -0.47132293423123
  N   -0.83880948884223     -1.04640293166421      0.87377954892605
  H   -1.65723154937604     -1.59500216388062      0.64937224631816
  H   -0.03088231750097     -1.65003166611524      0.95219027684585
