14
Coordinates from ORCA-job run
  C   0.88479781510761      0.44370742280534     -0.25592530765450
  C   -0.53883374802173     -0.09087323224617     -0.19385329261266
  F   0.85963291075642      1.61509926589544     -0.99541490143086
  H   -0.89249328705025     -0.27460612378958     -1.20799493757371
  H   1.21280188674359      0.74339696629824      0.74924811390515
  N   1.69998945165758     -0.51921523085517     -0.91421885961595
  H   1.45738057861008     -1.44801536842417     -0.59506691572591
  H   2.68192050443606     -0.34533103593348     -0.74942240672763
  N   -1.40701354151131      1.03463731862053      0.34067960768934
  O   -1.26105842214309      1.30011965845429      1.53339921349362
  O   -2.19122897988398      1.57401181358777     -0.43194035111410
  N   -0.59523476978976     -1.26986318455346      0.60512960371190
  H   -0.41271510446086     -1.04139241467299      1.57568067910888
  H   -1.49794529445037     -1.72167585518660      0.53969975454643
