14
Coordinates from ORCA-job run
  C   0.94088958163725      0.39733959470145     -0.27097011724686
  C   -0.50919243714435     -0.06815753042807     -0.12312560781142
  F   0.90594548583937      1.54716033064067     -1.03622697002450
  H   -0.92792368929054     -0.30701904400710     -1.10203196745384
  H   1.33454687435518      0.65819828312968      0.71665619492922
  N   1.80813987223080     -0.54555536606611     -0.89164919744279
  H   1.39142575796567     -0.91195008746940     -1.73929644543909
  H   1.98828645829450     -1.31719721537306     -0.26399972103789
  N   -1.31692400824517      1.12096671310373      0.36845677272338
  O   -2.11400205911352      1.64001107315378     -0.40569190324402
  O   -1.09106827425327      1.47354191383924      1.52592409001343
  N   -0.57129307097342     -1.18457571221375      0.75987217673628
  H   -0.35146276131630     -0.89053127101508      1.70454622627622
  H   -1.48836772998619     -1.61123168199597      0.75753646902188
