14
Coordinates from ORCA-job run
  C   0.85560387851157     -0.23336464180673     -0.56387322855691
  C   -0.61347147672520     -0.02800485805131     -0.18402393144079
  F   1.30681322071705     -1.24076794449919      0.31619125682053
  H   -1.03731562604037      0.78028985267120     -0.78197416261042
  H   0.87095956011346     -0.68558525725400     -1.55742596995659
  N   1.67815911258747      0.89685745509975     -0.50493497281896
  H   1.34037567213131      1.67063688510457      0.04192767537844
  H   2.12251281477448      1.15825827512895     -1.36556672924794
  N   -0.64766648590183      0.52588178257529      1.25388272685700
  O   -0.99744241570781     -0.22926068489511      2.15155474813867
  O   -0.31545811040950      1.70397617853135      1.39399653854139
  N   -1.33542798635829     -1.23172862354127     -0.33987398452526
  H   -0.92039252776017     -1.96068084933088      0.22522226714650
  H   -2.30724962993220     -1.12650756973260     -0.08310223372569
