14
Coordinates from ORCA-job run
  C   0.69849110565029      0.26470669987556     -0.78765392451248
  C   -0.67755209331753     -0.12031650530644     -0.24594627560105
  F   0.85696040371638     -0.43776588582133     -1.99269999963573
  H   -1.37947852760613     -0.17372029007289     -1.07848960760385
  H   0.72516885286149      1.32335301564173     -1.04318965567528
  N   1.69717473791048     -0.04075634253241      0.16217931056070
  H   1.78221368332318     -1.04570127256832      0.25581743996424
  H   2.59185735085669      0.34700228054990     -0.10312208511055
  N   -1.16918688531222      1.07659057839904      0.58694820519014
  O   -1.35085661894393      0.90637204120289      1.78767781408998
  O   -1.34369561110336      2.12425522866008     -0.02832605344493
  N   -0.64003166120815     -1.33363033741815      0.48102432051772
  H   -1.56621610750879     -1.71470767749961      0.61352835449130
  H   -0.22584862931840     -1.17568153311006      1.39125215676979
