14
Coordinates from ORCA-job run
  C   0.84463807804863     -0.36289563082193     -0.33220039463502
  C   -0.64764717537771     -0.04127666958924     -0.17108597269781
  F   1.18409061413529     -1.15155984124561      0.78929738433971
  H   -0.98563869488913      0.51801860222955     -1.04377167050706
  H   0.94606628601647     -1.04043820206261     -1.18608392518481
  N   1.67036902135738      0.75457703744096     -0.45252856060703
  H   2.37714437455177      0.73500549291330     -1.16274589268801
  H   1.28114413215735      1.65911137344177     -0.25199269788818
  N   -0.77115801190220      0.92748628016528      0.98575290883116
  O   -0.98421107471596      0.46336729310420      2.09582897227144
  O   -0.59762707765299      2.11975890118582      0.71872180275286
  N   -1.50212331684205     -1.15483787235128      0.08002812133384
  H   -1.75558830771134     -1.61767375787643     -0.78092503428594
  H   -1.05845884717551     -1.80764300653377      0.71170495896490
