14
Coordinates from ORCA-job run
  C   0.89990576607343      0.33736342994288     -0.21490175876413
  C   -0.60074390337974      0.06146902785914     -0.12976688375758
  F   1.02912718703483      1.53955175910621     -0.91061225300891
  H   -1.00856013386497     -0.05243534397653     -1.13609222855057
  H   1.29772907163626      0.50572788159259      0.78912932718516
  N   1.61846359223466     -0.68940412014512     -0.86037380262309
  H   1.11514813692666     -1.22237046564660     -1.55065989289528
  H   2.20568795313155     -1.25386852011361     -0.27356455426746
  N   -1.25643016748811      1.28683759729621      0.43724862240425
  O   -0.94904671174953      1.55167630156202      1.59800659549331
  O   -2.03024147258320      1.91724712111491     -0.27230413403626
  N   -0.99306191984183     -1.04202631031679      0.69884872131989
  H   -0.81786781215162     -1.92328547331286      0.23865865101879
  H   -0.50910958597840     -1.01648288496245      1.58738359048190
