14
Coordinates from ORCA-job run
  C   0.66170058762081      0.06159220199594     -0.84371610520677
  C   -0.75629501210158     -0.13828393237908     -0.30254789317117
  F   0.89742669144183     -0.89956006815547     -1.79704192609239
  H   -1.48338243028310      0.00422491155000     -1.10457630872798
  H   0.73148078514931      1.03424199760576     -1.34191611422610
  N   1.61271152954297     -0.14651074206579      0.22447556594835
  H   1.73106049043338      0.70075048123933      0.76729416673057
  H   2.50820643699706     -0.38422104172590     -0.18432819922392
  N   -0.98323544856048      1.08917033174811      0.61316497276150
  O   -1.02247513277926      2.18154003111667      0.04923432948542
  O   -1.08031111710109      0.89873018844217      1.82144844515457
  N   -0.88906346895118     -1.37887309128598      0.33295326652822
  H   -0.13905361696901     -1.51817393313225      0.99634587773201
  H   -1.78977029443966     -1.50462733495349      0.77020992230768
