14
Coordinates from ORCA-job run
  C   0.77723990387352     -0.29626489347412     -0.45094779253128
  C   -0.69978124109623     -0.02918914348588     -0.14003526727610
  F   1.31243462142857     -0.89257459796107      0.71724130065238
  H   -1.13311014457498      0.55537685527785     -0.95159270136931
  H   0.82513904784267     -1.07644164677375     -1.21512693655423
  N   1.48142786529920      0.83739135635213     -0.88747100248024
  H   2.44864898877619      0.62297040456159     -1.08549327994611
  H   1.41149387753260      1.61218050962876     -0.24189809546635
  N   -0.72892694527035      0.87761231331862      1.07574481632267
  O   -0.96638176499694      0.37310376427919      2.16283866224895
  O   -0.45303499906846      2.06143984999469      0.87169919620602
  N   -1.49256710412986     -1.18102407798863      0.13603338486854
  H   -0.99628796431427     -1.83359287974293      0.72750035148817
  H   -1.78729414130168     -1.63098781398647     -0.71849263616309
