14
Coordinates from ORCA-job run
  C   0.60714406798128      0.11242112642494     -0.94250726248274
  C   -0.68879539610043     -0.07508468762034     -0.15293663602332
  F   0.56515653386748     -0.93869327098333     -1.88361547479765
  H   -1.55165055466169      0.01323778178811     -0.82675225222712
  H   0.58477020501420      1.03775311234500     -1.51436268836827
  N   1.75389786458814      0.02721597643919     -0.14161079880206
  H   2.28333831535836      0.87724509759280     -0.06218542774451
  H   1.60540161755331     -0.44871941973915      0.73549107047107
  N   -0.83646253836725      1.09421217601043      0.78714731984481
  O   -0.67391127774014      2.20580645872583      0.29003062471189
  O   -1.14506952922196      0.86764815792909      1.95186023313445
  N   -0.59448676303211     -1.28693868395219      0.60818937356480
  H   -0.49707309098871     -2.06176540705830     -0.03610674200626
  H   -1.41125945425048     -1.42433841790206      1.18735866072494
