18

C	-0.582248	0.059806	-1.392448
C	0.0	0.0	0.0
Cl	0.184078	1.402731	-2.30919
H	1.088039	0.0	0.0
N	-0.140851	-1.191252	-2.217001
O	0.894239	-1.752631	-1.903563
O	-0.861316	-1.472409	-3.174325
N	-1.986392	0.237717	-1.433286
H	-2.382876	-0.554542	-0.935464
H	-2.292377	0.193176	-2.399303
N	-0.453378	-1.173536	0.687118
O	-1.139467	-2.033904	0.072182
O	-0.068766	-1.328017	1.861868
C	-0.276262	1.242382	0.830398
H	-1.343505	1.414091	0.983203
H	0.166706	2.104488	0.331
H	0.230421	1.112154	1.785677
H	2.424855	0.0	0.0
