18

C	-0.449311	0.000642	-1.42979
C	0.0	0.0	0.0
Cl	-2.36306	0.453881	-1.47696
H	1.089687	0.0	0.0
N	0.124164	1.19317	-2.221983
O	0.780811	2.040359	-1.632492
O	-0.082094	1.166032	-3.431586
N	-0.155732	-1.103702	-2.185779
H	-0.515639	-1.044317	-3.125466
H	-0.347183	-1.958646	-1.679154
N	-0.318872	-1.208461	0.716708
O	-0.397497	-2.315133	0.130452
O	-0.299913	-1.130656	1.95977
C	-0.411169	1.20401	0.832239
H	0.376074	1.388163	1.566392
H	-1.347756	1.010195	1.354155
H	-0.521341	2.089451	0.214823
H	2.355117	0.0	0.0
