18

C	-0.266303	-0.091904	-1.49337
C	0.0	0.0	0.0
Cl	-2.008238	-0.461341	-1.913022
H	1.091985	0.0	0.0
N	-0.095711	1.358935	-2.140791
O	-0.845948	2.260277	-1.789939
O	0.782961	1.457856	-2.99052
N	0.598593	-0.998476	-2.068855
H	1.518231	-0.927651	-1.609341
H	0.668201	-0.884354	-3.07041
N	-0.428861	-1.280902	0.62357
O	0.228435	-2.290149	0.3705
O	-1.397831	-1.255184	1.393838
C	-0.544013	1.175442	0.770703
H	-0.373851	0.990514	1.831882
H	-1.607474	1.341406	0.607804
H	0.012679	2.069885	0.494687
H	2.651849	0.0	0.0
