18

C	-0.553757	-0.007641	-1.407349
C	0.0	0.0	0.0
Cl	0.312211	1.343014	-2.342683
H	1.089797	0.0	0.0
N	-0.13061	-1.237587	-2.220593
O	0.955946	-1.726145	-1.975149
O	-0.8968	-1.574286	-3.121963
N	-1.951157	0.102948	-1.489359
H	-2.257156	-0.009872	-2.448349
H	-2.249733	0.994885	-1.119381
N	-0.434025	-1.188323	0.717806
O	-0.835408	-2.17962	0.085406
O	-0.276232	-1.179463	1.949079
C	-0.383417	1.239566	0.788149
H	-1.445807	1.247903	1.055475
H	-0.13079	2.134043	0.218304
H	0.206483	1.245857	1.704095
H	2.510329	0.0	0.0
