18

C	-0.305546	-0.053522	-1.482686
C	0.0	0.0	0.0
Cl	-2.082057	-0.159204	-1.871713
H	1.092008	0.0	0.0
N	0.095374	1.354537	-2.108078
O	1.033967	1.329805	-2.897822
O	-0.538957	2.351444	-1.787074
N	0.398281	-1.082037	-2.090455
H	0.450854	-0.956424	-3.092511
H	1.334319	-1.129584	-1.675674
N	-0.418314	-1.28428	0.617905
O	-1.362734	-1.26676	1.41805
O	0.237018	-2.290464	0.347342
C	-0.526424	1.164096	0.801187
H	-0.009031	2.073452	0.49856
H	-1.603455	1.300804	0.69752
H	-0.293586	0.980794	1.851413
H	2.631732	0.0	0.0
