18

C	-0.229111	0.048817	-1.505647
C	0.0	0.0	0.0
Cl	0.081524	-1.600972	-2.198778
H	1.092614	0.0	0.0
N	-1.678413	0.435598	-1.92636
O	-2.011825	1.565593	-1.580936
O	-2.383391	-0.351622	-2.543507
N	0.655937	1.026841	-1.989746
H	1.578714	0.863774	-1.544307
H	0.744918	0.976655	-2.99733
N	-0.593671	-1.20315	0.618088
O	0.073929	-1.819854	1.444479
O	-1.759354	-1.469004	0.308765
C	-0.454011	1.207535	0.796268
H	-0.065507	2.108218	0.324434
H	-0.01767	1.120866	1.795569
H	-1.540793	1.277224	0.866434
H	2.726785	0.0	0.0
