11

C	0.0	0.0	0.0
C	-0.303636	0.229539	-1.502928
F	1.390049	0.0	0.0
H	0.422761	-0.416411	-2.01559
H	-0.366835	-0.962582	0.357385
H	-0.378734	0.794215	0.641025
H	0.025109	1.258931	-1.709261
N	-1.625046	0.014562	-2.054024
H	-1.737374	-0.987791	-2.164405
H	-2.324095	0.207867	-1.27492
F	-3.077927	0.0	0.0
