19

C	-0.361824	0.096756	-1.469385
C	0.0	0.0	0.0
F	-1.725746	0.290118	-1.656993
H	1.100464	0.0	0.0
N	0.352008	1.123352	-2.092029
H	1.326132	1.087567	-1.797737
H	0.299825	1.035369	-3.09774
N	-0.18919	-1.254824	-2.262978
O	-0.735347	-2.258477	-1.821177
O	0.404373	-1.196075	-3.339296
C	-0.510559	-1.215844	0.763356
H	-0.003501	-2.13224	0.46881
H	-0.310556	-1.051609	1.825784
H	-1.586706	-1.354968	0.630052
C	-0.472767	1.284379	0.688186
H	-0.059449	1.310461	1.699253
H	-1.564681	1.31073	0.755627
H	-0.133893	2.173168	0.157437
Br	3.569088	0.0	0.0
