19

C	-0.326362	0.111418	-1.484636
C	0.0	0.0	0.0
F	-1.593695	0.608479	-1.714301
H	1.096472	0.0	0.0
N	0.625045	0.895495	-2.142217
H	0.598488	0.790618	-3.146318
H	1.562093	0.706622	-1.78937
N	-0.425654	-1.326085	-2.093862
O	0.621227	-1.80589	-2.518005
O	-1.512835	-1.895842	-2.069114
C	-0.530911	-1.251581	0.680581
H	-0.270267	-1.210147	1.741179
H	-1.618134	-1.332193	0.589612
H	-0.076868	-2.156217	0.270739
C	-0.466681	1.270803	0.705969
H	-0.038149	1.294956	1.710769
H	-0.125834	2.158469	0.171434
H	-1.556993	1.304497	0.785655
Br	3.576864	0.0	0.0
