17

C	-0.415727	-0.040242	-1.459647
C	0.0	0.0	0.0
Br	-2.365206	-0.359389	-1.642426
H	1.091137	0.0	0.0
N	-0.143111	1.347108	-2.070625
O	-0.614788	1.567931	-3.178038
O	0.609986	2.087739	-1.449041
C	0.362998	-1.005331	-2.326862
H	0.105537	-2.029484	-2.077979
H	1.426255	-0.84485	-2.102697
H	0.140605	-0.802248	-3.37515
N	-0.311139	-1.242085	0.716217
O	-0.715403	-1.15699	1.88205
O	-0.00404	-2.301733	0.16127
C	-0.554762	1.123135	0.726677
N	-0.977556	2.054836	1.307136
H	2.411498	0.0	0.0
