17

C	-0.537773	-0.003252	-1.420916
C	0.0	0.0	0.0
Br	0.295923	1.523183	-2.352562
H	1.091798	0.0	0.0
N	-0.018957	-1.226652	-2.177878
O	1.036686	-1.71309	-1.805147
O	-0.68028	-1.585278	-3.148774
C	-2.036335	0.101271	-1.568793
H	-2.313515	0.165098	-2.61979
H	-2.486301	-0.788742	-1.126367
H	-2.380993	0.993372	-1.044514
N	-0.384501	-1.171935	0.743552
O	-0.897772	-2.139168	0.139332
O	-0.046426	-1.184753	1.941084
C	-0.417631	1.179494	0.720451
N	-0.761244	2.153168	1.286053
H	2.328963	0.0	0.0
