17

C	-0.448403	-0.002816	-1.43483
C	0.0	0.0	0.0
Br	0.551346	-1.314487	-2.471751
H	1.094519	0.0	0.0
N	-1.950367	-0.319177	-1.568078
O	-2.645943	0.033053	-0.621102
O	-2.361696	-0.772251	-2.627093
C	-0.23073	1.362979	-2.062216
H	-0.481774	1.32476	-3.122833
H	-0.851456	2.107022	-1.557328
H	0.822778	1.626411	-1.939328
N	-0.368778	-1.1963	0.753694
O	-0.84958	-2.158927	0.142354
O	-0.065005	-1.189964	1.950788
C	-0.388066	1.177913	0.742065
N	-0.634157	2.172677	1.319158
H	2.388386	0.0	0.0
