17

C	-0.47983	-0.001581	-1.444841
C	0.0	0.0	0.0
Br	0.295026	-1.528648	-2.34236
H	1.092501	0.0	0.0
N	-2.016527	-0.079216	-1.585582
O	-2.534563	-1.021473	-2.163755
O	-2.60003	0.858068	-1.052139
C	-0.030303	1.268612	-2.140452
H	-0.48603	2.132203	-1.653823
H	1.058911	1.334205	-2.070218
H	-0.332639	1.241911	-3.190963
N	-0.435844	-1.264493	0.710666
O	-1.618232	-1.591333	0.58238
O	0.435192	-1.897997	1.291996
C	-0.468466	1.127585	0.779501
N	-0.753874	2.051521	1.450838
H	2.669929	0.0	0.0
