17

C	-0.546499	0.003377	-1.416869
C	0.0	0.0	0.0
Br	0.300904	1.51	-2.366012
H	1.091311	0.0	0.0
N	-0.061659	-1.235108	-2.172251
O	-0.764902	-1.61187	-3.105794
O	1.011138	-1.712373	-1.838183
C	-2.045381	0.134442	-1.540942
H	-2.504794	-0.743054	-1.083407
H	-2.342085	0.196545	-2.586803
H	-2.363049	1.036641	-1.016374
N	-0.393208	-1.161843	0.75271
O	-0.884385	-2.140844	0.147094
O	-0.08181	-1.157344	1.958115
C	-0.38575	1.19766	0.711795
N	-0.701641	2.171881	1.291012
H	2.32583	0.0	0.0
