17

C	-0.419388	-0.031099	-1.461035
C	0.0	0.0	0.0
Br	-2.336999	-0.465675	-1.660791
H	1.091318	0.0	0.0
N	-0.219157	1.379371	-2.037264
O	0.609529	2.080838	-1.465497
O	-0.79692	1.656167	-3.081039
C	0.431305	-0.921011	-2.342734
H	0.246313	-1.963769	-2.10827
H	1.477221	-0.686874	-2.106177
H	0.199931	-0.717092	-3.389251
N	-0.281898	-1.242347	0.720998
O	-0.172628	-2.305966	0.099219
O	-0.438337	-1.161154	1.944639
C	-0.553399	1.115235	0.735561
N	-0.9849	2.036084	1.327105
H	2.395375	0.0	0.0
