15

C	-0.337701	0.034608	-1.474222
C	0.0	0.0	0.0
Cl	-2.119238	0.10351	-1.792713
H	1.103727	0.0	0.0
H	0.058101	0.975597	-1.867322
C	0.290745	-1.133171	-2.202736
H	-0.148097	-2.075441	-1.868065
H	0.1471	-1.043602	-3.281783
H	1.360667	-1.129564	-1.963382
C	-0.499138	-1.208237	0.637201
N	-0.872206	-2.202252	1.141892
N	-0.488592	1.196523	0.712209
H	0.087458	1.958853	0.353665
H	-0.185044	1.087486	1.676254
H	2.761364	0.0	0.0
