15

C	-0.433633	0.01057	-1.475244
C	0.0	0.0	0.0
Cl	0.038777	1.577234	-2.222443
H	1.095383	0.0	0.0
H	0.165094	-0.744825	-1.992046
C	-1.916931	-0.209371	-1.722246
H	-2.513305	0.562003	-1.228898
H	-2.216468	-1.184122	-1.331961
H	-2.139649	-0.171551	-2.79099
C	-0.464177	-1.260386	0.581721
N	-0.851964	-2.278591	1.025057
N	-0.415557	1.121615	0.826983
H	-1.258032	1.56033	0.475787
H	0.339268	1.796957	0.790897
H	2.737376	0.0	0.0
