15

C	-0.520785	0.070019	-1.436457
C	0.0	0.0	0.0
Cl	-0.338869	-1.527921	-2.252146
H	1.100219	0.0	0.0
H	-1.59718	0.270382	-1.432972
C	0.240369	1.122435	-2.215969
H	1.30514	0.884772	-2.187455
H	0.087162	2.087583	-1.731123
H	-0.109567	1.172402	-3.249696
C	-0.510417	-1.153904	0.732161
N	-0.947421	-2.034061	1.37965
N	-0.346549	1.2635	0.674151
H	-1.082685	1.125648	1.354716
H	0.492691	1.5645	1.163984
H	2.763217	0.0	0.0
