15

C	-0.428008	0.016384	-1.475965
C	0.0	0.0	0.0
Cl	0.039217	1.589698	-2.214922
H	1.09545	0.0	0.0
H	0.179441	-0.732688	-1.992854
C	-1.908223	-0.211835	-1.730052
H	-2.128271	-0.168434	-2.799379
H	-2.512329	0.551436	-1.232209
H	-2.203093	-1.191614	-1.347319
C	-0.465254	-1.259925	0.580637
N	-0.831291	-2.278626	1.040845
N	-0.414082	1.123271	0.82834
H	-1.224467	1.594614	0.445228
H	0.364439	1.774425	0.826032
H	2.728537	0.0	0.0
