15

C	-0.522386	0.014012	-1.420819
C	0.0	0.0	0.0
Br	-2.563883	-0.483641	-1.370378
H	1.090565	0.0	0.0
H	-0.612787	1.037666	-1.768965
N	0.226854	-0.779585	-2.265599
H	0.483697	-1.67729	-1.881389
H	-0.11304	-0.823129	-3.213486
N	-0.425655	-1.244527	0.714353
O	-1.158188	-1.180618	1.689603
O	0.004436	-2.275661	0.203529
N	-0.410813	1.202006	0.783442
O	-0.004061	1.240435	1.938085
O	-1.058047	2.084354	0.218812
Cl	3.155683	0.0	0.0
