15

C	-0.454999	0.002046	-1.44277
C	0.0	0.0	0.0
Br	-2.458582	0.504258	-1.54957
H	1.09039	0.0	0.0
H	0.004749	0.870303	-1.908855
N	-0.126935	-1.16943	-2.11748
H	-0.613448	-1.977423	-1.759192
H	-0.213348	-1.083265	-3.118047
N	-0.447939	-1.163727	0.809469
O	-1.227103	-1.974699	0.301549
O	0.026933	-1.245133	1.935413
N	-0.438629	1.263685	0.672515
O	-0.040072	2.284862	0.124261
O	-1.149696	1.205233	1.668015
Cl	3.155201	0.0	0.0
