15

C	-0.504928	0.057909	-1.424955
C	0.0	0.0	0.0
Br	0.032648	-1.660718	-2.336836
H	1.087603	0.0	0.0
H	-1.591213	0.037131	-1.472642
N	0.043323	1.217872	-2.006267
H	-0.227786	1.320899	-2.972987
H	1.056044	1.226238	-1.919322
N	-0.55412	-1.132803	0.791713
O	-1.598246	-1.656086	0.407088
O	0.057631	-1.412889	1.820467
N	-0.50158	1.24014	0.693097
O	-1.715715	1.292161	0.895601
O	0.315797	2.104317	0.974691
Cl	3.238589	0.0	0.0
