15

C	-0.551064	-0.022081	-1.411485
C	0.0	0.0	0.0
Br	0.054334	1.695389	-2.276482
H	1.089461	0.0	0.0
H	0.011637	-0.775838	-1.957799
N	-1.938212	-0.265148	-1.494103
H	-2.237823	-0.353764	-2.45476
H	-2.459067	0.462764	-1.024104
N	-0.427963	-1.254456	0.706521
O	-0.903241	-1.158579	1.834085
O	-0.218973	-2.292803	0.092937
N	-0.496836	1.148885	0.815335
O	-1.670824	1.496101	0.657134
O	0.289482	1.652873	1.606686
Cl	3.199636	0.0	0.0
