15

C	-0.531608	-0.031212	-1.420007
C	0.0	0.0	0.0
Br	0.061021	1.669287	-2.311372
H	1.08789	0.0	0.0
H	0.048173	-0.788936	-1.943735
N	-1.914247	-0.303771	-1.510145
H	-2.197056	-0.451503	-2.46878
H	-2.454538	0.440326	-1.090482
N	-0.442229	-1.274496	0.666602
O	-1.117446	-1.206308	1.688218
O	-0.07768	-2.2989	0.105879
N	-0.519921	1.120097	0.831884
O	-1.61027	1.61192	0.529771
O	0.165207	1.450138	1.791151
Cl	3.197237	0.0	0.0
