13

C	-0.307203	-0.068815	-1.504304
C	0.0	0.0	0.0
Br	-0.129768	1.886527	-2.185806
H	1.09421	0.0	0.0
H	-0.389057	0.908377	0.456471
N	0.586759	-0.957799	-2.098965
H	0.51998	-1.005537	-3.105866
H	1.545186	-0.806477	-1.775919
C	-1.696014	-0.386716	-1.83933
N	-2.807312	-0.667268	-2.102401
C	-0.506517	-1.18218	0.686798
N	-0.936775	-2.115547	1.255018
Cl	3.293606	0.0	0.0
