13

C	-0.560119	0.020976	-1.422606
C	0.0	0.0	0.0
Br	0.23262	-1.581851	-2.360995
H	1.091691	0.0	0.0
H	-0.317096	-0.935458	0.47393
N	-1.983689	-0.006541	-1.418736
H	-2.315921	-0.810857	-0.899607
H	-2.356175	-0.038088	-2.359862
C	-0.114584	1.185255	-2.191352
N	0.161454	2.129257	-2.835123
C	-0.518272	1.128177	0.769247
N	-0.932756	2.026195	1.402222
Cl	3.295529	0.0	0.0
