13

C	-0.31579	0.082803	-1.493392
C	0.0	0.0	0.0
Br	-2.251229	0.413528	-1.827693
H	1.096653	0.0	0.0
H	-0.369152	-0.928818	0.43713
N	0.433582	1.162418	-2.050908
H	1.398554	1.092026	-1.724818
H	0.406934	1.145621	-3.062864
C	-0.067136	-1.23008	-2.117957
N	0.168149	-2.265806	-2.624148
C	-0.499743	1.148626	0.739799
N	-0.890599	2.063055	1.363594
Cl	3.257573	0.0	0.0
