13

C	-0.485562	-0.036217	-1.442705
C	0.0	0.0	0.0
Br	-2.59284	-0.347902	-1.33264
H	1.094623	0.0	0.0
H	-0.346453	-0.889355	0.528963
N	-0.169727	1.107824	-2.150489
H	-0.466363	1.116164	-3.114812
H	-0.371576	1.968691	-1.662105
C	-0.064779	-1.242115	-2.149147
N	0.250963	-2.21306	-2.730301
C	-0.491877	1.19758	0.667317
N	-0.870602	2.192052	1.16441
Cl	3.268429	0.0	0.0
