13

C	-0.345368	0.140486	-1.487409
C	0.0	0.0	0.0
Br	-0.052016	2.087355	-2.02647
H	1.103372	0.0	0.0
H	-0.317846	-1.00147	0.30857
N	0.473276	-0.766612	-2.190844
H	1.445332	-0.668617	-1.891657
H	0.392986	-0.665383	-3.193496
C	-1.763747	-0.07969	-1.780004
N	-2.902302	-0.285193	-1.989782
C	-0.592442	0.992979	0.875277
N	-1.0944	1.757179	1.612297
Cl	3.282821	0.0	0.0
