13

C	-0.359509	0.059313	-1.49809
C	0.0	0.0	0.0
Br	-0.079688	1.896691	-2.149419
H	1.10281	0.0	0.0
H	-0.309613	-0.987874	0.362488
N	0.475361	-0.816357	-2.288364
H	1.44504	-0.642917	-2.012137
H	0.257457	-1.777707	-2.040584
C	-1.773207	-0.256803	-1.726465
N	-2.904393	-0.548088	-1.857211
C	-0.60038	1.023133	0.836268
N	-1.112361	1.826303	1.52326
Cl	3.285493	0.0	0.0
