13

C	-0.547019	0.220211	-1.412903
C	0.0	0.0	0.0
Br	0.009322	-1.294846	-2.528787
H	1.101733	0.0	0.0
H	-0.357502	-0.970977	0.35149
N	-1.997098	0.239338	-1.402897
H	-2.302797	0.990046	-0.788974
H	-2.341688	0.434022	-2.336637
C	0.028481	1.42608	-2.031794
N	0.370744	2.426141	-2.548042
C	-0.513025	1.051276	0.873709
N	-0.989906	1.905241	1.524804
Cl	3.291934	0.0	0.0
