13

C	-0.595591	-0.003939	-1.419238
C	0.0	0.0	0.0
Br	0.040967	-1.638995	-2.299781
H	1.093003	0.0	0.0
H	-0.324162	-0.918263	0.501403
N	-2.046295	-0.013135	-1.494742
H	-2.392142	-0.796769	-0.950402
H	-2.393875	0.844605	-1.074784
C	-0.118583	1.145386	-2.195349
N	0.200017	2.094755	-2.809612
C	-0.534008	1.146321	0.727873
N	-1.03843	2.054832	1.276167
Cl	3.291239	0.0	0.0
