11
Coordinates from ORCA-job run
  C   0.99074643922733      0.04689546270949      0.03953479695061
  C   -0.34635441314273     -0.29329533181794     -0.62731256240650
  Br  2.39417485892841     -1.16446458102409     -0.57269922371186
  H   -0.61512786124307     -1.32124740753086     -0.35974965929678
  H   1.29359038926054      1.05422572428051     -0.24715476427348
  H   -0.20057535385129     -0.26069200441296     -1.70916678314694
  C   0.87497044452666     -0.03034857135043      1.48962855937384
  N   0.73143866500034     -0.10982442004425      2.65265546268396
  N   -1.31646760730326      0.70444096203937     -0.20438937663005
  H   -1.92780016139794      0.34718898115541      0.51563962092005
  H   -1.88059540000499      1.02612118599575     -0.97698607046285
