11
Coordinates from ORCA-job run
  C   1.00945808901477     -0.19353622571667     -0.01603664226392
  C   -0.32737221628102     -0.03942600637168     -0.74648913699991
  Br  1.27835419028368     -2.02018595549556      0.60553441907730
  H   -0.36634657059684     -0.79783600134645     -1.53120929214114
  H   1.83996867398365      0.01500949958495     -0.69431009040851
  H   -0.30231634509635      0.94676614052428     -1.23661065136421
  C   1.08161899423816      0.72238214314449      1.11585682272299
  N   1.13442862103640      1.50169719465066      1.99312944136518
  N   -1.43468156266820     -0.23037451104974      0.16775364769468
  H   -1.64842571043673      0.62437718584781      0.66453272451614
  H   -2.26468616347751     -0.52987346377210     -0.32315124219860
