11
Coordinates from ORCA-job run
  C   0.81795013847400     -0.26214202471291      0.22968881529229
  C   -0.50288263054178      0.38544863749902     -0.17982083437372
  Br  0.49557980203500     -1.89145049052242      1.26371432211455
  H   -0.24808289270650      1.31701946544111     -0.69518582240904
  H   1.35315587380159     -0.58345535652287     -0.66523497085717
  H   -1.06139624961368      0.64765515327112      0.72915976650949
  C   1.63999505782942      0.64515001231363      1.01802203232442
  N   2.27833936596304      1.41625722015170      1.63248477750854
  N   -1.20098442825845     -0.48271825758749     -1.11323859190222
  H   -1.65957745702519     -1.23481471593961     -0.61485953661203
  H   -1.91309657995747      0.04105035660872     -1.60472995759511
