13

C	-0.479735	-0.012587	-1.463016
C	0.014155	0.134355	-0.014176
Br	-0.100488	1.594597	-2.540183
H	1.093677	0.316058	-0.043677
H	-1.570176	-0.095694	-1.475058
C	0.066791	-1.174084	-2.157353
N	0.38356	-2.104308	-2.801969
N	-0.120907	-1.073191	0.758162
H	0.869183	-1.477941	0.661842
H	-0.815848	-1.700237	0.365188
C	-0.69637	1.264881	0.60261
N	-1.282179	2.154239	1.100853
H	2.310252	-1.269063	0.24843
