13

C	-0.57888	0.027848	-1.55094
C	0.042023	0.113571	-0.140212
Br	0.225291	-1.427456	-2.567257
H	1.13229	0.157291	-0.218927
H	-0.369357	0.935725	-2.123738
C	-2.021423	-0.176975	-1.492597
N	-3.188424	-0.305263	-1.44251
N	-0.228495	-1.051137	0.654936
H	-0.887075	-0.844935	1.396017
H	0.736297	-1.25232	1.066214
C	-0.418546	1.386323	0.438092
N	-0.812275	2.399026	0.888977
H	2.257671	-0.935219	1.13258
