13

C	-0.480527	-0.023983	-1.463555
C	0.012649	0.130542	-0.015403
Br	-0.103398	1.578273	-2.548425
H	1.092292	0.311261	-0.045909
H	-1.570723	-0.109763	-1.476192
C	0.069305	-1.1883	-2.150803
N	0.384096	-2.121792	-2.79168
N	-0.12424	-1.073426	0.762758
H	0.867997	-1.47552	0.676307
H	-0.813374	-1.705437	0.367622
C	-0.696927	1.264642	0.595737
N	-1.279531	2.158493	1.089655
H	2.310911	-1.266938	0.272431
