12

C	0.0	0.0	0.0
C	-0.482635	-0.060549	-1.430702
F	1.377397	0.0	0.0
H	-0.179241	-1.002032	-1.887808
H	-0.371649	-0.886099	0.517991
H	-1.576141	0.036578	-1.440147
C	-0.425034	1.197408	0.748979
N	-0.660146	2.153032	1.386969
N	0.113376	1.00244	-2.2862
O	0.192216	0.749369	-3.487842
O	0.455178	2.060341	-1.765649
Cl	-3.368873	0.0	0.0
