12

C	0.0	0.0	0.0
C	-0.521884	-0.045738	-1.417146
F	1.377852	0.0	0.0
H	-1.610885	0.105533	-1.379778
H	-0.363847	-0.894727	0.51049
H	-0.288895	-1.002806	-1.880222
C	-0.416478	1.176707	0.783342
N	-0.627263	2.107643	1.465165
N	0.096426	0.988716	-2.285636
O	0.32313	2.094325	-1.80141
O	0.30785	0.67299	-3.45653
Cl	-3.412247	0.0	0.0
