12

C	0.0	0.0	0.0
C	-0.500396	-0.022378	-1.425901
F	1.377812	0.0	0.0
H	-1.586554	0.141745	-1.409139
H	-0.372823	-0.896265	0.499224
H	-0.266024	-0.974837	-1.897694
C	-0.407942	1.175269	0.793256
N	-0.576549	2.090795	1.50798
N	0.150939	1.016285	-2.265736
O	0.403932	0.70779	-3.430839
O	0.361663	2.118345	-1.76663
Cl	-3.367328	0.0	0.0
