13
Coordinates from ORCA-job run
  C   -0.67500369409296      0.05948228278627      0.41477931042452
  C   0.53472258012267     -0.00855697071899     -0.23115954678753
  N   -1.60094943863495     -1.06895009453024      0.35425900233290
  O   -2.66192371843808     -0.95255520296166      0.95516241288184
  O   -1.25818720232572     -2.06563393190822     -0.29175584114190
  C   -1.17908638387151      1.19210694106733      1.10358974378180
  N   -1.66302289828611      2.10513664183644      1.66794891866613
  N   1.44763755186745      1.17170413902671     -0.16473386060381
  O   1.33918183923218      1.92984913779417      0.79044174330447
  O   2.25657372161998      1.26604472285387     -1.08534130254740
  N   1.08323196394027     -1.01895213061099     -0.90872273545283
  H   1.88028541732523     -0.79648065577419     -1.48644794212338
  H   0.49454026154157     -1.81119487886053     -1.11801990273483
