13
Coordinates from ORCA-job run
  C   -0.71339522875734      0.08931178285921      0.33934803309739
  C   0.55094337055943     -0.01321168951636     -0.19041741050705
  N   -1.63684264327392     -1.04112688832862      0.24444198312876
  O   -2.72883145649425     -0.91405878558590      0.78458712172283
  O   -1.26230235142256     -2.04956689429937     -0.36481941930951
  C   -1.26663454959797      1.23117841409993      0.97311395111133
  N   -1.79858382361902      2.14814957703700      1.48634198047275
  N   1.48399200148864      1.15408610167410     -0.07748773907208
  O   2.48348210335986      1.10315986977289     -0.79056464722178
  O   1.19493110860506      2.05299408229382      0.70049276183344
  N   1.12952510545644     -1.04665750836100     -0.80165299437968
  H   0.55658470357120     -1.84310575990895     -1.03568668257898
  H   2.00713166012444     -0.87015230173675     -1.26669693829739
