13
Coordinates from ORCA-job run
  C   -0.96322373631382      0.27371637352535      0.12028848313632
  C   0.39341747614731     -0.27132378585775     -0.14613962468262
  N   -1.25894764672044     -0.73173108321822      0.94881088952947
  O   0.08119201372808     -1.42002722167425      0.71363827691726
  O   -2.10540351642934     -1.15579224180851      1.66274902457523
  C   -1.73259884960629      1.40008782290685     -0.20254798098862
  N   -2.36678029415961      2.34835765838102     -0.49831557310122
  N   1.49695258256181      0.48108265075140      0.59352070050806
  O   1.14545357399310      1.21126949230787      1.51035252106645
  O   2.64484818828874      0.23379723445892      0.24339573226787
  N   0.79266460608782     -0.47949347144359     -1.45831901222675
  H   0.13440329135852     -1.05136529941003     -1.96923761880678
  H   1.73702231106414     -0.83857812891906     -1.51719581819469
