13
Coordinates from ORCA-job run
  C   -0.71571014742484      0.08596453516305      0.33555947245934
  C   0.55687547811494     -0.02666508384029     -0.16687623466718
  N   -1.64132054259501     -1.03997424828888      0.24120182512589
  O   -1.22212352409996     -2.09530487838403     -0.24719958928029
  O   -2.77876584063789     -0.86323249262344      0.66052246132623
  C   -1.27863525616390      1.26297063116442      0.89244580269586
  N   -1.80226320847846      2.21673154374081      1.34229848935811
  N   1.46176391056469      1.15809142199700     -0.08760322678737
  O   1.27850771901066      1.96044791110877      0.81900597695082
  O   2.34133149050320      1.20937059944848     -0.94451840616213
  N   1.17057359288140     -1.08014846213168     -0.70934112961487
  H   2.02078951356918     -0.89594491403105     -1.22083999751857
  H   0.60897681475599     -1.89330656332317     -0.91365544388584
