13
Coordinates from ORCA-job run
  C   -0.76078050835875     -0.00018712823125      0.22630022830269
  C   0.57312984534234     -0.14272553471056     -0.00500922367016
  N   -1.70399589369887      0.70825785325037     -0.65629636177433
  O   -2.06999817399476      0.11054877221680     -1.66016581104191
  O   -2.08072497611423      1.80561250685152     -0.26157258202796
  C   -1.33290659158195     -0.58686245935688      1.37854219342748
  N   -1.73705657509026     -1.10790093668257      2.35579146967890
  N   1.22420063473423      0.53963224007398     -1.14642389995242
  O   2.42297031693689      0.31563170110449     -1.29940907718646
  O   0.53078694708326      1.28741682291201     -1.82736977625245
  N   1.42276096297019     -0.91279583490963      0.70779423801717
  H   2.40686360902056     -0.72193248317162      0.60384652052891
  H   1.10475040275135     -1.29469551934665      1.58497208195055
