13
Coordinates from ORCA-job run
  C   -0.79824265235177     -0.13870387437647      0.12497554118024
  C   0.55313204728698      0.01075699596816      0.11229819996276
  N   -1.64634913707984      0.15401299343627     -1.02658070435057
  O   -1.24245618564354      0.99029431623542     -1.82780885236469
  O   -2.71276091215427     -0.45209523715322     -1.07347071565662
  C   -1.44080514178271     -0.56538852351245      1.31304103617760
  N   -1.86737154408237     -0.90818171020658      2.35608934958321
  N   1.28604666761211      0.34609046113606     -1.12791110414623
  O   2.06365342318922      1.29229576220436     -1.03758822136456
  O   1.10490654053056     -0.38192291037377     -2.09348223444871
  N   1.39478154235712     -0.22715459894382      1.13848640570420
  H   2.30654591775249      0.20102530197018      1.08063531437416
  H   0.99991943436599     -0.31902897638414      2.06331598534920
