13
Coordinates from ORCA-job run
  C   -0.76897856438124      0.17244891478659      0.10289005775060
  C   0.56562201677964     -0.05144032940364     -0.12701546215715
  N   -1.72346022385738     -0.92845920065674     -0.00156789253300
  O   -1.29600679290657     -2.03497918372222     -0.34938164004213
  O   -2.89360994872828     -0.67851059491817      0.26109612165995
  C   -1.33686413452086      1.40295936059380      0.52151655717243
  N   -1.85962593139729      2.39142208468629      0.89034972375891
  N   1.51647247687425      1.08975026917932      0.02597569383885
  O   2.67087196572180      0.78067011161044      0.31286692112864
  O   1.08973595401074      2.22151626257006     -0.16449772766491
  N   1.18977276734223     -1.16359196030324     -0.52008288234688
  H   2.19289557995083     -1.18372472985084     -0.41148011781988
  H   0.65317483511211     -2.01806100457167     -0.53866935274544
