13
Coordinates from ORCA-job run
  C   -0.76340894769383      0.12483751603187      0.26952581466058
  C   0.45564274349839      0.06387060149458     -0.32929368878275
  N   -1.08506527252734     -0.58525411241369      1.50484797440361
  O   -0.48690456778755     -1.63264798337766      1.72700653780158
  O   -1.95722275502951     -0.07572484300154      2.20245865605958
  C   -1.80159399610075      0.87403553380725     -0.33592753398605
  N   -2.59187791969554      1.51078861063603     -0.93386698439892
  N   1.60289448472149     -0.61011260434752      0.31763770284763
  O   2.22350550908578     -1.39249581549730     -0.39745318591987
  O   1.86529857923452     -0.28183635400388      1.46605394786914
  N   0.81721039363205      0.67366879803377     -1.47652354798660
  H   1.63573199056304      0.30596645510978     -1.93841368595845
  H   0.08478975809924      1.02590419752831     -2.07605200660947
