13
Coordinates from ORCA-job run
  C   -0.76330796396708      0.17416356856811      0.12554171573921
  C   0.57556546103826     -0.04772388666077     -0.09803693037187
  N   -1.71418342873485     -0.93147101791473     -0.01848946201304
  O   -2.90553065015563     -0.64679467163073      0.00288732462611
  O   -1.26234526263270     -2.07162652644964     -0.16592212826616
  C   -1.36588062704530      1.39327470151820      0.52206257138397
  N   -1.94293187201853      2.36115286900964      0.86622406979223
  N   1.53185639128751      1.10051612965977      0.01098220431345
  O   1.07558883783237      2.21751173317870      0.21474085116847
  O   2.72149347684991      0.81816908154083     -0.10537588154083
  N   1.18773763554269     -1.17324976994297     -0.46590629528224
  H   2.19590628951085     -1.16026224732553     -0.49227187287909
  H   0.66603171249248     -2.03365996355087     -0.39743616667020
