13
Coordinates from ORCA-job run
  C   -0.78185284123537      0.09452082923940      0.24868683401686
  C   0.53192047120552     -0.16870934281758     -0.00185256712304
  N   -1.65927573924171      0.79248885789380     -0.68335367061303
  O   -2.55052099123534      1.46517220130533     -0.17411982274422
  O   -1.45240956024617      0.63765880686648     -1.88223133724817
  C   -1.33741331018529     -0.35816590728406      1.47090068001408
  N   -1.66663407073906     -0.80910766797793      2.50798383591273
  N   1.25128507134835      0.46130373401221     -1.13834689667916
  O   1.00335355448106      1.63829773235789     -1.36580909416187
  O   2.08094546871101     -0.24720521713531     -1.70320093497833
  N   1.32504413668480     -0.95536177616073      0.73624607814513
  H   0.95336180719442     -1.52514756036130      1.48025659313267
  H   2.30219600325778     -1.02474468993820      0.50584030232634
