13
Coordinates from ORCA-job run
  C   -0.74655328896940      0.14416941357589      0.23021746010698
  C   0.54225958311985     -0.02180846211486     -0.21219655539038
  N   -1.71356273564750     -0.94209390547035      0.09014950908286
  O   -1.34849721197605     -1.97258207791593     -0.48632689924385
  O   -2.83260577498322     -0.75484167519862      0.55216427787899
  C   -1.24321090271050      1.28485119570656      0.91188301336223
  N   -1.70283802415626      2.19471636573289      1.50102603717775
  N   1.51489478065462      1.09367867813514     -0.01300933739819
  O   2.69680411577904      0.76028356974816      0.04117256237860
  O   1.07486751366815      2.23392209428344      0.05847668770840
  N   1.09639392801947     -1.04854575596429     -0.86127886595343
  H   0.55679533221349     -1.89853557409894     -0.93086564311195
  H   2.10525268498832     -1.07421386641907     -0.88241224659801
