13
Coordinates from ORCA-job run
  C   -0.66474401476907      0.12722530908225      0.42576990147316
  C   0.45763864347033      0.06759074653367     -0.33884772683847
  N   -1.50613049218651     -1.07914215718681      0.43200765639351
  O   -1.78151971094451     -1.58061198504540     -0.65879231222398
  O   -1.85075928795679     -1.49156250312385      1.53445108831149
  C   -1.11682955820112      1.18107993196462      1.24931329213316
  N   -1.53751890116041      2.05612906223912      1.91874775349312
  N   1.47669639613376      1.14146532887932     -0.20840552245110
  O   1.10035816513913      2.24003877876586      0.18304726501112
  O   2.62929448836872      0.81537920326999     -0.48418044454751
  N   0.80266356678341     -0.84342753478818     -1.27035281624554
  H   0.19533866937727     -1.63154523494295     -1.43050925201515
  H   1.79651203594579     -1.00261894564763     -1.35124888249380
