13
Coordinates from ORCA-job run
  C   -0.69720646798143      0.06263988803229      0.37490494055982
  C   0.55344062490925     -0.02967208017073     -0.18150317740624
  N   -1.68541483221262     -0.98640673527349      0.12837734668895
  O   -2.80894878593982     -0.81321198413052      0.58398949890240
  O   -1.32573961890884     -1.98036087347558     -0.51220938714533
  C   -1.18743450463074      1.16973260401913      1.11403880820314
  N   -1.66650183639728      2.06075151799567      1.71612732707786
  N   1.51025212105143      1.09413813514423      0.03986091669265
  O   1.41464170391321      1.73269682159799      1.08005576212787
  O   2.34093714006690      1.26167143207856     -0.85068177510405
  N   1.10642259949190     -1.01640762454475     -0.89005902748569
  H   0.50380838725215     -1.76594294261374     -1.19523781499079
  H   1.94174346938588     -0.78962815865906     -1.40866341812059
