13
Coordinates from ORCA-job run
  C   -0.76703522667162      0.02728255218307      0.23861296013016
  C   0.56221753218265     -0.13347791343968      0.01054983625324
  N   -1.67658705927690      0.73311630027691     -0.67569795854359
  O   -2.54425095489466      0.02894591886514     -1.18520400975474
  O   -1.51448188018231      1.93924967940872     -0.81430131655259
  C   -1.34470807982412     -0.53848319431289      1.39948444786357
  N   -1.72282748333754     -1.04602830893149      2.39410156003556
  N   1.19713309420784      0.41512681933526     -1.19592346291669
  O   2.38005969945073      0.73311432162469     -1.08042589241911
  O   0.51599474170715      0.49035566848958     -2.21307086199572
  N   1.41687845082864     -0.86871546988615      0.76396386542066
  H   1.10291527677338     -1.15070504604700      1.68047601249607
  H   2.39569188903677     -0.62878132756616      0.67543481998318
