13
Coordinates from ORCA-job run
  C   -0.69034711040447      0.08151045940429      0.38169397039444
  C   0.51641634196380      0.03433341859823     -0.27171714876891
  N   -1.63466608637474     -1.01961272173203      0.22622771230820
  O   -2.47898576954862     -1.15580749191683      1.10456623697561
  O   -1.52481791047468     -1.74308622213137     -0.77110674822247
  C   -1.15008780480175      1.10687414263030      1.24410930325390
  N   -1.61642068010765      1.93149561788986      1.94644530039310
  N   1.54037205436186      1.07658472664059      0.02223883180323
  O   2.69047591289275      0.79624857519043     -0.30255916535109
  O   1.16817660371204      2.11437228933399      0.55418523349158
  N   0.95586047630677     -0.86165201611192     -1.15206139793665
  H   1.91323695863790     -0.81669649634466     -1.46380862156503
  H   0.30978701383682     -1.54556428145090     -1.51721350677592
