13
Coordinates from ORCA-job run
  C   -0.77342047284957      0.17338475361282      0.07166835536527
  C   0.56849172482960     -0.05216639976884     -0.10939330869338
  N   -1.72124140024530     -0.92859372729495     -0.04747215056771
  O   -2.88580508854354     -0.70060111034507      0.25707084838046
  O   -1.29527787285067     -2.01565863971930     -0.45638229079489
  C   -1.35043526906283      1.40925874785757      0.46321093000896
  N   -1.88118872599624      2.40329198118105      0.80395432729697
  N   1.51355109733245      1.08838395865413      0.07733763390737
  O   2.64853421779190      0.77807862087790      0.43155827774763
  O   1.10188505296074      2.21929430951052     -0.14715893134882
  N   1.20609632058509     -1.16381262821447     -0.48423367020845
  H   2.20129492729985     -1.19538552924231     -0.31858855523254
  H   0.66751548874854     -2.01547433710906     -0.54057146586088
