13
Coordinates from ORCA-job run
  C   -0.72901317458290      0.11730596277710      0.29180223213053
  C   0.56703024568872     -0.05628920237709     -0.12347136433809
  N   -1.71217481557053     -0.94483331296450      0.08794335831579
  O   -2.86802511938274     -0.70512436444551      0.41455420763833
  O   -1.31869528850082     -2.01335040665918     -0.39336109417235
  C   -1.26314014313643      1.31326798193102      0.83606725026056
  N   -1.76959751514765      2.28812029334144      1.26052811105941
  N   1.53088166206803      1.06619088221341      0.06599932286586
  O   2.45820985683012      1.10803042027442     -0.73907091265923
  O   1.34631814714425      1.82461151229542      1.00903757229044
  N   1.15642393085641     -1.12750093446881     -0.65993007896660
  H   2.04141626215096     -0.97520918229940     -1.12003312125525
  H   0.55936595158257     -1.89521964961831     -0.93006548316940
