13
Coordinates from ORCA-job run
  C   -0.75197721198466      0.14669147077625      0.21108208366393
  C   0.54724746080103     -0.02565101490405     -0.19766250085765
  N   -1.71505787333230     -0.94128425423688      0.06440610242031
  O   -1.33705222766613     -1.97856068688786     -0.49188285764691
  O   -2.84356881788691     -0.74988792584509      0.50102123230051
  C   -1.26325630199327      1.29819767912071      0.86306964205699
  N   -1.73612735706128      2.21791273024717      1.42594817426453
  N   1.51304324846538      1.09497188574272      0.00542961536775
  O   1.07096582858913      2.23639988512116      0.03177296957228
  O   2.69195849441581      0.76341324711477      0.10924580090134
  N   1.11839051054396     -1.06364631708464     -0.81159395837756
  H   0.57916426395051     -1.91311155856477     -0.88993541649732
  H   2.12726998315873     -1.08644514059947     -0.82090088716821
