13
Coordinates from ORCA-job run
  C   -0.74635208921016      0.11099003126146      0.25009144158232
  C   0.57113437062976     -0.04499586950391     -0.10180217024904
  N   -1.68603896040104     -0.99324098120444      0.07493611951634
  O   -2.85665886041218     -0.78056502567587      0.36693929048616
  O   -1.24513082580118     -2.06736369393979     -0.34905719270796
  C   -1.33464331918828      1.31516399788276      0.71500999706430
  N   -1.87716872674223      2.29386072786220      1.08106924889130
  N   1.49268958121296      1.11803115907039      0.05860952777032
  O   1.23902300189798      1.93402574866929      0.93551079953696
  O   2.45567453419726      1.13798858113035     -0.70495098464910
  N   1.21334475288195     -1.12489185611914     -0.55159684156969
  H   0.65560871155171     -1.92653538426626     -0.80596428727573
  H   2.11951782938344     -0.97246743516704     -0.96879494839619
