13
Coordinates from ORCA-job run
  C   -0.69284149437814      0.08436671073561      0.37854121766512
  C   0.52848084141814      0.01158401606334     -0.24958017950535
  N   -1.64082048635696     -1.02565279884428      0.22881542536678
  O   -1.46968581590039     -1.81983877678222     -0.70484299640030
  O   -2.55291314331536     -1.08093578708259      1.04146864002706
  C   -1.15972859624870      1.12218428149537      1.21792707614038
  N   -1.61206975902846      1.96925380391830      1.89917967824597
  N   1.54240174934042      1.07856423050347      0.00467135597239
  O   1.19472573275364      2.07713150005504      0.62418336620120
  O   2.66172727983937      0.87047804724519     -0.45930831334332
  N   1.01522428586941     -0.96851828302068     -1.02820653316482
  H   0.31334590491407     -1.57705530454740     -1.43873699665031
  H   1.87215350109296     -0.74156163973914     -1.51311174055482
