13
Coordinates from ORCA-job run
  C   -0.69560898839813      0.06362345975648      0.38414111913124
  C   0.53621302186312     -0.01107380489878     -0.21904794823248
  N   -1.68055759642800     -0.99327108189487      0.16449387417219
  O   -2.74941111360352     -0.88906751318009      0.75577837190384
  O   -1.37483009088257     -1.92890391741857     -0.58344189394654
  C   -1.15104454372412      1.12718088262403      1.20438655038486
  N   -1.57634008026073      1.98934549818307      1.88336940923802
  N   1.52498853697139      1.08683955799788      0.01793720628141
  O   2.40090678167370      1.20419634059240     -0.83545186793785
  O   1.40492484614756      1.75791103602878      1.03464471790021
  N   1.04635328931697     -0.96970247612872     -0.99356721531490
  H   1.89015545740321     -0.74246508719450     -1.49774854224726
  H   0.42425047992112     -1.69461289446710     -1.31749378133275
