13
Coordinates from ORCA-job run
  C   -0.75096089406336      0.13771516973482      0.22044734369799
  C   0.54545403885822     -0.01930464695145     -0.20243255279249
  N   -1.70721910186775     -0.95572310605948      0.06816028600249
  O   -1.32157794263270     -1.98927366493010     -0.48986036329822
  O   -2.83834650167241     -0.77212463250342      0.50125471619560
  C   -1.26538985442732      1.27687063517465      0.89129617815548
  N   -1.73938986376800      2.18562253774354      1.47071633055131
  N   1.50289463943094      1.10860444467257      0.00077957499367
  O   1.04984388804149      2.24533195239580      0.04201542597916
  O   2.68602188080630      0.78780988927371      0.08832622161291
  N   1.12033592783191     -1.04654842564127     -0.83064640891379
  H   0.59015068048387     -1.90159347812470     -0.90878737338848
  H   2.12918310297882     -1.05738667478467     -0.85126937879562
