13
Coordinates from ORCA-job run
  C   -0.69465340055669      0.06340451715000      0.38270676122159
  C   0.54486686540449     -0.02594919474912     -0.20062568365754
  N   -1.69442924308886     -0.97252759971264      0.13799412636276
  O   -2.79394656481582     -0.81934518438857      0.65628295153575
  O   -1.37131467519022     -1.93510435972115     -0.56701744149201
  C   -1.15355731011079      1.14706225026312      1.17484480566144
  N   -1.59112363509604      2.03320010508712      1.81485349559759
  N   1.53093494515942      1.06785173219614      0.04816132663227
  O   1.44206609376704      1.69184483619983      1.09779055706822
  O   2.37425476555741      1.22859740718797     -0.83117048805992
  N   1.06266555303358     -0.99224762749922     -0.96117354451494
  H   0.43997715436894     -1.71873734938175     -1.28183847946956
  H   1.90425945156755     -0.76804953263172     -1.47080838688566
