13
Coordinates from ORCA-job run
  C   -0.74870738758199      0.14881053886042      0.21969738422944
  C   0.54825396643199     -0.02534766220637     -0.19604817339115
  N   -1.72969024452110     -0.91588217703997      0.02073979848313
  O   -2.86438441180905     -0.71280574761600      0.43528600562370
  O   -1.35873432051763     -1.94625030717252     -0.55265087268255
  C   -1.24719022732282      1.27863604256438      0.91749447682984
  N   -1.71146190166157      2.17655049694591      1.52134011149774
  N   1.53096171279861      1.07176679803070      0.05185015311975
  O   2.70766604002527      0.72262733279476      0.11474620852569
  O   1.10330448001316      2.21444990591660      0.15335654855881
  N   1.10383912481693     -1.04705631012896     -0.84941447776987
  H   0.55507733169431     -1.88617829379775     -0.96261206681760
  H   2.11206583763388     -1.07832061715119     -0.87378509620693
