13
Coordinates from ORCA-job run
  C   -0.70217000369008      0.06741907221216      0.36395433659439
  C   0.55293593717507     -0.02632974025741     -0.18198373446202
  N   -1.67477441879659     -1.00089635966056      0.14849197363238
  O   -2.80702166083320     -0.81895265860415      0.57945220986153
  O   -1.29688164100958     -2.01699940729576     -0.44483600426054
  C   -1.20208154090526      1.18219954759322      1.08499042518405
  N   -1.67818643772076      2.08630856030142      1.66970246597404
  N   1.49829922292191      1.10921533722735      0.01673162798507
  O   1.39843815560084      1.76368346928796      1.04653887826322
  O   2.32304494524762      1.27185423835095     -0.88028687009737
  N   1.11705203820355     -1.02561442863856     -0.86473477593013
  H   0.52365087517961     -1.79252076570315     -1.14545630774713
  H   1.94769452862688     -0.79836686481347     -1.39156422499750
