13
Coordinates from ORCA-job run
  C   -0.74043920506148      0.03804706849546      0.27073439424927
  C   0.59059811135091     -0.07113835256830      0.00616843266102
  N   -1.72835312258560      0.59287020511551     -0.65788911205444
  O   -2.66785599751553      1.16324127732837     -0.11610218239415
  O   -1.58462939858956      0.41222947557766     -1.86025377324096
  C   -1.29985650847596     -0.51628727722211      1.45504781473163
  N   -1.67332502453845     -1.10407207912730      2.40531998167514
  N   1.18264615177148      0.52910773484876     -1.19969644907788
  O   0.78586075359363      1.65128158913240     -1.49117719063363
  O   2.03826863136369     -0.13206797149623     -1.78530905070102
  N   1.46872651480125     -0.75024239856409      0.75044975679933
  H   1.16910809293647     -1.15472431819069      1.62565269892735
  H   2.46025100094916     -0.65824495332945      0.59905467905834
