13
Coordinates from ORCA-job run
  C   -0.70672688567597      0.08768079740272      0.35295240026291
  C   0.55275564865075     -0.04716835168020     -0.17590474645370
  N   -1.73643331553473     -0.90342290019502      0.05215921563686
  O   -2.85199619098489     -0.70831542117751      0.51947083217351
  O   -1.42072823818110     -1.87298657194959     -0.64666039715201
  C   -1.15630585446826      1.18152261305331      1.13642063400305
  N   -1.58863173488588      2.07289535719367      1.77265188161213
  N   1.56830707410252      1.00575594313602      0.12443800904727
  O   1.45345315213639      1.63058456819759      1.17113399617261
  O   2.45868234292193      1.13598440213024     -0.71255975400517
  N   1.06503070088441     -1.02753598495070     -0.92200399416148
  H   0.42834188690348     -1.72507346116123     -1.27773992695632
  H   1.93425141413134     -0.82992098999930     -1.39535815017967
