16

C	-0.470346	-0.079659	-1.439164
C	0.0	0.0	0.0
Cl	0.06986	-1.519607	-2.292853
H	1.102195	0.0	0.0
H	-0.365743	0.932503	0.424843
N	-2.011296	-0.035993	-1.436678
O	-2.48455	0.997383	-0.967173
O	-2.658116	-0.983618	-1.862319
C	0.042544	1.147497	-2.173091
H	-0.327295	2.053492	-1.69345
H	1.133152	1.126014	-2.125048
H	-0.281842	1.123591	-3.215147
N	-0.530939	-1.06398	0.887522
O	-0.331465	-2.237015	0.585676
O	-1.131861	-0.686834	1.897397
Cl	3.276369	0.0	0.0
