16

C	-0.438054	0.005126	-1.452426
C	0.0	0.0	0.0
Cl	-0.258277	-1.679706	-2.032487
H	1.101566	0.0	0.0
H	-0.388492	-0.850981	0.550321
N	-1.937449	0.286767	-1.550935
O	-2.345683	0.85375	-2.557532
O	-2.63455	-0.116334	-0.625053
C	0.359731	0.918661	-2.348318
H	0.164753	1.953648	-2.075742
H	0.094638	0.758575	-3.391797
H	1.415468	0.693365	-2.179515
N	-0.45035	1.205833	0.739771
O	-0.788047	2.20235	0.099885
O	-0.434809	1.129113	1.963233
Cl	3.286974	0.0	0.0
