16

C	-0.438921	0.286009	-1.424298
C	0.0	0.0	0.0
Cl	-0.313734	-1.265692	-2.309982
H	1.101809	0.0	0.0
H	-0.393781	-0.937081	0.380797
N	-1.928786	0.626353	-1.460149
O	-2.634801	0.108485	-0.601206
O	-2.323547	1.352723	-2.365026
C	0.384012	1.328087	-2.139425
H	1.433585	1.046123	-2.026824
H	0.224941	2.297388	-1.671186
H	0.108967	1.379153	-3.191459
N	-0.437132	1.048202	0.957098
O	-0.707811	2.169191	0.525058
O	-0.470602	0.724751	2.138559
Cl	3.288092	0.0	0.0
