14
Coordinates from ORCA-job run
  C   -1.13530404193326      0.23247841821116     -0.19263070627335
  C   0.19607890557696     -0.51510486240460      0.05495384534074
  H   -0.99412504113691      0.96677316223561     -0.99356539698176
  H   0.02600046349578     -1.23677579006329      0.86154832788345
  H   -1.90054862836754     -0.47413965102275     -0.52927150877077
  C   -1.62439340070244      0.91867477325404      1.00169386830305
  N   -1.98287762894462      1.45099267583009      1.98439614020560
  C   1.29453343864587      0.44688579873171      0.47815369333683
  H   1.47835467892807      1.18539860182689     -0.30980661850165
  H   2.21879197772780     -0.10660292689035      0.64722702413072
  H   1.02970513013776      0.98407296820104      1.39061257144223
  N   0.64184138928268     -1.27110561247440     -1.10808363916276
  H   -0.06431686011134     -1.93688530729137     -1.39954359860630
  H   0.81625961740121     -0.64366224814378     -1.88568400234603
