14
Coordinates from ORCA-job run
  C   -1.22181484317496      0.26150074694375     -0.15580529806359
  C   0.09019776167628     -0.51843837385726      0.01238874953696
  H   -1.11710876308726      0.98577435755962     -0.97186482961170
  H   -0.06671162178787     -1.25998405036253      0.80332348821415
  H   -2.01357494976923     -0.43556145377937     -0.43964809326834
  C   -1.60669615465674      0.97558718083573      1.05943230564370
  N   -1.89064522788678      1.53301201530530      2.05228606164971
  C   1.24416518019446      0.39808343290151      0.41085774122202
  H   1.40324877975600      1.16150680365312     -0.35824909023769
  H   2.16750840101354     -0.17831233641270      0.50992646757577
  H   1.05623897890863      0.90504207993611      1.36061182262241
  N   0.30095033356491     -1.26210328177458     -1.22954875101455
  H   0.61356522061182     -0.62400123964089     -1.95466628301724
  H   1.04167690463720     -1.94110588130780     -1.09804429125161
