14
Coordinates from ORCA-job run
  C   -1.17666126894145      0.35792711546704     -0.03855665345107
  C   0.13541853340763     -0.43078340618366     -0.15372248340341
  H   -1.05087548356216      1.32071021961882     -0.54217937510154
  H   0.00582313510799     -1.38163150792312      0.38704795383141
  H   -1.98423411360705     -0.17373117412910     -0.55236181174552
  C   -1.56991839194637      0.57222858595541      1.35230874562837
  N   -1.85721973365368      0.72731630312945      2.47942129064840
  C   1.29162082340831      0.33244907884358      0.47018901922587
  H   2.21740744719004     -0.24491183289734      0.39546282939916
  H   1.10959023753511      0.53546670207862      1.52713487505371
  H   1.43582148610840      1.27885135826765     -0.05703936644110
  N   0.39364689752293     -0.61387259326745     -1.58124194152538
  H   -0.26869019424255     -1.27330576671266     -1.97463355108260
  H   1.31827062567285     -1.00771308224724     -1.71182953103630
