14

C	0.0	0.0	0.0
C	-0.38922	0.002322	-1.523111
Br	1.952454	0.0	0.0
H	0.537983	-0.190939	-2.070687
H	-0.361076	0.895305	0.501093
C	-0.396443	-1.195105	0.735831
N	-0.540648	-2.186235	1.351505
C	-0.891417	1.374952	-1.966187
H	-1.039199	1.383963	-3.048786
H	-1.832621	1.591073	-1.465132
H	-0.137861	2.129091	-1.716694
C	-1.249321	-1.106371	-1.9474
N	-1.716867	-2.048897	-2.471389
Cl	-3.102846	0.0	0.0
