14

C	0.0	0.0	0.0
C	-0.179889	-0.314371	-1.588666
Br	1.948386	0.0	0.0
H	0.479365	0.44722	-2.016428
H	-0.401275	0.972542	0.260504
C	-0.451306	-1.081192	0.859392
N	-0.612386	-2.050487	1.505393
C	-1.461067	-0.277179	-2.466433
H	-2.264593	0.284466	-2.008569
H	-1.150833	0.215545	-3.408312
H	-1.840166	-1.270956	-2.69456
C	0.461771	-1.604851	-1.86958
N	0.891802	-2.660371	-2.156182
Cl	-3.104465	0.0	0.0
