14

C	0.0	0.0	0.0
C	-0.385929	-0.447216	-1.45534
Br	1.952702	0.0	0.0
H	0.533796	-0.831585	-1.906677
H	-0.361383	1.001803	0.216889
C	-0.391042	-0.928398	1.0545
N	-0.526251	-1.692391	1.937209
C	-0.83869	0.74794	-2.291978
H	-1.777694	1.125738	-1.89142
H	-0.980039	0.443073	-3.331678
H	-0.068691	1.524954	-2.26024
C	-1.294581	-1.595389	-1.552015
N	-1.77484	-2.619104	-1.877029
Cl	-3.067735	0.0	0.0
