12
Coordinates from ORCA-job run
  C   0.99165649372908      0.26944633343129     -0.02633766517163
  C   -0.49117046542878      0.14257674209043      0.41309256763089
  H   1.04313755412171      0.76378767919336     -1.00122948361739
  H   -0.51139768011684     -0.29605042734245      1.41630640627053
  H   1.55607964039058      0.87883796404939      0.68588714583145
  C   1.58808949703778     -1.05998966353521     -0.12375134041982
  N   2.01000604672916     -2.15310635320615     -0.18986451881889
  N   -1.33868922519319     -0.67163385590065     -0.43617632280338
  H   -1.02773326839315     -1.63542538544820     -0.42055291706097
  H   -1.32047936141339     -0.33846102288360     -1.39270465271099
  C   -1.04905864148923      1.49926919748057      0.51172855778905
  N   -1.45044058997373      2.60074879207121      0.56460222308114
