12

C	0.0	0.0	0.0
C	-0.476336	-0.014807	-1.431971
F	1.379498	0.0	0.0
H	-0.074242	-0.863562	-1.981845
H	-0.365045	0.892186	0.506548
H	-1.574673	0.004776	-1.429688
C	-0.417611	-1.209442	0.728125
N	-0.540898	-2.200044	1.345644
N	0.016866	1.204977	-2.129125
O	0.039405	2.259864	-1.499493
O	0.336554	1.083372	-3.311101
Cl	-3.343178	0.0	0.0
