12

C	0.0	0.0	0.0
C	-0.469148	0.026389	-1.437216
F	1.377399	0.0	0.0
H	-0.15141	0.952978	-1.914835
H	-0.375069	0.897947	0.494542
H	-1.562743	-0.065298	-1.459887
C	-0.425746	-1.181011	0.773649
N	-0.651073	-2.123001	1.434817
N	0.130366	-1.062603	-2.260782
O	0.460659	-2.109222	-1.710717
O	0.223069	-0.839696	-3.467338
Cl	-3.353397	0.0	0.0
