12

C	0.0	0.0	0.0
C	-0.465741	0.034833	-1.437467
F	1.377767	0.0	0.0
H	-0.171528	0.976365	-1.900465
H	-0.373638	0.894759	0.50068
H	-1.555535	-0.087397	-1.464973
C	-0.422561	-1.18459	0.769625
N	-0.647805	-2.13153	1.423535
N	0.175825	-1.024898	-2.265337
O	0.444698	-2.100714	-1.738678
O	0.364477	-0.753863	-3.450727
Cl	-3.341056	0.0	0.0
