12

C	0.0	0.0	0.0
C	-0.481848	0.047585	-1.432534
F	1.377843	0.0	0.0
H	-0.204478	0.994229	-1.893385
H	-0.377123	0.887124	0.511276
H	-1.572703	-0.079812	-1.438211
C	-0.42432	-1.193439	0.755362
N	-0.631259	-2.134844	1.425222
N	0.144748	-1.005693	-2.277288
O	0.307526	-0.727738	-3.465686
O	0.425153	-2.084004	-1.762458
Cl	-3.356515	0.0	0.0
