13
Coordinates from ORCA-job run
  C   1.15744699508788     -0.30213223934069     -0.52862653404815
  C   -0.15936988383349     -0.34791709687072      0.22356287170223
  F   2.16249502782080     -0.85478393680004      0.26451798989692
  H   -0.38013625564774     -1.40276529421668      0.42439867838805
  H   1.11781056823692     -0.87685375518932     -1.45878676205655
  H   1.44206001152471      0.73298270283198     -0.74597126274075
  C   -1.27545579091498      0.24225456171526     -0.62384100497823
  H   -1.39151557810878     -0.29295822517334     -1.56932558987278
  H   -1.07215629855837      1.29366479124394     -0.85305284874787
  H   -2.21625676470197      0.19333613882330     -0.07485771283250
  N   -0.11156560903480      0.32829866107685      1.51640940390650
  H   0.05736562942126      1.31888597324904      1.37294890856112
  H   0.67027794870855     -0.03301228134959      2.05062386282199
