13
Coordinates from ORCA-job run
  C   1.16999613847351     -0.38792682041047     -0.48122679773176
  C   -0.16747989535689     -0.36491033871129      0.23982561720241
  F   1.56819861592540      0.92011594118067     -0.75861871246387
  H   -0.43080158725320     -1.40933287516160      0.45109195508632
  H   1.11332140373271     -0.92593978487500     -1.43247000142146
  H   1.94601688369490     -0.83636609859317      0.14655723067327
  C   -1.25276181942382      0.25049712636458     -0.63325262212676
  H   -1.36617132541553     -0.29766440328352     -1.57193062801809
  H   -2.20297833027367      0.24217917075036     -0.09912678547328
  H   -1.00130890217771      1.28544357082113     -0.87576784130124
  N   -0.12546744977630      0.34327150849444      1.51827995497311
  H   0.21244971673141      1.28512410288113      1.35290259979976
  H   0.53598655111919     -0.10349109945727      2.14373603080158
