16

C	0.0	0.0	0.0
C	-0.465033	0.293145	-1.492936
Cl	1.822309	0.0	0.0
H	0.452199	0.395469	-2.07991
C	-0.316212	1.115236	0.919022
N	-0.500878	1.908887	1.766438
N	-0.518314	-1.249129	0.468517
H	-0.257384	-1.358068	1.443388
H	-1.543858	-1.052895	0.426248
N	-1.17175	1.558138	-1.49592
H	-2.016258	1.353594	-0.946162
H	-1.466444	1.71253	-2.454517
N	-1.263774	-0.763527	-2.085994
H	-2.117061	-0.757408	-1.517246
H	-0.808514	-1.658595	-1.937264
F	-2.824451	0.0	0.0
