16

C	0.0	0.0	0.0
C	-0.496636	0.021973	-1.495642
Cl	1.782623	0.0	0.0
H	0.398275	0.054113	-2.123068
C	-0.314353	1.292429	0.671348
N	-0.475164	2.212908	1.384678
N	-0.516674	-1.102532	0.755584
H	-0.258468	-0.953452	1.727015
H	-1.54068	-0.94385	0.673806
N	-1.220788	1.272904	-1.699987
H	-2.080109	1.13615	-1.147106
H	-1.473557	1.324813	-2.681982
N	-1.209291	-1.209983	-1.807092
H	-1.433839	-1.1662	-2.797001
H	-2.087858	-1.108915	-1.287643
F	-2.847578	0.0	0.0
