16

C	0.0	0.0	0.0
C	-0.467008	0.348011	-1.481194
Cl	1.822845	0.0	0.0
H	0.450567	0.466413	-2.064191
C	-0.322797	1.072673	0.96399
N	-0.493395	1.838128	1.840187
N	-0.506626	-1.27404	0.418928
H	-0.228929	-1.427265	1.383732
H	-1.532029	-1.080227	0.396368
N	-1.166823	1.615779	-1.43624
H	-1.466344	1.80169	-2.387678
H	-2.007632	1.391334	-0.891055
N	-1.274899	-0.683402	-2.107996
H	-2.124442	-0.684264	-1.531716
H	-0.819403	-1.584014	-1.979372
F	-2.799395	0.0	0.0
