16

C	0.0	0.0	0.0
C	-0.495744	-0.242748	-1.476725
Cl	1.78256	0.0	0.0
H	0.399627	-0.325444	-2.098497
C	-0.319179	1.38768	0.434866
N	-0.48905	2.426729	0.958242
N	-0.512188	-0.956545	0.938112
H	-1.535901	-0.813091	0.836279
H	-0.246359	-0.642666	1.867137
N	-1.217528	0.952753	-1.903218
H	-2.081225	0.913107	-1.342514
H	-1.459435	0.832959	-2.881927
N	-1.210227	-1.509256	-1.564477
H	-2.083994	-1.319584	-1.061306
H	-1.445113	-1.633666	-2.544996
F	-2.839763	0.0	0.0
