16

C	0.0	0.0	0.0
C	-0.478539	-0.127317	-1.46108
Cl	1.811985	0.0	0.0
H	-1.556591	-0.226007	-1.338622
C	-0.341156	1.368162	0.47926
N	-0.54347	2.460283	0.871839
N	-0.56285	-1.03828	0.793228
H	-0.349093	-0.853154	1.771017
H	-1.591944	-0.857846	0.658459
N	0.079337	-1.298556	-2.111162
H	1.014109	-1.080141	-2.414461
H	-0.482491	-1.514695	-2.918684
N	-0.069676	1.098971	-2.193558
H	-0.499949	1.90733	-1.733825
H	-0.507411	1.041197	-3.10589
F	-2.831181	0.0	0.0
