14

C	-0.331308	-0.075141	-1.493537
C	0.0	0.0	0.0
F	-0.126111	1.228281	-2.005236
H	1.091943	0.0	0.0
H	-1.387716	-0.287752	-1.69041
N	0.518979	-1.042191	-2.052782
H	1.475581	-0.884903	-1.719325
H	0.478558	-1.037914	-3.063195
N	-0.511584	-1.244547	0.648955
O	-1.703942	-1.257273	0.973627
O	0.268436	-2.181198	0.786671
C	-0.577624	1.156676	0.6523
N	-0.996512	2.110308	1.195171
H	2.674854	0.0	0.0
