14

C	-0.360488	-0.007903	-1.484369
C	0.0	0.0	0.0
F	-0.295431	1.350671	-1.900635
H	1.090486	0.0	0.0
H	-1.387208	-0.315283	-1.691225
N	0.571511	-0.825304	-2.140216
H	1.514982	-0.611407	-1.813884
H	0.49405	-0.760934	-3.144701
N	-0.445034	-1.230108	0.69938
O	-1.12299	-2.056914	0.081977
O	-0.065514	-1.35803	1.863625
C	-0.511335	1.134034	0.734873
N	-0.919787	2.052476	1.343522
H	2.583415	0.0	0.0
