14

C	-0.284518	0.087812	-1.484953
C	0.0	0.0	0.0
F	-1.641627	0.312058	-1.739412
H	1.092822	0.0	0.0
H	-0.066256	-0.88498	-1.932801
N	0.479515	1.184849	-1.990936
H	1.410447	1.130219	-1.568611
H	0.583818	1.096387	-2.992934
N	-0.419069	-1.266751	0.6009
O	-0.78498	-1.267568	1.779694
O	-0.261549	-2.285559	-0.080305
C	-0.507164	1.134976	0.73889
N	-0.908841	2.056843	1.34671
H	2.501781	0.0	0.0
