14

C	-0.392349	-0.030022	-1.460324
C	0.0	0.0	0.0
F	-1.752124	-0.427462	-1.58069
H	1.092707	0.0	0.0
H	0.189747	-0.803405	-1.959558
N	-0.164246	1.227672	-2.061106
H	-0.363493	1.189316	-3.050913
H	-0.731365	1.945481	-1.627503
N	-0.333143	-1.240718	0.679745
O	-0.587402	-1.201514	1.891656
O	-0.175784	-2.281696	0.029482
C	-0.533846	1.146173	0.695411
N	-0.923635	2.149568	1.171468
H	2.425631	0.0	0.0
