14

C	-0.423982	-0.077306	-1.462209
C	0.0	0.0	0.0
F	0.099022	-1.174089	-2.104881
H	1.09609	0.0	0.0
H	0.048551	0.791004	-1.945894
N	-1.857066	-0.130422	-1.602987
H	-2.293141	0.526005	-0.968468
H	-2.119192	0.115058	-2.5501
N	-0.433889	-1.111284	0.837087
O	-0.308596	-2.246745	0.371705
O	-0.773684	-0.863232	2.004597
C	-0.459346	1.259672	0.546791
N	-0.798374	2.333405	0.889428
H	2.456891	0.0	0.0
