14

C	-0.513242	0.024633	-1.447959
C	0.0	0.0	0.0
Cl	0.259137	-1.259519	-2.37696
H	1.095737	0.0	0.0
C	-1.966004	-0.103461	-1.52531
N	-3.134863	-0.228875	-1.550774
N	-0.137859	1.362293	-2.120921
O	-0.754736	1.616135	-3.148147
O	0.749911	2.016399	-1.596854
C	-0.450827	-1.237235	0.637346
N	-0.82826	-2.226529	1.146284
C	-0.51596	1.153959	0.735374
N	-0.931274	2.084181	1.320811
Br	3.273094	0.0	0.0
