14

C	-0.460715	0.029404	-1.469076
C	0.0	0.0	0.0
Cl	-2.229531	0.001845	-1.602799
H	1.096982	0.0	0.0
C	0.052487	1.208435	-2.155782
N	0.407911	2.194468	-2.689287
N	0.102133	-1.232866	-2.176469
O	-0.505632	-2.27465	-1.98574
O	1.112692	-1.062219	-2.83901
C	-0.484977	-1.181561	0.707973
N	-0.884479	-2.122502	1.287255
C	-0.455939	1.216189	0.667179
N	-0.810194	2.198052	1.206298
Br	3.248272	0.0	0.0
