16
Coordinates from ORCA-job run
  C   0.78991935626010     -0.12661751958062     -0.00940815686597
  C   -0.64694680330652     -0.06001382023315      0.55280251808793
  Cl  1.32410136589273     -1.88276301277015      0.09922360165185
  H   -0.60058010783949     -0.32319038857753      1.61663186234111
  N   0.78847001736255      0.20285113410054     -1.41035506488365
  H   0.75359457839908      1.21313681570339     -1.50134927770359
  H   1.62198294316503     -0.14538208536155     -1.86643563532574
  N   1.62986208307422      0.72770789607154      0.75997395639492
  H   1.63444227489556      0.47591082205202      1.74149780036080
  H   2.58094403563324      0.70924248051431      0.41161938827180
  C   -1.64241918613380     -0.97441329731877     -0.16243654249299
  H   -1.60569211358740     -0.78418483368221     -1.23426301639729
  H   -1.39940224278869     -2.01982671472505      0.02124858149814
  H   -2.65191470065699     -0.78038672109502      0.20376379016504
  C   -1.09282055889362      1.33332295609958      0.45097347721779
  N   -1.48354094147599      2.43360628880265      0.32751271767984
