16
Coordinates from ORCA-job run
  C   0.70994901974799      0.27322453168447     -0.17434896991245
  C   -0.64083221206430     -0.16137614609419      0.42729555433525
  Cl  0.52336974242790      1.85310498937535     -0.99671094798378
  H   -0.45356739877676     -1.13879316505796      0.89767111318695
  N   1.63782433783202      0.49018374557278      0.91199702969765
  H   2.52258750827443      0.84056746862931      0.56331903414424
  H   1.80028768355112     -0.38099277224395      1.40625296603937
  N   1.06898055717685     -0.68327910087865     -1.20829976600412
  H   1.33952462970750     -1.55645790850428     -0.76590747566050
  H   1.86295548219746     -0.33874577193389     -1.73624089291289
  C   -1.75984500217646     -0.32474051492091     -0.60217274785478
  H   -1.43102629778753     -0.98886376472627     -1.39956431502618
  H   -2.02199932991885      0.64138374983008     -1.03281710863254
  H   -2.64681726306578     -0.73965734591448     -0.12006114851346
  C   -1.05021940696415      0.75341064951702      1.49458048149242
  N   -1.46117205016146      1.46103135566556      2.33600719360483
