16
Coordinates from ORCA-job run
  C   0.84606991503688     -0.26241892199798      0.02574969209342
  C   -0.61797990360634     -0.07176301792361      0.50828419032410
  Cl  1.29054868341759     -1.97237258211677      0.39485474595011
  H   -0.62938020820254     -0.31914188157705      1.57555152482266
  N   0.90385765836654     -0.07432307361373     -1.39212158895942
  H   0.51338992361662      0.82903406475643     -1.64124950947515
  H   1.87489568760790     -0.10020418924542     -1.68245429870933
  N   1.82151283531601      0.54466727851497      0.72449193992004
  H   1.61789552786460      1.52833883526762      0.58111926212054
  H   1.82958661435960      0.34675782519825      1.71853341179347
  C   -1.65604457219771     -0.91877408702612     -0.23055822499524
  H   -1.42112661221521     -1.97565934875899     -0.11206851525643
  H   -2.65091294427134     -0.73120350455604      0.17820704559178
  H   -1.65590979643593     -0.68281695947012     -1.29373615295123
  C   -0.93326554809888      1.35478762863725      0.38381005529830
  N   -1.13313726055776      2.50609193391128      0.26058642243239
