16
Coordinates from ORCA-job run
  C   0.86921037047044     -0.10699033995702      0.01795843268704
  C   -0.59344641353146     -0.07941799060072      0.53349167040505
  Cl  1.47583739080163     -1.81406490346877      0.42841689914569
  H   -0.56611240753512     -0.42787741925061      1.57130408092806
  N   0.91606081765899      0.19458286168095     -1.35801588825832
  H   1.88054859248143      0.24663008121114     -1.66161997751874
  H   0.40949381079958     -0.47046161069200     -1.92526021180633
  N   1.77829435315336      0.78230652966642      0.68108504083586
  H   1.83825523739975      0.58113382635632      1.67051320219350
  H   1.47501564145109      1.73959488945321      0.53829959530416
  C   -1.57525286068442     -0.94159452991356     -0.26329068771971
  H   -1.72756552491561     -0.53330791972598     -1.26386878424987
  H   -1.20636091950747     -1.96507976225955     -0.33572596443228
  H   -2.54541501030628     -0.96003456653761      0.23606836124642
  C   -1.03977633545164      1.31626746286824      0.54950652866138
  N   -1.38778674228428      2.43731339116957      0.58213770257811
