16
Coordinates from ORCA-job run
  C   0.88644736705740     -0.16012067951549      0.13891433435920
  C   -0.61087085335181     -0.14320679024019      0.55743206622837
  Cl  1.46885824170045     -1.84983477998007      0.38242983019878
  H   -0.64529559233213     -0.45848256416688      1.60492207027968
  N   1.15740006525728      0.15949170253873     -1.24293181126054
  H   0.73101202565570     -0.49920508378338     -1.88249206081115
  H   0.83204009996890      1.09777724062158     -1.45041308035315
  N   1.61526384688352      0.67952718430624      1.04443832240237
  H   1.23908396584262      1.62185937921154      1.03534253882555
  H   2.58235443984829      0.71415907429532      0.74134524608321
  C   -1.52250621626895     -1.03106781653086     -0.29023760914652
  H   -2.54510826577539     -0.97890889027764      0.08676896695356
  H   -1.53388646869164     -0.70124675765658     -1.33057005977808
  H   -1.19063083416779     -2.06775379449022     -0.24589276700328
  C   -1.07045372080916      1.24590409737611      0.48073868008362
  N   -1.39670810081729      2.36910847829179      0.36820533293839
