16
Coordinates from ORCA-job run
  C   0.89540883067001     -0.14202299370322      0.10049897649067
  C   -0.58326778452068     -0.16430766064736      0.58046971354343
  Cl  1.52425517647692     -1.82134536942264      0.29420934133617
  H   -0.56753669605369     -0.49657063407232      1.62314637166979
  N   1.10141410938192      0.20266633097312     -1.28672327409172
  H   0.66770877487791     -0.46039145079833     -1.91690391763124
  H   0.74137374983717      1.13363460578785     -1.46893747951293
  N   1.64267907146405      0.70086560842623      0.98770687368026
  H   2.59506393967491      0.76260068789808      0.64516214549270
  H   1.24530224964216      1.63410963381675      1.00967100334083
  C   -1.50988622313841     -1.05844173242492     -0.24409219523561
  H   -1.57377174523653     -0.71026693307096     -1.27648723152207
  H   -1.15217974143226     -2.08744656148558     -0.23358839001122
  H   -2.51613668138180     -1.03799459809631      0.17733474019865
  C   -1.07588464165172      1.21495906887811      0.54578959151184
  N   -1.43454238860996      2.33095199794148      0.46474373074048
