16
Coordinates from ORCA-job run
  C   0.72550732313895      0.13844157942737     -0.17201882298232
  C   -0.65231257507277     -0.23318437211771      0.41669104810853
  Cl  0.55998811091221      1.77357483563363     -0.99361157548086
  H   -0.51425165782259     -1.25359134472275      0.79554298950383
  N   1.70035463095273      0.14786161597537      0.86517496024241
  H   1.46141383524853      0.79127669260773      1.61147107697049
  H   2.60893032686946      0.40066534669547      0.49477039876906
  N   1.05671369386124     -0.80570905773385     -1.21449443221213
  H   1.64582588103336     -0.37942774267665     -1.91712343835887
  H   1.55217164356589     -1.58156981286253     -0.78913675411795
  C   -1.79019371505425     -0.22719114922638     -0.60195811689884
  H   -1.47697964202034     -0.79049954606045     -1.48012141850605
  H   -2.04515458838299      0.78927972187857     -0.89861060774581
  H   -2.67548923081996     -0.69556303817134     -0.16798561149767
  C   -0.96046848507377      0.61749694267621      1.56676501199390
  N   -1.19705555133570      1.30813932867731      2.48664529221230
