16
Coordinates from ORCA-job run
  C   0.83819499564081     -0.20739056004238      0.22870035577859
  C   -0.66222642419862     -0.38970688560537      0.52372281619195
  Cl  1.74908733306391     -0.88817745448080      1.61571517555737
  H   -0.79642643306322     -1.45600462188506      0.72674159353136
  N   1.17203606140535     -1.03868573133046     -0.92240189429637
  H   0.96990268069210     -0.52169913936725     -1.77144415698332
  H   2.16334915605421     -1.24862625635101     -0.91888143243929
  N   1.15682274927730      1.19867432263916      0.17603551752596
  H   0.68630230970598      1.63471155377291     -0.60894296946951
  H   2.15574385342553      1.33294315285675      0.07208072312336
  C   -1.55499679538309      0.00202931889066     -0.65925797933017
  H   -1.46841783935245      1.06446256948458     -0.89824854957344
  H   -1.30867598631173     -0.59962936160503     -1.53483797147198
  H   -2.59936526162662     -0.18672852359332     -0.40598921452724
  C   -1.05681999573657      0.35793743991883      1.71906382930177
  N   -1.44451040359288      0.94589017669776      2.65794415708096
