16
Coordinates from ORCA-job run
  C   0.83957225328312     -0.21219818401868      0.22099663389632
  C   -0.65905668414056     -0.40203675879116      0.51799485618003
  Cl  1.75715658613612     -0.91827436023439      1.59029933659049
  H   -0.79305613431725     -1.47203298656801      0.70067980574709
  N   1.17058297973129     -1.01966711711692     -0.94702816854234
  H   0.94527036866271     -0.49418892660009     -1.78504071336926
  H   2.16609444330570     -1.20921362671160     -0.96192893663220
  N   1.15632192891257      1.19596805150494      0.19621404673250
  H   0.69531128545279      1.64360663242447     -0.58789703901053
  H   2.15623218082772      1.33310815620809      0.10627741362548
  C   -1.55751018878744      0.01435383280328     -0.65237319624585
  H   -2.60129193603897     -0.17318966995090     -0.39606895924375
  H   -1.32053065506297     -0.57326766711010     -1.54006450391897
  H   -1.46652958829389      1.08018984722373     -0.87363240408244
  C   -1.04943323569633      0.32124464256888      1.72976661236351
  N   -1.44013360397459      0.88559813436848      2.68180521590991
