16
Coordinates from ORCA-job run
  C   0.76070188644312      0.18175743064735     -0.06431721017946
  C   -0.65338286194898     -0.12430744180536      0.46189377190019
  Cl  0.72432942558381      1.82797791153980     -0.86888348180184
  H   -0.53570937016403     -1.04320774815823      1.05013380334195
  N   1.65258522691667      0.31106320788130      1.05884711015711
  H   2.47680045351046      0.84526593625998      0.81582423368264
  H   1.92872684656807     -0.61631236256555      1.36233175430465
  N   1.16297840700840     -0.85027134423666     -0.96830663822898
  H   2.12480562056724     -0.69985622238418     -1.25063522484604
  H   0.58949435089498     -0.86481931043557     -1.80317891865633
  C   -1.70442521382103     -0.36296196673887     -0.62330872018108
  H   -2.68357053500752     -0.51206753069329     -0.16625775477987
  H   -1.76896981518639      0.49496220923026     -1.29405299033387
  H   -1.46677159130502     -1.26097186265883     -1.19605076676899
  C   -1.08867034157742      0.92733708785206      1.38169305518945
  N   -1.51792248848236      1.74641200626580      2.10426797720047
