16
Coordinates from ORCA-job run
  C   0.78803762987174     -0.24636693049533      0.11117967863973
  C   -0.69608658743439     -0.12490006241220      0.52466093519847
  Cl  1.27981788262322     -1.96360922638935      0.28489907848561
  H   -0.74611828038143     -0.45876796141648      1.56522744301074
  N   0.91802000073435      0.07845656865356     -1.29279413205282
  H   1.86839052520289     -0.08772253189884     -1.60340795680815
  H   0.70248945899716      1.06165707963239     -1.42980626074458
  N   1.58172580460175      0.48882648220432      1.07674189062335
  H   1.41421445518609      1.48391413183087      0.96371644666817
  H   2.56812419203282      0.31102118591206      0.92424858463734
  C   -1.66557588315991     -0.92308255218759     -0.34690759950336
  H   -1.42349710536608     -1.98394856565630     -0.29154527365238
  H   -2.68751819404337     -0.77938308213057      0.00890070079395
  H   -1.59658500747718     -0.60428135448488     -1.38561415127594
  C   -1.03697435804484      1.30049823185005      0.48954643757766
  N   -1.26946453334285      2.44868858698826      0.39995417840218
