16
Coordinates from ORCA-job run
  C   0.77507541877756      0.05291592249984     -0.07156149461618
  C   -0.65940009969958     -0.18478682656468      0.43270821502877
  Cl  0.75700916626662      1.76737186353576     -0.90658793596683
  H   -0.59154309430682     -1.14652959141507      0.95449595959731
  N   1.68214866015086      0.04189343103090      1.01143431060953
  H   2.61388337716561      0.30196927836667      0.71002319152625
  H   1.39461408565132      0.68675472879204      1.73727464087523
  N   1.12662378347623     -0.94360769409343     -1.02022878240117
  H   0.73817076518452     -0.73632804969388     -1.93010657559668
  H   2.13148340601699     -1.02672557872081     -1.10760860179488
  C   -1.71008487329121     -0.28827323303047     -0.67087583761581
  H   -1.46671853723094     -1.11927064409465     -1.33415339123875
  H   -1.76836210319880      0.63663056791409     -1.24430171250995
  H   -2.68851440640999     -0.48602357189979     -0.23040597823012
  C   -1.02542983631461      0.82728312454635      1.42473816371781
  N   -1.30995571223777      1.61772627282719      2.24515582861547
