16
Coordinates from ORCA-job run
  C   0.82642780579392      0.10805648557886     -0.12099935654097
  C   -0.62354753612694     -0.09610072102469      0.38444460709041
  Cl  0.83446742592095      1.66960241846615     -1.09883345889053
  H   -0.56695226283713     -1.00177857963490      1.00165689763249
  N   1.80663432702068      0.29744857128225      0.91120006927497
  H   1.81086922262497     -0.51436007477060      1.51873155860326
  H   1.61727552969589      1.13241550327269      1.45106591584176
  N   1.22638824573466     -1.02676467767043     -0.87138001926957
  H   2.20503207862041     -0.92478881766821     -1.11351162514532
  H   0.68365997149157     -1.13463894444641     -1.71753073368939
  C   -1.68031536662143     -0.30819738305873     -0.70083440226139
  H   -2.66457468548636     -0.42746869973089     -0.24480969856258
  H   -1.46677126881177     -1.21768161814528     -1.26526985522153
  H   -1.71481536198587      0.54284401672167     -1.38072943558776
  C   -0.99368521030117      1.00836722328261      1.27026374049788
  N   -1.30009291473239      1.89404529754591      1.97753579622829
