16
Coordinates from ORCA-job run
  C   0.83592854094741      0.10818863308197     -0.06421597379299
  C   -0.63361370301278     -0.14708779290937      0.36304777002222
  Cl  0.87847137263481      1.78835715238714     -0.82711085180567
  H   -0.61468009646544     -1.15746528824551      0.79115464830604
  N   1.67549469159572     -0.01710028494987      1.06663373910385
  H   2.63902169303110      0.11981613057757      0.78691636743217
  H   1.43374514744187      0.63484096145212      1.80244709587345
  N   1.34858772674125     -0.78126372403164     -1.06725109029562
  H   0.86563835679033     -0.68384151346486     -1.94894303415496
  H   1.29933615039472     -1.73648133448049     -0.73287587573571
  C   -1.65657769939086     -0.10092672185434     -0.77047387393611
  H   -1.72458153117570      0.89851386187267     -1.19799252836305
  H   -2.63960783462834     -0.38544861873456     -0.39159413338549
  H   -1.38310258387599     -0.80784792662379     -1.55561775206409
  C   -1.01342221113353      0.76471885242416      1.44294020210817
  N   -1.31063801989458      1.50502761349881      2.30493529068781
