16
Coordinates from ORCA-job run
  C   0.88830665828544     -0.16077479600745      0.12944926083685
  C   -0.60561433397020     -0.15487070354776      0.55939605107754
  Cl  1.47634966947767     -1.85344925422155      0.33837841396305
  H   -0.63163879277697     -0.49123712530090      1.60057103826913
  N   1.14774120985509      0.18351744815107     -1.24881836805064
  H   0.71868512419414     -0.46604095678497     -1.89598159213467
  H   0.81713738947644      1.12391080303511     -1.43807937532645
  N   1.62247612035379      0.66428770070733      1.04367712917754
  H   1.24320596584630      1.60520561182653      1.05627320730911
  H   2.58664724423067      0.70804248434188      0.73278993144566
  C   -1.52213999778133     -1.02705965141864     -0.29943969332796
  H   -1.18387253215923     -2.06252210419510     -0.28451965400426
  H   -1.54763104531205     -0.67145503487660     -1.33096705566273
  H   -2.54042096216747     -0.99037008450967      0.09083291466521
  C   -1.06898779335213      1.23432831284622      0.51475714335586
  N   -1.40024392420020      2.35848734995448      0.43068064840678
