18

C	-0.476578	-0.0259	-1.465962
C	0.0	0.0	0.0
Br	0.095593	1.681875	-2.293118
H	1.101594	0.0	0.0
C	0.241191	-1.139102	-2.211821
H	-0.083366	-2.106189	-1.813823
H	1.321211	-1.048461	-2.074345
H	0.000312	-1.103303	-3.277031
C	-1.9887	-0.098606	-1.587588
H	-2.334843	-1.05625	-1.185401
H	-2.45405	0.70666	-1.019453
H	-2.291338	-0.029717	-2.634859
C	-0.450549	-1.243505	0.636831
N	-0.828047	-2.231663	1.148351
N	-0.567737	1.130832	0.753687
H	-0.088263	1.958818	0.411835
H	-0.267692	1.020897	1.717786
Br	3.537748	0.0	0.0
