18

C	-0.395081	0.00292	-1.482075
C	0.0	0.0	0.0
Br	-2.403958	0.009602	-1.614969
H	1.099475	0.0	0.0
C	0.096406	1.263734	-2.177237
H	-0.184293	1.251125	-3.233498
H	1.187003	1.294397	-2.089022
H	-0.324495	2.163485	-1.725202
C	0.101821	-1.246901	-2.193489
H	1.192238	-1.27379	-2.100279
H	-0.171917	-1.220818	-3.252027
H	-0.309915	-2.153745	-1.747771
C	-0.420075	-1.24395	0.637713
N	-0.743548	-2.256154	1.141748
N	-0.435447	1.113098	0.821291
H	0.050251	1.956688	0.53971
H	-1.437214	1.255622	0.733198
Br	2.917378	0.0	0.0
