18

C	-0.493772	-0.010255	-1.462499
C	0.0	0.0	0.0
Br	0.146622	1.657081	-2.293516
H	1.094664	0.0	0.0
C	0.146624	-1.168078	-2.2118
H	-0.10722	-1.125062	-3.273531
H	1.232293	-1.131999	-2.095283
H	-0.220216	-2.116042	-1.80422
C	-2.009356	-0.003936	-1.546945
H	-2.337158	0.061509	-2.58687
H	-2.403778	-0.929488	-1.113661
H	-2.408622	0.848957	-0.995943
C	-0.436432	-1.24874	0.639448
N	-0.836965	-2.22026	1.16718
N	-0.480749	1.162518	0.753093
H	0.325259	1.620541	1.156629
H	-1.096066	0.883565	1.504617
Br	3.48775	0.0	0.0
