18

C	-0.342176	0.046987	-1.492171
C	0.0	0.0	0.0
Br	-2.326338	0.113177	-1.697823
H	1.09839	0.0	0.0
C	0.239055	1.30721	-2.103685
H	-0.157498	2.192165	-1.609401
H	1.323054	1.27603	-1.951456
H	0.01928	1.348046	-3.17263
C	0.168808	-1.200443	-2.190702
H	-0.300191	-2.104609	-1.799511
H	-0.022739	-1.141957	-3.264254
H	1.249178	-1.256826	-2.017154
C	-0.461934	-1.249431	0.625202
N	-0.829924	-2.222217	1.173334
N	-0.436042	1.189785	0.716258
H	0.180079	1.330593	1.507814
H	-1.384225	1.073567	1.052141
Br	3.475123	0.0	0.0
