15

C	0.0	0.0	0.0
C	-0.550479	0.304746	-1.382892
Cl	1.793945	0.0	0.0
H	-1.640551	0.146881	-1.333034
H	-0.314971	1.329715	-1.663145
C	-0.494957	1.066757	0.970648
H	-0.115645	0.855087	1.970779
H	-0.134057	2.047045	0.652186
H	-1.588121	1.036989	0.96969
C	-0.380539	-1.32875	0.498972
N	-0.591916	-2.36667	1.006813
N	0.01357	-0.555934	-2.453422
O	0.070044	-1.764897	-2.244691
O	0.362234	0.00432	-3.494185
Cl	-3.644935	0.0	0.0
