15

C	0.0	0.0	0.0
C	-0.525289	-0.172281	-1.425277
Cl	1.793988	0.0	0.0
H	-0.243078	-1.143554	-1.826152
H	-1.616165	-0.03991	-1.38215
C	-0.463671	1.272251	0.700793
H	-1.555285	1.293215	0.680441
H	-0.056161	2.140638	0.186289
H	-0.103957	1.260304	1.731088
C	-0.399312	-1.187823	0.76271
N	-0.609705	-2.157963	1.390691
N	0.060536	0.83179	-2.352806
O	0.803094	0.412957	-3.24244
O	-0.232904	2.01375	-2.182326
Cl	-3.589067	0.0	0.0
