15

C	0.0	0.0	0.0
C	-0.197896	-0.035875	-1.540613
Cl	1.798803	0.0	0.0
H	0.208305	-0.971895	-1.919515
H	0.364125	0.806389	-1.941521
C	-0.567543	1.227778	0.672397
H	-0.255158	1.25744	1.718399
H	-1.66112	1.155829	0.609633
H	-0.21603	2.124391	0.158278
C	-0.432356	-1.245356	0.634594
N	-0.700026	-2.26672	1.149985
N	-1.549811	0.106099	-2.159257
O	-1.95601	1.254446	-2.302403
O	-2.07111	-0.91815	-2.585528
Cl	-3.771196	0.0	0.0
