15

C	0.0	0.0	0.0
C	-0.544583	-0.165521	-1.419551
Cl	1.7942	0.0	0.0
H	-1.634776	-0.026709	-1.359708
H	-0.282276	-1.140345	-1.824501
C	-0.485251	1.248507	0.725434
H	-0.113072	2.137277	0.219191
H	-0.116142	1.230919	1.752403
H	-1.578128	1.236107	0.716669
C	-0.387794	-1.204939	0.744719
N	-0.606238	-2.184404	1.355513
N	0.029376	0.832444	-2.358245
O	-0.220999	2.019924	-2.159128
O	0.715663	0.403749	-3.287649
Cl	-3.643948	0.0	0.0
