15

C	-0.527443	-0.018712	-1.428904
C	0.0	0.0	0.0
Br	-0.104712	1.772226	-2.156907
H	1.091344	0.0	0.0
H	-0.379115	0.872358	0.531661
C	0.163359	-0.977619	-2.291585
N	0.655759	-1.699428	-3.077432
C	-2.038434	-0.205744	-1.542063
H	-2.539394	0.544378	-0.926732
H	-2.298889	-1.2036	-1.184446
H	-2.37193	-0.099457	-2.575735
N	-0.460835	-1.172386	0.740507
O	-0.534016	-2.251053	0.14235
O	-0.702538	-1.036888	1.94117
F	2.496444	0.0	0.0
