15

C	-0.324722	0.10839	-1.480396
C	0.0	0.0	0.0
Br	0.218626	-1.541102	-2.414561
H	1.088568	0.0	0.0
H	-0.323862	0.91595	0.505828
C	-1.730442	0.342921	-1.803141
N	-2.838733	0.658156	-2.038593
C	0.575696	1.233496	-2.005921
H	0.235294	2.185895	-1.585618
H	1.583028	1.009758	-1.634979
H	0.541349	1.291298	-3.094234
N	-0.637602	-1.106884	0.726839
O	-1.522062	-1.76679	0.174079
O	-0.265996	-1.277446	1.885891
F	2.578587	0.0	0.0
