15

C	-0.358625	0.006914	-1.471972
C	0.0	0.0	0.0
Br	0.401034	-1.550449	-2.410569
H	1.091502	0.0	0.0
H	-0.327417	0.93819	0.455907
C	-1.793768	0.015236	-1.749975
N	-2.951861	0.086842	-1.945386
C	0.353653	1.238087	-2.038222
H	-0.092943	2.146345	-1.618499
H	0.275599	1.271458	-3.124089
H	1.394794	1.156611	-1.710385
N	-0.583139	-1.070285	0.814448
O	-1.124005	-2.032842	0.262466
O	-0.468327	-0.94225	2.034291
F	2.548041	0.0	0.0
