15

C	-0.533154	0.059913	-1.424009
C	0.0	0.0	0.0
Br	0.504731	1.306566	-2.55426
H	1.088182	0.0	0.0
H	-0.341539	-0.920216	0.477958
C	-0.329996	-1.265024	-2.013169
N	-0.300379	-2.333609	-2.502583
C	-2.013035	0.420392	-1.559948
H	-2.602761	-0.274536	-0.952152
H	-2.173528	1.438629	-1.210687
H	-2.329991	0.342096	-2.601202
N	-0.469984	1.09307	0.847055
O	-0.594392	2.219278	0.356559
O	-0.653915	0.840448	2.041081
F	2.499163	0.0	0.0
