15

C	-0.33577	-0.028325	-1.480068
C	0.0	0.0	0.0
Br	0.300393	-1.705938	-2.302771
H	1.088569	0.0	0.0
H	-0.327282	0.952797	0.426798
C	-1.75703	0.09091	-1.802324
N	-2.891571	0.28337	-2.047667
C	0.494439	1.101986	-2.097701
H	1.515262	0.964207	-1.724304
H	0.110769	2.066245	-1.748497
H	0.451929	1.070307	-3.187677
N	-0.619075	-1.044657	0.829057
O	-1.406435	-1.844394	0.312994
O	-0.31805	-1.0328	2.023897
F	2.573075	0.0	0.0
