15

C	-0.36013	-0.017951	-1.472198
C	0.0	0.0	0.0
Br	-2.310336	-0.38926	-1.770226
H	1.101047	0.0	0.0
H	-0.415241	0.867373	0.508669
C	-0.174331	1.345804	-1.969164
N	-0.020779	2.431725	-2.391912
C	0.48424	-0.98738	-2.289114
H	0.349631	-0.813263	-3.358346
H	0.2123	-2.009385	-2.037383
H	1.515528	-0.802393	-1.966949
N	-0.473623	-1.172961	0.739103
O	-0.327387	-2.290345	0.238817
O	-0.954374	-0.979547	1.859091
F	2.537957	0.0	0.0
