15

C	-0.265303	-0.285627	-1.471486
C	0.0	0.0	0.0
Br	-2.155056	-0.835661	-1.835228
H	1.094335	0.0	0.0
H	-0.438972	0.935203	0.337643
C	-0.118237	0.990994	-2.173151
N	0.006512	2.007239	-2.751048
C	0.71126	-1.303579	-2.053171
H	1.694806	-0.985546	-1.680155
H	0.663673	-1.311349	-3.143393
H	0.487072	-2.291758	-1.65802
N	-0.464931	-1.045503	0.91374
O	-0.371175	-2.224358	0.569523
O	-0.882305	-0.679452	2.015377
F	2.557918	0.0	0.0
