15

C	-0.46827	-0.066196	-1.447732
C	0.0	0.0	0.0
Br	-0.007126	1.705945	-2.206282
H	1.088726	0.0	0.0
H	-0.388185	0.889275	0.495153
C	0.2748	-1.043199	-2.244995
N	0.771637	-1.848346	-2.942045
C	-1.967941	-0.262838	-1.644831
H	-2.509261	0.506063	-1.089451
H	-2.233624	-0.190856	-2.70094
H	-2.246851	-1.25002	-1.272826
N	-0.461752	-1.15199	0.772322
O	-0.633839	-0.993362	1.982893
O	-0.597615	-2.236768	0.193238
F	2.498171	0.0	0.0
