15

C	-0.470059	-0.080128	-1.448465
C	0.0	0.0	0.0
Br	0.00934	1.675522	-2.228199
H	1.088796	0.0	0.0
H	-0.385116	0.896457	0.484227
C	0.261913	-1.080032	-2.227343
N	0.754501	-1.88633	-2.927252
C	-1.971939	-0.263001	-1.640178
H	-2.503812	0.519798	-1.095471
H	-2.237099	-0.202968	-2.697182
H	-2.262496	-1.241469	-1.254206
N	-0.465186	-1.140842	0.785759
O	-0.614055	-2.229967	0.218848
O	-0.630615	-0.967834	1.996385
F	2.498357	0.0	0.0
