15

C	-0.468075	0.066813	-1.450248
C	0.0	0.0	0.0
Br	-0.033792	1.907039	-2.039242
H	1.092408	0.0	0.0
H	-0.398553	0.838639	0.569512
C	0.275087	-0.820638	-2.346437
N	0.754377	-1.522101	-3.159736
C	-1.96743	-0.132028	-1.655154
H	-2.515701	0.569005	-1.022455
H	-2.227452	-1.155712	-1.37976
H	-2.243183	0.036314	-2.697584
N	-0.481096	-1.21794	0.645945
O	-0.793123	-1.155613	1.837718
O	-0.501927	-2.262317	-0.019073
F	2.498072	0.0	0.0
