17

C	-0.334128	0.006806	-1.50136
C	0.0	0.0	0.0
Cl	0.186956	-1.549897	-2.134101
H	1.089355	0.0	0.0
N	-1.839328	0.196397	-1.749658
O	-2.29917	1.176227	-1.169188
O	-2.436706	-0.542165	-2.510117
N	0.316666	1.044846	-2.236409
H	0.144885	1.924773	-1.758674
H	1.320787	0.870644	-2.171639
N	-0.575354	-1.159506	0.724065
O	-1.683044	-1.546224	0.352244
O	0.079263	-1.614832	1.653364
N	-0.4345	1.228904	0.742292
O	0.026764	2.290498	0.341081
O	-1.172032	1.084992	1.710651
Br	3.306547	0.0	0.0
