16

C	0.0	0.0	0.0
C	-0.437761	0.032657	-1.478806
F	1.322645	0.0	0.0
H	-1.43073	0.472796	-1.538778
N	-0.761545	1.076795	0.679902
O	-0.750766	1.049087	1.933446
O	-0.699273	2.149653	-0.003493
N	-0.306724	-1.324498	0.74932
O	0.46275	-1.576144	1.668249
O	-1.259691	-2.006499	0.393759
N	-0.535358	-1.351158	-2.081848
O	-1.54553	-1.605549	-2.724757
O	0.43113	-2.089876	-1.919614
C	0.527833	0.75932	-2.302508
N	1.262669	1.339085	-3.01239
H	-2.153865	0.0	0.0
