16

C	0.0	0.0	0.0
C	-0.398915	0.16964	-1.49487
Cl	1.751215	0.0	0.0
H	-1.463167	0.431115	-1.435751
N	-0.384052	1.257706	0.796402
O	-0.474975	2.311234	0.176279
O	-0.432808	1.131945	2.013129
C	-0.745574	-1.115126	0.595629
N	-0.68471	-2.192988	1.107097
C	-0.253929	-1.160933	-2.235066
H	0.78109	-1.509014	-2.231014
H	-0.577028	-1.037422	-3.271415
H	-0.883825	-1.910905	-1.753587
C	0.312774	1.222074	-2.208127
N	0.817497	2.017192	-2.912342
H	-2.236782	0.0	0.0
