16

C	0.0	0.0	0.0
C	-0.403532	0.228451	-1.485227
Cl	1.79312	0.0	0.0
H	-1.401348	0.669392	-1.426563
N	-0.380567	1.213785	0.837061
O	-0.390884	1.059171	2.052982
O	-0.463486	2.287606	0.24497
C	-0.61889	-1.176477	0.586073
N	-0.62387	-2.257856	1.079784
C	-0.507054	-1.106068	-2.222503
H	-0.753906	-0.926494	-3.270715
H	-1.304509	-1.689974	-1.759284
H	0.428268	-1.666974	-2.168521
C	0.479398	1.141995	-2.204842
N	1.121072	1.84249	-2.897
H	-2.198239	0.0	0.0
