16

C	0.0	0.0	0.0
C	-0.363747	0.179003	-1.505833
Cl	1.790015	0.0	0.0
H	-1.385678	0.563686	-1.501886
N	-0.373149	1.257204	0.783342
O	-0.400286	1.149766	2.003111
O	-0.457928	2.304498	0.148421
C	-0.69998	-1.129167	0.596484
N	-0.692441	-2.208624	1.102136
C	-0.341952	-1.177982	-2.211588
H	0.619226	-1.677975	-2.077971
H	-0.521039	-1.041861	-3.28009
H	-1.129713	-1.803775	-1.790487
C	0.4846	1.132553	-2.217356
N	1.092194	1.860874	-2.911881
H	-2.162381	0.0	0.0
