19

C	0.0	0.0	0.0
C	-0.294721	0.01329	-1.527789
F	1.343388	0.0	0.0
H	0.436757	0.756106	-1.870254
N	-0.704311	1.009312	0.751121
O	-0.710699	2.154494	0.175428
O	-0.653524	0.878942	2.010684
N	-0.259273	-1.415377	0.701503
O	0.733364	-2.142636	0.771335
O	-1.369311	-1.741871	1.090977
C	-1.646532	0.472118	-2.06339
H	-1.984896	1.35727	-1.527687
H	-2.401581	-0.313527	-2.012515
H	-1.501214	0.737228	-3.123792
C	0.077126	-1.342445	-2.131257
H	-0.61987	-2.115076	-1.790174
H	1.088433	-1.651286	-1.861277
H	0.005856	-1.288345	-3.222138
H	-1.964646	0.0	0.0
