19

C	0.0	0.0	0.0
C	-0.350793	-0.105143	-1.500188
F	1.340572	0.0	0.0
H	-1.394701	-0.414989	-1.553808
N	-0.270724	1.396902	0.649172
O	-1.294585	2.010084	0.370019
O	0.601712	1.803603	1.410614
N	-0.769813	-0.959395	0.82336
O	-0.723271	-0.733908	2.067202
O	-0.76596	-2.139602	0.343913
C	0.528615	-1.167701	-2.168768
H	0.502182	-2.090648	-1.591775
H	1.563413	-0.829309	-2.269968
H	0.136264	-1.364301	-3.172351
C	-0.173473	1.229824	-2.223977
H	-0.927308	1.957894	-1.927317
H	0.818646	1.649052	-2.019984
H	-0.247171	1.071226	-3.304286
H	-2.145868	0.0	0.0
