14

C	-0.583579	-0.017615	-1.396979
C	0.0	0.0	0.0
F	-1.944386	-0.150057	-1.328386
H	1.090388	0.0	0.0
H	-0.327704	-0.941151	0.464461
N	-0.302961	1.320933	-2.080577
O	0.873355	1.530158	-2.334957
O	-1.258621	2.049862	-2.296273
C	-0.054589	-1.078893	-2.260327
N	0.352823	-1.950479	-2.933616
N	-0.474432	1.20155	0.666479
H	0.246012	1.529825	1.295901
H	-1.325995	1.036166	1.184945
Cl	3.402335	0.0	0.0
