14

C	-0.441731	-0.129897	-1.468237
C	0.0	0.0	0.0
F	-0.20254	1.022874	-2.139174
H	1.091412	0.0	0.0
H	-0.352138	0.990473	0.305371
N	0.334623	-1.244348	-2.168502
O	1.061587	-0.938248	-3.096396
O	0.14276	-2.364082	-1.704822
C	-1.866427	-0.477069	-1.599738
N	-3.012998	-0.728909	-1.644248
N	-0.47554	-1.013213	0.90959
H	-1.467492	-1.190301	0.810244
H	0.02955	-1.874673	0.756232
Cl	3.374506	0.0	0.0
