14

C	-0.52396	0.006082	-1.413296
C	0.0	0.0	0.0
F	-0.194342	-1.139314	-2.078904
H	1.095219	0.0	0.0
H	-0.353016	-0.927631	0.454024
N	-2.062833	-0.003365	-1.355834
O	-2.547581	-0.900123	-0.675862
O	-2.6868	0.835721	-1.993995
C	-0.105065	1.171641	-2.200587
N	0.263036	2.094831	-2.824974
N	-0.547924	1.187376	0.657829
H	0.218365	1.806234	0.889934
H	-1.01151	0.93206	1.51804
Cl	3.388273	0.0	0.0
