13

C	0.0	0.0	0.0
C	-0.507567	0.330273	-1.38189
F	1.42737	0.0	0.0
H	-0.146188	1.328138	-1.666934
H	-0.280955	0.77463	0.716704
H	-1.598875	0.355669	-1.301253
N	-0.488465	-1.251547	0.412371
H	-0.345113	-1.932903	-0.319569
H	-0.09313	-1.548986	1.290998
N	-0.103683	-0.726284	-2.314665
H	0.83407	-0.546842	-2.648194
H	-0.729337	-0.73705	-3.10841
Br	-4.431971	0.0	0.0
