14

C	-0.524124	-0.004491	-1.414252
C	0.0	0.0	0.0
F	-0.18398	1.169798	-2.067566
H	1.090455	0.0	0.0
H	-1.613439	-0.087253	-1.432008
H	-0.064742	-0.838714	-1.950657
C	-0.486578	-1.21964	0.767911
H	-1.577457	-1.279445	0.777313
H	-0.116937	-1.176525	1.794019
H	-0.071402	-2.119064	0.309211
N	-0.517841	1.219078	0.695489
O	-1.734575	1.417874	0.622357
O	0.268968	1.919319	1.322198
Br	3.590548	0.0	0.0
