14

C	-0.419997	0.030147	-1.443439
C	0.0	0.0	0.0
F	-1.812323	-0.06089	-1.564267
H	1.094192	0.0	0.0
H	0.018972	-0.828494	-1.955428
H	-0.100795	0.95366	-1.92184
C	-0.515583	-1.20207	0.761407
H	-0.116439	-1.209818	1.773651
H	-1.60537	-1.213951	0.805071
H	-0.166167	-2.102604	0.251019
N	-0.421884	1.280047	0.663694
O	-0.872038	1.223314	1.808424
O	-0.265663	2.324465	0.033863
Br	3.479598	0.0	0.0
