14

C	-0.530481	-0.043207	-1.409977
C	0.0	0.0	0.0
F	-0.158719	1.094891	-2.109907
H	1.090448	0.0	0.0
H	-0.101538	-0.912309	-1.917244
H	-1.622582	-0.092446	-1.418903
C	-0.492759	-1.189056	0.810712
H	-0.09592	-2.108972	0.375642
H	-0.111401	-1.119239	1.831018
H	-1.584841	-1.234162	0.832768
N	-0.506231	1.243804	0.663633
O	0.283575	1.924508	1.308697
O	-1.714071	1.478463	0.553564
Br	3.588099	0.0	0.0
