14

C	-0.410604	-0.034396	-1.44686
C	0.0	0.0	0.0
F	-1.80056	-0.143782	-1.579745
H	1.09418	0.0	0.0
H	0.042591	-0.910073	-1.915736
H	-0.095632	0.870191	-1.961257
C	-0.512822	-1.173392	0.805262
H	-0.129271	-1.132485	1.822818
H	-0.144031	-2.089151	0.340293
H	-1.603008	-1.197193	0.832617
N	-0.429993	1.301998	0.605846
O	-0.909866	1.287434	1.74169
O	-0.260441	2.322338	-0.062119
Br	3.468206	0.0	0.0
