15

C	0.0	0.0	0.0
C	-0.244005	0.064082	-1.51841
Br	2.025226	0.0	0.0
H	-1.317796	-0.041585	-1.663069
H	0.25752	-0.79767	-1.965176
N	-0.346612	1.191317	0.700432
H	0.125252	1.963584	0.250427
H	-0.054799	1.077039	1.663315
N	-0.630662	-1.167309	0.609762
O	-0.584821	-2.225944	-0.088364
O	-0.599774	-1.183439	1.877713
N	0.186947	1.361409	-2.052877
H	-0.371879	1.581267	-2.86638
H	1.154721	1.303358	-2.34037
H	-2.089199	0.0	0.0
