15

C	0.0	0.0	0.0
C	-0.302787	0.024221	-1.513176
Br	2.012294	0.0	0.0
H	-1.230412	-0.522518	-1.676074
H	0.493782	-0.5077	-2.035297
N	-0.333966	1.196699	0.718422
H	0.195234	1.957797	0.309335
H	-0.051856	1.044128	1.681236
N	-0.613256	-1.171995	0.613088
O	-0.624513	-1.198048	1.877399
O	-0.539392	-2.221588	-0.094296
N	-0.341526	1.414775	-1.980969
H	-0.118746	1.441933	-2.96978
H	-1.289092	1.757765	-1.858811
H	-2.021641	0.0	0.0
