15

C	0.0	0.0	0.0
C	-0.348352	-0.050962	-1.521119
Br	1.991196	0.0	0.0
H	0.427008	-0.640607	-2.010363
H	-0.221831	0.990189	-1.840808
N	-0.652869	0.990067	0.705871
H	-0.516691	0.864109	1.702262
H	-1.676116	0.846801	0.496974
N	-0.230406	-1.424604	0.626934
O	-0.459006	-1.459736	1.830993
O	-0.138595	-2.402667	-0.104593
N	-1.633833	-0.553598	-1.931629
H	-2.383642	-0.201117	-1.301895
H	-1.632934	-1.556224	-1.78788
H	-3.265555	0.0	0.0
