12
Coordinates from ORCA-job run
  C   0.85914172915835     -0.42153226805999     -0.44863752344975
  C   -0.54863281805040      0.16223578335917     -0.25797255464909
  Cl  1.07156399043937     -0.87510025659129     -2.15313849390001
  H   -1.31091975864842     -0.57809478620919     -0.50732555980494
  H   1.59901449110645      0.34351537202308     -0.20773324039223
  C   1.03982633767151     -1.57813195260501      0.42215108702221
  N   1.16441663323653     -2.50227782845177      1.13656764600460
  C   -0.72963105609335      1.38605104034438     -1.02812586240954
  N   -0.87518005319650      2.37318672433312     -1.64751618417628
  N   -0.72150993439805      0.48708259594545      1.21400870687065
  O   -1.68701633455720     -0.01157428290961      1.77617957071841
  O   0.13692677333171      1.21463985882166      1.69954240816596
