12
Coordinates from ORCA-job run
  C   0.50469776868183     -0.89451711468496      0.01412456515722
  C   -0.35976535618614      0.34168645423902     -0.25667659455373
  Cl  1.00885523215393     -0.92934343796980      1.71573861731458
  H   -0.69800100904983      0.31303998414704     -1.29823551258890
  H   -0.11095421932783     -1.77846569603495     -0.16363469598036
  C   1.65607997132241     -0.89624044638596     -0.87992512716251
  N   2.56456453568234     -0.89346232609437     -1.62464112158228
  C   0.33229288403084      1.59058310852094      0.01965195698204
  N   0.91921668471813      2.59111660516695      0.20277954087971
  N   -1.63235424923739      0.22185494556114      0.57173974250937
  O   -2.22651654633570     -0.83972156970727      0.43254570529191
  O   -1.95911569645260      1.17146949324224      1.26653292373295
