12
Coordinates from ORCA-job run
  C   0.52256187017338     -0.88347042219437     -0.00476144819879
  C   -0.36876298689775      0.33930349294099     -0.24760044409493
  Cl  1.05066344226966     -0.93062985197683      1.68931014537877
  H   -0.71865054009717      0.31891064033622     -1.28548091752566
  H   -0.07933525937772     -1.77623312415604     -0.18565507519826
  C   1.66136514585996     -0.85341723936926     -0.91410926466432
  N   2.55954936758299     -0.82706322310793     -1.67077786509513
  C   0.30144629532007      1.59762770793746      0.03955945681742
  N   0.86940387156504      2.60694180674409      0.23356820691799
  N   -1.62895973362929      0.18231754146507      0.59368192533610
  O   -2.20413461644295     -0.88851278620255      0.44527463425390
  O   -1.96614685632624      1.11522545758316      1.30599064607291
