12
Coordinates from ORCA-job run
  C   0.55213895470160     -0.75687706227664     -0.58702401786783
  C   -0.54701704909174      0.29605905662181     -0.38612239364269
  Cl  -0.16688666252592     -2.38132467608341     -0.51789326116930
  H   -1.32225920124034      0.15161810499280     -1.14103489974733
  H   0.94269096026874     -0.62328393764918     -1.59950359430272
  C   1.65749720380626     -0.63134060956578      0.35649236542422
  N   2.59246221004004     -0.54656136241494      1.06244263332458
  C   0.00726948776419      1.64187759417235     -0.44936575123025
  N   0.46690995026630      2.71948679422907     -0.53652461341674
  N   -1.23272218378009      0.09556419344926      0.94980520748376
  O   -0.54094890071208      0.27284779706930      1.94384760741647
  O   -2.41013476949695     -0.23806589254464      0.90388071772782
