12
Coordinates from ORCA-job run
  C   0.92446727825682     -0.36703532790758     -0.35565574703697
  C   -0.52260034734531      0.14629395847981     -0.31549381490779
  Cl  1.35593482865507     -0.75119753435548     -2.03562130881114
  H   -1.21399651280237     -0.61750764746634     -0.67615422603551
  H   1.59279604766401      0.42187515023669     -0.00697539974068
  C   1.05934432204779     -1.54388060068393      0.49588037765936
  N   1.14677525138530     -2.48556918206017      1.19248479636872
  C   -0.67028442481712      1.38719969150758     -1.06545527104005
  N   -0.78695126159408      2.38770288715422     -1.66933975200992
  N   -0.88187778087120      0.41136388552963      1.13408879837585
  O   -0.12252061885555      1.15917217117865      1.73913188715416
  O   -1.88108678172337     -0.14941745161308      1.56310966002396
