12
Coordinates from ORCA-job run
  C   0.80266540378950     -0.47507619109716     -0.49719025970658
  C   -0.55961093045062      0.17811424110204     -0.22039244595402
  Cl  0.86076115394479     -0.99588898027447     -2.19461525201702
  H   -1.37002887331984     -0.53494458471541     -0.38193391432070
  H   1.59094304487627      0.26349321912347     -0.34284509949798
  C   1.00181499659259     -1.60832703173325      0.39988570466259
  N   1.14279847235466     -2.51205837690743      1.13699965259306
  C   -0.74878460579836      1.38155644958100     -1.02008518111075
  N   -0.90093479322174      2.35214981350548     -1.66356056243240
  N   -0.60180669330924      0.56087589267748      1.24707757016474
  O   -1.54026620746765      0.12616631108936      1.90070935613076
  O   0.32244903200964      1.26493923764888      1.63695043148832
