12
Coordinates from ORCA-job run
  C   0.56571425142757     -0.85305406938631     -0.08398196449378
  C   -0.44556890918753      0.29590923022401     -0.15864866936175
  Cl  1.53547709027967     -0.72229052308092      1.39644270320375
  H   -1.06218969312428      0.16367256499210     -1.05444845945487
  H   0.00495811932336     -1.78825651189272     -0.02853432747135
  C   1.40957496985267     -0.84503135755750     -1.27282753780336
  N   2.06387132690826     -0.83561618778054     -2.24843077303361
  C   0.18246808020658      1.60752692738889     -0.16128857834630
  N   0.70673070639529      2.65714072070189     -0.21028385825909
  N   -1.41558839262400      0.15144575780585      1.00697514291960
  O   -1.92976444566282     -0.95600268191085      1.10053284626333
  O   -1.61568310379477      1.12655613049609      1.71449347583743
