12
Coordinates from ORCA-job run
  C   0.85198629642792     -0.43796534264244     -0.45037731304086
  C   -0.53735239089098      0.18828580792393     -0.25917973263541
  Cl  1.07188882741397     -0.84759642729135     -2.16496342650051
  H   -1.32092721355709     -0.51894026137693     -0.53686876736968
  H   1.61453402593663      0.29306002032753     -0.17679289895342
  C   0.97829663995181     -1.62592432694528      0.38734533206240
  N   1.05381442883460     -2.57450339790502      1.07608632218193
  C   -0.67001966605982      1.43787237026194     -0.99701528530588
  N   -0.78251623674512      2.44555209914811     -1.58971760394842
  N   -0.71590716641388      0.47879108403683      1.21937739003763
  O   0.15786901177891      1.16829933636435      1.73208507441760
  O   -1.70066655667697     -0.00693096190166      1.75902090905462
