12
Coordinates from ORCA-job run
  C   0.90506389199001     -0.38824670983173     -0.38628047554125
  C   -0.52959269222836      0.15371911270116     -0.29887757962568
  Cl  1.26807401404044     -0.79564888009566     -2.07684257806028
  H   -1.24770639182209     -0.60020511927539     -0.62637032403319
  H   1.60127688336135      0.38973274545718     -0.06891896689865
  C   1.04471300540357     -1.55988951727711      0.47191613508098
  N   1.12904686089739     -2.49599971218774      1.17651143819346
  C   -0.68124887399975      1.39106664854613     -1.05342861347482
  N   -0.80005200405859      2.39099999525129     -1.65803183530870
  N   -0.83083081214069      0.43776981005963      1.16079348992741
  O   -0.03278603354054      1.17133927467665      1.73251440045463
  O   -1.82795784790274     -0.09463764802441      1.62901490928608
