12
Coordinates from ORCA-job run
  C   0.87857942669861     -0.42133264045554     -0.40859735771480
  C   -0.53668214078595      0.16192713079832     -0.28276998508141
  Cl  1.16963628007632     -0.87426161043748     -2.10172717837304
  H   -1.28653427772984     -0.57877429829531     -0.56634218422351
  H   1.60625321030195      0.34396741725578     -0.13329149146293
  C   1.02010708985996     -1.57761367333330      0.46995502813238
  N   1.11402379139152     -2.49917382012321      1.19243594344096
  C   -0.68287129400476      1.38467986588938     -1.06175527947003
  N   -0.79843918049686      2.37158188973918     -1.68777712698122
  N   -0.77666215863333      0.48761563239699      1.17924758333208
  O   0.05843791505372      1.21565522174640      1.70314150063379
  O   -1.76584866173134     -0.01227111518124      1.69748054776772
