12
Coordinates from ORCA-job run
  C   0.58169031823677     -0.84534063544319     -0.03949585642109
  C   -0.45623494046868      0.27493517674051     -0.16817083229446
  Cl  1.58325372214892     -0.59074416071199      1.40371376135131
  H   -1.09093655144871      0.06800563086198     -1.03673508955232
  H   0.04297475198685     -1.78523029708490      0.09657281530048
  C   1.39665284436536     -0.90425340732065     -1.24666039593890
  N   2.02646822011337     -0.95256017292452     -2.23708560431413
  C   0.14306549821359      1.59539327861128     -0.27868679139636
  N   0.64262193046613      2.64955233630604     -0.41380386335837
  N   -1.39305373716816      0.19352785269190      1.02989770723773
  O   -1.59541584742623      1.21142838301844      1.67360513567748
  O   -1.88008620901919     -0.91471398474491      1.21484901370863
