12
Coordinates from ORCA-job run
  C   0.86421088933946     -0.43409543965206     -0.42739764374648
  C   -0.53994701873801      0.16781093069683     -0.27017276133116
  Cl  1.10824839870386     -0.89930043406096     -2.12443524768596
  H   -1.30575232065793     -0.56457932629181     -0.53203959910739
  H   1.60822696299862      0.32285859649814     -0.17392267244274
  C   1.01131007114361     -1.58819149064904      0.45301418878390
  N   1.10857361338437     -2.50869823652540      1.17637803949706
  C   -0.69115435366943      1.38858431103094     -1.05152819325592
  N   -0.81573016720768      2.37130269236082     -1.68225402694127
  N   -0.74010576369319      0.50290871455480      1.19584772308644
  O   0.11492263198639      1.22544090881841      1.69467237915378
  O   -1.72180294359006      0.01695877321933      1.74083781398974
