12
Coordinates from ORCA-job run
  C   0.89217389390867     -0.41109300784908     -0.38920038592156
  C   -0.52303820137182      0.17840419859892     -0.29711965550696
  Cl  1.24853501541181     -0.79773940438085     -2.08640732743175
  H   -1.26514603693727     -0.54369039241080     -0.64241810710317
  H   1.61357544728108      0.33613962250954     -0.05444764261612
  C   0.98961035287105     -1.60375819818445      0.44545307075321
  N   1.04827052955612     -2.55722803789378      1.12918466152208
  C   -0.62924615235343      1.43369448006077     -1.02956845004056
  N   -0.71640007958528      2.44539087780384     -1.61957945896478
  N   -0.82088427275004      0.44447239809453      1.16629196371814
  O   -0.00491049996254      1.14582356866432      1.75300521073520
  O   -1.83253999606835     -0.07041610501296      1.62280612085627
