12
Coordinates from ORCA-job run
  C   0.84851739455047     -0.50409337024965     -0.38052655891867
  C   -0.47265435222898      0.27613542554529     -0.30590029165428
  Cl  1.24972684219786     -0.80069142493662     -2.08575342567749
  H   -1.28651870025600     -0.29981244327581     -0.74990734113682
  H   1.64589190823240      0.10097912430473      0.05381646014355
  C   0.72339354433243     -1.76109161636863      0.34937053550407
  N   0.59551331009010     -2.76274528129342      0.94940328581536
  C   -0.35482194884818      1.58896695761737     -0.92729894151191
  N   -0.26023362745935      2.64748672144159     -1.42717289195837
  N   -0.81923713860460      0.46283484514856      1.15909530885469
  O   0.05038410953262      0.98672446851786      1.84562430802258
  O   -1.91896134153877      0.06430659354873      1.51824955251730
