12
Coordinates from ORCA-job run
  C   0.78763012025247     -0.49610516243757     -0.49890764975103
  C   -0.54937470650336      0.20977435732756     -0.22651339732031
  Cl  0.85305542193980     -0.97196864781213     -2.20930794774082
  H   -1.38793281806009     -0.45914387972492     -0.42795296848018
  H   1.60422574222678      0.20300566684401     -0.31163397392630
  C   0.92278248174260     -1.66019614820032      0.36987995396021
  N   1.01618673788164     -2.58489129623148      1.08841085554434
  C   -0.66339246969570      1.44645767004429     -0.98894425949934
  N   -0.74741148358717      2.44346902547961     -1.60378317655706
  N   -0.60380060018251      0.54500000386520      1.25199143925962
  O   -1.56801303335435      0.12203858004794      1.87521229097926
  O   0.33804460733987      1.20155983079781      1.68054883353161
