12
Coordinates from ORCA-job run
  C   0.49146070112021     -0.86305543262172     -0.26115404942554
  C   -0.32387248190766      0.42996055241521     -0.14914168286196
  Cl  0.79548193753931     -1.53792598966063      1.35194978285449
  H   -0.53949014123387      0.79796789862033     -1.15813603496155
  H   -0.10852798820431     -1.58907161670036     -0.81356963072548
  C   1.73794175522004     -0.60029709372643     -0.96970436796416
  N   2.72566858382744     -0.37567013027501     -1.56438369306353
  C   0.34306970416378      1.45624986136607      0.63630317045333
  N   0.91491606484294      2.29088135709748      1.23251087808994
  N   -1.68509060968255      0.08292521637038      0.44013669187617
  O   -2.26906038327118     -0.82387676522836     -0.13945730575969
  O   -2.08149714241416      0.73191214234304      1.39564624148797
