12
Coordinates from ORCA-job run
  C   0.53003419814387     -0.86857008391468     -0.13807806797721
  C   -0.37507853198427      0.36719131668367     -0.19510060278752
  Cl  1.05693323255657     -1.16506417359762      1.53102256644144
  H   -0.72911768703036      0.49690667451536     -1.22364177931819
  H   -0.06113242475332     -1.73059907838228     -0.45353625271092
  C   1.67001515515580     -0.68631446746610     -1.02783111779300
  N   2.57113013873167     -0.52898533394141     -1.76487702219391
  C   0.28411253081889      1.57607054306600      0.27280973444249
  N   0.84702972998160      2.55006040628620      0.60968848114382
  N   -1.62934160395912      0.07302385199747      0.61677190439395
  O   -2.19889783306393     -0.96534756545887      0.30563493291169
  O   -1.96768690459743      0.88062791021224      1.46813722344734
