12
Coordinates from ORCA-job run
  C   0.78877429874200     -0.51310693873151     -0.43159972192230
  C   -0.53122458447455      0.24035429516279     -0.16129951157248
  Cl  0.95330360224964     -0.78475600370413     -2.18548428249541
  H   -1.37618204713661     -0.44192130832536     -0.29560854160061
  H   1.62765070927216      0.11566093366201     -0.12151229733429
  C   0.85067141294005     -1.80195405062544      0.24917098738759
  N   0.93101562546335     -2.86727398178152      0.73708452507348
  C   -0.67672643350667      1.40807242042323     -1.01917213154729
  N   -0.80206128501802      2.33615470549957     -1.72780090405988
  N   -0.57450610560097      0.67590784406558      1.30215852432656
  O   -0.37831006100271     -0.21964970078499      2.11337399742014
  O   -0.81040513192768      1.85151178513977      1.54068935632448
