12
Coordinates from ORCA-job run
  C   0.55255059508355     -0.74800940096524     -0.59895239067339
  C   -0.56250812528570      0.28286668651295     -0.37296801786847
  Cl  -0.13179058628015     -2.38677998148939     -0.50943319242380
  H   -1.35431605307476      0.11860526661009     -1.10616269626627
  H   0.91538026299857     -0.60871645248477     -1.62116247382862
  C   1.67794071268692     -0.59835287490786      0.31720237411534
  N   2.62846465483542     -0.49364533067189      0.99935690627695
  C   -0.03851028397941      1.63965803535678     -0.45627700130153
  N   0.39660807280627      2.72595720705136     -0.55925482691417
  N   -1.20829001539502      0.07547880441430      0.98166220658689
  O   -0.49594365910166      0.27785796721667      1.95620600121274
  O   -2.37858557529404     -0.28491992664299      0.96878311108432
