12
Coordinates from ORCA-job run
  C   0.84884323416948     -0.46053538542534     -0.42835483526701
  C   -0.53179847203590      0.19387157455270     -0.27142928446929
  Cl  1.08997458742526     -0.90167389471803     -2.13246473539834
  H   -1.32412803998383     -0.50167022506661     -0.55378777183456
  H   1.61950445440922      0.26163020252837     -0.15400490808249
  C   0.94209146041343     -1.63715390705615      0.42918570878293
  N   0.99437366124274     -2.57895796767465      1.12929365321600
  C   -0.62382607905853      1.43541708978808     -1.02888069764126
  N   -0.69295605071854      2.43891399772271     -1.63514931431717
  N   -0.73176843866067      0.50912922939554      1.19920498600114
  O   -1.73816257379618      0.05462054999653      1.72587346712450
  O   0.14785225659353      1.18540873595686      1.71951373188556
