12
Coordinates from ORCA-job run
  C   0.57497933734345     -0.75445842528261     -0.57023087288945
  C   -0.55272757056572      0.27316801922095     -0.39563799459689
  Cl  -0.09876499701444     -2.39645604567340     -0.46722890110461
  H   -1.32318541025609      0.08926507926036     -1.14667923717723
  H   0.96490321092009     -0.63227623734593     -1.58464686298745
  C   1.67197888350159     -0.57841732465692      0.37548616061463
  N   2.58961571195640     -0.47533422137549      1.10142777892401
  C   -0.03451613631013      1.63134840598635     -0.49307434392741
  N   0.38923678588151      2.72109052207569     -0.60695883009793
  N   -1.23301126323641      0.08873274758534      0.94535441966171
  O   -0.55150460100777      0.32642408753659      1.93401164217850
  O   -2.39600395121248     -0.29308660733093      0.90917704140212
