12
Coordinates from ORCA-job run
  C   0.58833062686868     -0.70486588214537     -0.61789731406341
  C   -0.56821844687296      0.27469586131287     -0.37063677028059
  Cl  -0.03264164484404     -2.37048697392792     -0.59441252251802
  H   -1.34387263777926      0.10820152102809     -1.12045378729699
  H   0.95833959667549     -0.51563102283593     -1.62948711080632
  C   1.69534825519034     -0.54339632310915      0.31841052974465
  N   2.62983896428367     -0.42313935585120      1.01980446346246
  C   -0.09539066447066      1.65243591591529     -0.39722650650714
  N   0.29618240316739      2.75847403197028     -0.45534582137813
  N   -1.22224419738181     -0.00746972758911      0.96608916968929
  O   -0.53144317173166      0.18744772809635      1.95764853574761
  O   -2.37622908310517     -0.41526577286420      0.92350713420660
