12
Coordinates from ORCA-job run
  C   0.61892294862926     -0.70969576652349     -0.58123942183158
  C   -0.55573344672043      0.26170867131382     -0.39710299304171
  Cl  0.01233806958524     -2.38114250960292     -0.55363830185395
  H   -1.30017417018581      0.07292381372248     -1.17272314446556
  H   1.02616843793758     -0.53417878171501     -1.58088920163126
  C   1.68661208680349     -0.52180582567781      0.39503330458776
  N   2.59309568642253     -0.37936442246294      1.12830440695860
  C   -0.09548200436567      1.64356727969987     -0.43158690555293
  N   0.28888284198178      2.75176077366211     -0.49553523329881
  N   -1.25894821817613     -0.00132795901160      0.91871863487496
  O   -2.40757703570811     -0.41836564189521      0.83953068481642
  O   -0.60810519620374      0.21692036849071      1.93212817043806
