12
Coordinates from ORCA-job run
  C   0.54261201718974     -0.86506762886654     -0.10702996069271
  C   -0.41442976680906      0.32981284887610     -0.18031012699282
  Cl  1.32612270154001     -0.92567598806022      1.48480393223521
  H   -0.92179820723253      0.31562226652716     -1.15106360909309
  H   -0.05002213891649     -1.77553550882955     -0.21576127420693
  C   1.52676675603933     -0.77553842877754     -1.17844716729762
  N   2.29627250885700     -0.69858685793880     -2.06267933813110
  C   0.25235092762812      1.60523389521270      0.02816791524629
  N   0.81254727107378      2.62964412980442      0.15428381087336
  N   -1.52139601167059      0.11324003378357      0.84343043711319
  O   -2.08120373836972     -0.97255421665794      0.75857306013159
  O   -1.76882231932957      1.01840545492664      1.62503232081461
