12
Coordinates from ORCA-job run
  C   0.57586952391306     -0.70808084258882     -0.62597190676110
  C   -0.54950832855839      0.30557702786651     -0.37406488289483
  Cl  -0.10613964042509     -2.34957577702595     -0.66584535025959
  H   -1.31383269042824      0.18935252964910     -1.14465478562414
  H   0.97439964578336     -0.50327811895332     -1.62359273097749
  C   1.66739680563097     -0.61525566588425      0.33757057514097
  N   2.59159852678011     -0.54971881518450      1.05952781155704
  C   -0.02664957964758      1.66524478961874     -0.34970208588928
  N   0.40765610479238      2.75655463950905     -0.36587135684616
  N   -1.24326959039880      0.00997057737890      0.93976265975179
  O   -0.56721498695110      0.14785582898935      1.95080290796989
  O   -2.41130579049068     -0.34964617337481      0.86103914483291
