12
Coordinates from ORCA-job run
  C   0.58720195969970     -0.70834837000831     -0.61510116840000
  C   -0.56220119451707      0.28090930683467     -0.37444267053554
  Cl  -0.04959755198177     -2.36832660845529     -0.60339605726974
  H   -1.33318599089479      0.12397487475355     -1.13105246485942
  H   0.96727255105766     -0.51876162963344     -1.62289354989273
  C   1.68766852522133     -0.56080045636904      0.33134564179277
  N   2.61734987849329     -0.45241366890082      1.04100326325756
  C   -0.07572690854563      1.65405854685303     -0.39306402444036
  N   0.32860143221594      2.75583315440327     -0.44369791800185
  N   -1.23068015948541      0.00174892962020      0.95599921750756
  O   -0.54603046472728      0.18622202954009      1.95390128002071
  O   -2.38867207653598     -0.39309610863792      0.90239845082104
