12
Coordinates from ORCA-job run
  C   0.57647085691319     -0.71152616096770     -0.62122280335392
  C   -0.57624866283378      0.26968345751830     -0.36295383288265
  Cl  -0.04249116932372     -2.37767637761385     -0.57344609141529
  H   -1.36749035759566      0.09076909773389     -1.09330705299099
  H   0.92940728355049     -0.53058483692247     -1.64035017566305
  C   1.69808669546940     -0.54209005483284      0.29622318739550
  N   2.64307033554632     -0.41684972592293      0.98252015085995
  C   -0.10521986435994      1.64711606142549     -0.42067350498900
  N   0.28666382721598      2.75132298446624     -0.50466387470292
  N   -1.20034784498585      0.00681273794993      0.99195753432569
  O   -2.34680133130531     -0.42382276950512      0.98022598462410
  O   -0.49509976829113      0.23684558667107      1.96569047879257
