12
Coordinates from ORCA-job run
  C   0.60713265805538     -0.72106576477433     -0.58020581474912
  C   -0.54913792957953      0.27295273952209     -0.39985039142106
  Cl  -0.03134995212629     -2.38041479103342     -0.55410752852113
  H   -1.29423033938126      0.09879229576700     -1.17830763800108
  H   1.02101003736036     -0.55358881781740     -1.57850842979424
  C   1.67484064072106     -0.55425285212602      0.39989025249559
  N   2.57962114885014     -0.43336723399159      1.13917390842882
  C   -0.06199179650037      1.64558748126906     -0.43193321718632
  N   0.34483204960447      2.74606480022045     -0.49039551409561
  N   -1.26189163165598      0.02306244308055      0.91332913258689
  O   -0.61013974275880      0.22721207497369      1.92910810350544
  O   -2.41869514258918     -0.36998237509006      0.82980713675183
