16

C	-0.417476	-0.041546	-1.461519
C	0.0	0.0	0.0
Cl	-2.215479	-0.108794	-1.600182
H	1.095632	0.0	0.0
H	-0.367089	0.922114	0.453972
N	-0.040277	1.285835	-2.116919
O	0.440368	1.251524	-3.245619
O	-0.275513	2.307416	-1.478984
C	0.202414	-1.192979	-2.203506
H	-0.103069	-2.105331	-1.692156
H	-0.113003	-1.214548	-3.244901
H	1.28977	-1.093798	-2.141141
N	-0.444916	-1.217724	0.674094
H	0.316411	-1.556605	1.246852
H	-1.23594	-1.026932	1.27209
Br	3.570081	0.0	0.0
