16

C	-0.535325	-0.002073	-1.425767
C	0.0	0.0	0.0
Cl	0.001839	1.46092	-2.269673
H	1.098416	0.0	0.0
H	-0.347121	-0.920711	0.47246
N	0.010074	-1.229118	-2.157859
O	-0.070158	-2.276446	-1.519657
O	0.386856	-1.129026	-3.3165
C	-2.04603	-0.102602	-1.505109
H	-2.364965	-1.041502	-1.04696
H	-2.468307	0.732239	-0.949693
H	-2.377569	-0.070104	-2.544932
N	-0.56638	1.15093	0.718594
H	-0.488269	0.95324	1.709288
H	0.047976	1.940304	0.549311
Br	3.64667	0.0	0.0
