16

C	-0.433814	-0.006349	-1.454457
C	0.0	0.0	0.0
Cl	-0.179096	-1.6318	-2.154929
H	1.092955	0.0	0.0
H	-0.366793	-0.898235	0.50089
N	-1.94561	0.211792	-1.513892
O	-2.616176	-0.277226	-0.607852
O	-2.404175	0.833344	-2.467963
C	0.283937	1.030783	-2.276723
H	0.055971	2.012953	-1.861332
H	1.355478	0.841703	-2.178686
H	-0.019923	0.991621	-3.321193
N	-0.466454	1.24745	0.606207
H	0.289988	1.649921	1.143719
H	-1.248842	1.071764	1.221064
Br	3.603991	0.0	0.0
