16

C	-0.364973	0.09719	-1.493711
C	0.0	0.0	0.0
Cl	-0.001925	-1.425578	-2.332028
H	1.093531	0.0	0.0
H	-0.347537	0.937263	0.451933
N	-1.871844	0.321062	-1.568116
O	-2.620284	-0.65478	-1.518151
O	-2.248593	1.493296	-1.550063
C	0.376412	1.232137	-2.160363
H	0.090384	1.322244	-3.210116
H	1.443926	1.016485	-2.074228
H	0.164271	2.169899	-1.647103
N	-0.494898	-1.137242	0.742263
H	0.132555	-1.917934	0.59262
H	-1.422521	-1.408794	0.431168
Br	3.600439	0.0	0.0
