16

C	-0.427423	-0.000601	-1.455391
C	0.0	0.0	0.0
Cl	-0.155385	-1.619539	-2.164352
H	1.092983	0.0	0.0
H	-0.368407	-0.899485	0.496477
N	-1.940225	0.205825	-1.52532
O	-2.39904	0.800337	-2.497552
O	-2.612019	-0.270607	-0.612961
C	0.285019	1.04867	-2.268409
H	0.045575	2.026583	-1.849083
H	1.358002	0.869271	-2.165751
H	-0.01195	1.012011	-3.315057
N	-0.467846	1.245463	0.609517
H	-1.241257	1.067044	1.233102
H	0.292049	1.651082	1.137752
Br	3.602665	0.0	0.0
