15

C	-0.330511	-0.094754	-1.479634
C	0.0	0.0	0.0
Cl	0.205123	1.388505	-2.35015
H	1.088445	0.0	0.0
H	-0.325766	-0.914199	0.504461
C	0.534177	-1.246422	-2.004126
H	0.177727	-2.193454	-1.587737
H	1.548244	-1.043452	-1.638863
H	0.494324	-1.293081	-3.093135
C	-1.748787	-0.299746	-1.777998
N	-2.872423	-0.552545	-2.014017
N	-0.622268	1.109978	0.734572
O	-1.387087	1.877549	0.14645
O	-0.338417	1.192459	1.929089
F	2.574923	0.0	0.0
