19
Coordinates from ORCA-job run
  C   -0.90220133366539      0.27084137655603     -0.20740333979629
  C   0.60590891424716      0.53232140857567     -0.34148619664146
  H   -1.37202691692430      1.25213267314217     -0.05969621453785
  H   0.69768140480230      1.23305730431203     -1.18016097406070
  C   -1.27686078760404     -0.61183988096568      0.98522020169284
  H   -2.36266001103834     -0.73771310300437      1.02464701077988
  H   -0.83362406359981     -1.60760657019328      0.89175673836118
  H   -0.95861252720434     -0.18475663215236      1.93940935239861
  N   -1.41545858461827     -0.23551777264351     -1.48682509378340
  H   -1.20669289087603     -1.22566866383367     -1.56235617674493
  H   -2.42645739344230     -0.15627938197990     -1.49532859544758
  C   1.40064302611380     -0.72079536077770     -0.70352044773260
  H   1.33843900793775     -1.48110161271328      0.08060321389791
  H   2.45816346601761     -0.47290323870039     -0.83026722772614
  H   1.05595904125027     -1.15601249037096     -1.64410252219332
  C   1.18301066037375      1.19611371433829      0.90724170573571
  H   0.57916298997264      2.05369692263151      1.21982562374016
  H   1.23664937578682      0.49650404469190      1.74586726206999
  H   2.19797662247074      1.55552726308749      0.71657567998798
