19
Coordinates from ORCA-job run
  C   -0.81581116709328     -0.01792703946029     -0.13297510988561
  C   0.70354184704500     -0.14500082410836      0.03784289098644
  H   -1.02943565049348      1.04344689056998     -0.35989574906735
  H   0.89753151843540     -1.18451690744410      0.33376752922617
  C   -1.57603485642218     -0.39815653860229      1.13070545394635
  H   -1.33871200621413     -1.42876273423609      1.40802902178814
  H   -1.33925782320410      0.25977931544655      1.96717794479347
  H   -2.65576473374324     -0.33352330460581      0.96250850363257
  N   -1.26059609579570     -0.91175318348934     -1.20825701969039
  H   -0.97894787646407     -0.53912006797104     -2.10710719040462
  H   -2.27403891205524     -0.94612721287833     -1.21528609183686
  C   1.23237852336874      0.79334904409195      1.12172338195066
  H   2.32286185183540      0.73900992837192      1.17785372403679
  H   0.84330186761738      0.54864098502437      2.11156852674516
  H   0.96465740901729      1.83191417505027      0.89893066488385
  C   1.43064463306473      0.11880844757221     -1.28038409460359
  H   1.18738343546839     -0.63364998785543     -2.03271094502734
  H   2.51420867919489      0.09567873253497     -1.13701934596932
  H   1.17108935643822      1.10791028198887     -1.67547209550452
