13

C	0.0	0.0	0.0
C	-0.539317	0.352762	-1.375949
Cl	1.767733	0.0	0.0
H	-1.641986	0.305628	-1.278412
H	-0.194694	-0.399098	-2.087647
C	-0.433869	0.923724	1.046722
N	-0.630007	1.728626	1.880687
N	-0.418056	-1.432287	0.373856
O	-0.502736	-2.224205	-0.552834
O	-0.526115	-1.670515	1.565812
C	-0.103471	1.67842	-1.786264
N	0.253861	2.738641	-2.141733
Cl	-3.357007	0.0	0.0
