13

C	0.0	0.0	0.0
C	-0.270267	-0.116239	-1.525665
Cl	1.770205	0.0	0.0
H	0.466105	-0.832882	-1.892753
H	0.01234	0.859576	-1.93366
C	-0.473691	1.204261	0.663328
N	-0.537773	2.262387	1.174605
N	-0.393126	-1.257166	0.761939
O	-0.436147	-2.285335	0.102902
O	-0.492264	-1.148158	1.973531
C	-1.527976	-0.527009	-2.152862
N	-2.195883	-0.908946	-3.046639
Cl	-2.960041	0.0	0.0
