13

C	0.0	0.0	0.0
C	-0.266652	-0.137505	-1.52288
Cl	1.770125	0.0	0.0
H	0.438739	-0.895828	-1.86743
H	0.067037	0.815095	-1.949761
C	-0.478268	1.207969	0.650907
N	-0.559031	2.266197	1.160255
N	-0.394769	-1.250622	0.777011
O	-0.500955	-1.125552	1.986356
O	-0.433453	-2.286544	0.13059
C	-1.538319	-0.495386	-2.154623
N	-2.210845	-0.84447	-3.057972
Cl	-2.97845	0.0	0.0
