13

C	0.0	0.0	0.0
C	-0.542211	0.355963	-1.376994
Cl	1.768002	0.0	0.0
H	-0.214484	-0.408125	-2.083828
H	-1.644301	0.324421	-1.269545
C	-0.437377	0.91742	1.04897
N	-0.657514	1.703038	1.8942
N	-0.418785	-1.433728	0.368238
O	-0.50203	-2.221739	-0.561232
O	-0.531902	-1.676492	1.557946
C	-0.083039	1.670946	-1.797624
N	0.283857	2.727345	-2.155189
Cl	-3.389405	0.0	0.0
