13

C	0.0	0.0	0.0
C	-0.526568	0.279554	-1.399947
Cl	1.767739	0.0	0.0
H	-0.180037	-0.514034	-2.063497
H	-1.628941	0.242864	-1.310754
C	-0.445131	0.965708	0.999438
N	-0.620482	1.811236	1.797015
N	-0.411072	-1.417497	0.435907
O	-0.520086	-1.603542	1.636479
O	-0.488519	-2.250165	-0.45429
C	-0.077658	1.575851	-1.883899
N	0.281939	2.610967	-2.30595
Cl	-3.339541	0.0	0.0
