13

C	0.0	0.0	0.0
C	-0.539283	0.398314	-1.366456
Cl	1.767894	0.0	0.0
H	-1.642629	0.360355	-1.266327
H	-0.20849	-0.342559	-2.096297
C	-0.454952	0.867633	1.080837
N	-0.666512	1.631246	1.949431
N	-0.415954	-1.448876	0.313161
O	-0.500757	-2.202298	-0.644374
O	-0.522938	-1.736814	1.493986
C	-0.085883	1.725725	-1.749149
N	0.272833	2.792292	-2.085295
Cl	-3.370086	0.0	0.0
