15
Coordinates from ORCA-job run
  C   -1.06060396112760      0.05675438271777      0.09914273588783
  C   0.44852209811528      0.15365545262830      0.30650631051704
  F   -1.35959279570330      0.48105447164326     -1.18238611026919
  H   0.67726675668067     -0.19245967909617      1.31887317449701
  H   -1.57280078334200      0.75385169422338      0.77239165805968
  N   -1.47716974600931     -1.31590573961006      0.20246242419361
  H   -2.46834718417814     -1.37584360298327      0.00105108460412
  H   -1.32781019275614     -1.65546754714612      1.14518138912654
  N   0.78320028954331      1.62278727275387      0.34543110476654
  O   0.31702834636853      2.25042635878152      1.29519244189568
  O   1.46822493739107      2.09563428984239     -0.55538943521058
  C   1.24920207234467     -0.57974426569298     -0.74293362992177
  H   0.97510864151462     -1.63400500389290     -0.71776823836520
  H   1.02987827488595     -0.18293149115530     -1.73176153994678
  H   2.31789324627238     -0.47580659301367     -0.55499336983453
