15
Coordinates from ORCA-job run
  C   -0.90130582560442     -0.53254681522299     -0.11679049029994
  C   0.41236773501329      0.11582409494606      0.29911660182616
  F   -0.91789254444750     -1.79368845960464      0.51736410719742
  H   0.38848211502540      0.31648639312718      1.37234385610381
  H   -0.90915160754218     -0.72946412429692     -1.19007559318751
  N   -1.99674937666317      0.28179067771492      0.22565028289767
  H   -2.87161991297282     -0.08957211461725     -0.11671981390843
  H   -2.05601947426621      0.44128796451276      1.22280505515747
  N   0.46277792560849      1.45905787990706     -0.35601413606931
  O   0.44658674621589      2.44897933763764      0.37003008843360
  O   0.51519301846344      1.46663613692955     -1.58382126796070
  C   1.63192250771122     -0.69435530441472     -0.09086185694469
  H   2.54679091437799     -0.17335123698495      0.19769322453793
  H   1.64733979775550     -0.85968035766737     -1.16859406071492
  H   1.60127798132509     -1.65740407196632      0.41787400293145
