15
Coordinates from ORCA-job run
  C   -0.86307262399822     -0.26280144276951      0.73912981382070
  C   0.55017393594157      0.19927337208620      0.40404006952231
  F   -1.46876696426210      0.81120308081852      1.42856494932928
  H   1.06299167072437      0.42473761694329      1.33921091596250
  H   -0.79078693127978     -1.07367693664191      1.46955086562535
  N   -1.60463500887594     -0.70414150283826     -0.37281160576755
  H   -1.70034800181575      0.02857920057547     -1.06323582669469
  H   -2.51339366055944     -1.04552420041497     -0.09239478229252
  N   0.49555509966342      1.51993057034878     -0.30536747868646
  O   1.12106845428568      2.45306228293993      0.18718400354961
  O   -0.15044661359556      1.56963178602543     -1.35262582936478
  C   1.32350484846901     -0.79078288770406     -0.44415323132072
  H   1.37169419790104     -1.75238727966403      0.07102176617670
  H   2.34251190142369     -0.43535827533789     -0.60969694362421
  H   0.82394969597801     -0.94074538436701     -1.39941668623553
