15
Coordinates from ORCA-job run
  C   -1.07928478613311     -0.02449625271162     -0.00461962049894
  C   0.40580394770337      0.15772676702158      0.29635749984514
  F   -1.32001717109026      0.08311377804227     -1.35724736419712
  H   0.62810966560573     -0.27319423788160      1.27460791838132
  H   -1.67165357351123      0.77118500885399      0.46589620365560
  N   -1.44573671691145     -1.36874491541072      0.36993447810696
  H   -1.44060680723324     -1.46689626074599      1.37794863703728
  H   -2.38491499236446     -1.55645750014586      0.03960752691492
  N   0.73551817489599      1.61013459681664      0.44024299739989
  O   1.51406925807985      1.91973341874774      1.34077984361420
  O   0.23533570234722      2.38291517861979     -0.37421738793847
  C   1.29774108306521     -0.44472624490691     -0.77359341783027
  H   1.14516926879674      0.07130577967956     -1.72069205431051
  H   2.34524556220724     -0.36514158252203     -0.47834910424112
  H   1.03522138454242     -1.49545753345685     -0.89665615593887
