15
Coordinates from ORCA-job run
  C   -1.06031371682181      0.08364275987519      0.26329860522376
  C   0.45473449329673      0.20126097396147      0.36939898698500
  F   -1.42149401292194      0.59361408001814     -0.99926240707628
  H   0.73242140824632     -0.01506265916297      1.40312829856096
  H   -1.53351448000668      0.73467381988389      0.99879439094422
  N   -1.48169955500956     -1.25106243918816      0.45829484427189
  H   -2.48803263004342     -1.30262063015193      0.54156130140256
  H   -1.18900152474983     -1.84288544839456     -0.30835501234920
  N   0.77661563107182      1.66293716259752      0.18699394735231
  O   0.31571426956728      2.41870824741866      1.03968731624907
  O   1.44933675224856      2.00343079650325     -0.78028014151315
  C   1.21546599244298     -0.65879813716769     -0.61409011556347
  H   1.07792669350958     -1.71062856868630     -0.35598879154382
  H   2.28150153949555     -0.43934651902988     -0.57150071493081
  H   0.87133913967442     -0.47886343847663     -1.63168050801304
