15
Coordinates from ORCA-job run
  C   -0.92185880999066     -0.61485111271214      0.01388300581422
  C   0.41237038623920      0.06686469521690      0.31458108226481
  F   -0.86892391637796     -1.82403467364194      0.72527143128294
  H   0.43268534732242      0.32710402428595      1.37494903609684
  H   -0.97574133012451     -0.89181079996201     -1.04207106289016
  N   -2.03330426126524      0.15419231864664      0.39728595097736
  H   -1.84755554341663      0.95434871737502      0.97970896513713
  H   -2.70223726237211      0.34529603158133     -0.32693021508302
  N   0.39362266586004      1.37188511082438     -0.41331711571356
  O   0.50459892621927      1.32729942219547     -1.63671196703116
  O   0.22504745559915      2.39312047351008      0.25270832335708
  C   1.62245680222479     -0.74812473785200     -0.08821655560113
  H   1.58565120476215     -0.98676092131143     -1.15132358625025
  H   1.63125769143863     -1.67420721726453      0.48536720644793
  H   2.54393064388147     -0.19932133089173      0.11581550119097
