15
Coordinates from ORCA-job run
  C   -1.10396217497133      0.04239174810522      0.09955384660037
  C   0.37747511744231      0.24369746633382      0.37504487212673
  F   -1.31417752453781      0.30763892726781     -1.26527998635328
  H   0.55914511749104      0.03513108196788      1.43331285235316
  H   -1.69620810155165      0.77409291347062      0.64575529287990
  N   -1.50342474263346     -1.26615608231177      0.46930801836023
  H   -1.10384404803459     -1.95930934837153     -0.14988844105292
  H   -2.51035840834046     -1.35208600435991      0.43837612647922
  N   0.73433382426677      1.70783302737855      0.21869785826316
  O   1.92875350647789      1.97449884339129      0.12343132651648
  O   -0.17246730177810      2.53449638161920      0.25497467951257
  C   1.28275714319749     -0.59999563006327     -0.50136676680065
  H   2.32662318182331     -0.40411640486583     -0.26763443779818
  H   1.10615889974771     -0.37895230811359     -1.55376087175279
  H   1.09019551140088     -1.65916461144849     -0.32052436933399
