15
Coordinates from ORCA-job run
  C   -1.00704508763684     -0.14744266982443      0.64296021876926
  C   0.46181386216345      0.25149332311471      0.48081429021775
  F   -1.60783937828013      0.94317213793070      1.30401769547248
  H   0.84422164956776      0.54437008584201      1.45835948093809
  H   -1.04877886957412     -0.97924064259992      1.35263389097400
  N   -1.68124682732482     -0.48098492180898     -0.52885738859733
  H   -2.15991747252426     -1.35821715935090     -0.58006356535435
  H   -1.37710607440828     -0.07119017730798     -1.39297345924270
  N   0.54874467981750      1.50375339433861     -0.33781273434535
  O   0.21822568785695      1.42038038007614     -1.52293291528571
  O   0.95419961690275      2.52086865667177      0.21428892862772
  C   1.30583460784130     -0.83102905380627     -0.15936383445134
  H   1.27407355333292     -1.73162565574918      0.45830791039978
  H   2.34616624642815     -0.51027234068569     -0.24036658433297
  H   0.93065380583768     -1.07403535684058     -1.15201193378931
