15
Coordinates from ORCA-job run
  C   -1.11937220926984      0.04475756167100      0.09013912363557
  C   0.38523033901053      0.17684937497907      0.32813218297843
  F   -1.35657873547095      0.61457433985669     -1.16555616425819
  H   0.59586923433989     -0.16834281837334      1.34339943283540
  H   -1.65481236629755      0.66463660541845      0.81071856487061
  N   -1.60228870942049     -1.27974621109539      0.13658064192228
  H   -2.20705390665629     -1.48284088072485      0.91273698719914
  H   -0.93197556205286     -2.00931384836501     -0.03453922098358
  N   0.68905965080145      1.65425790113684      0.36827146362992
  O   1.41285053559935      2.13354174865455     -0.49798216648390
  O   0.15985759691162      2.27927430104349      1.28539123625645
  C   1.24287011863083     -0.52300568245521     -0.70348742133076
  H   2.29823923502134     -0.31969916187020     -0.52515850809388
  H   1.09888145790077     -1.60427577123480     -0.64485735000193
  H   0.98822332095219     -0.18266745864128     -1.70478880217556
