15
Coordinates from ORCA-job run
  C   -0.89636119544506     -0.55374217330615      0.19263670739576
  C   0.45482684614239      0.14170638628241      0.27580129968674
  F   -0.83643037588044     -1.60345510670749      1.09733203024360
  H   0.58370087531945      0.48255112176825      1.30393793407576
  H   -1.04546037773023     -1.00665679895628     -0.79482498591539
  N   -1.95112901881835      0.32224235479455      0.63014189865343
  H   -2.18160973941999      0.96436411891898     -0.11833257894874
  H   -2.77254719899937     -0.23907601848059      0.82254111119371
  N   0.44127133672168      1.38160023238438     -0.55960952723995
  O   1.21605712109863      2.27671528589559     -0.24055107608699
  O   -0.30265100197209      1.39790567224537     -1.54323067028722
  C   1.61080682991883     -0.72829420090893     -0.18434070802584
  H   1.63244473337097     -1.64022847031461      0.41231629888967
  H   1.49133738441789     -0.99717185477390     -1.23659996495540
  H   2.55674378127570     -0.20046054884160     -0.05721776867915
