15
Coordinates from ORCA-job run
  C   -1.09886007852965      0.04397834681017      0.23217375117322
  C   0.42430924019731      0.16873515431256      0.28097734102631
  F   -1.49019818810522      0.64328514813547     -0.96997481026635
  H   0.76083231775441     -0.19974665785940      1.25324879156990
  H   -1.53657700588680      0.64724241102659      1.02880531311888
  N   -1.57826237161581     -1.28074038091053      0.30813981625904
  H   -2.07643575312333     -1.50183744193302      1.15223307995285
  H   -0.93763002958033     -2.00607833845672      0.03519884983265
  N   0.73639042637129      1.64485362364429      0.31621290980610
  O   0.32976181101685      2.24888298608519      1.30689715830699
  O   1.34684293450888      2.14324196245836     -0.62340397063682
  C   1.14177283382801     -0.50766806548641     -0.86668772819847
  H   0.76390163394145     -0.14361279758011     -1.81956023314735
  H   1.00212816156211     -1.58987234288131     -0.81546059504080
  H   2.21202406766084     -0.30966360736511     -0.81879967375615
