15
Coordinates from ORCA-job run
  C   -0.91928251076422     -0.61859866631625      0.03791217140280
  C   0.40778970609639      0.08669477592885      0.31499365077025
  F   -0.86928693537956     -1.78560311905731      0.81591409257922
  H   0.41354467970016      0.40855433443383      1.35849313461196
  H   -0.95923236761204     -0.95418234833743     -1.00156511828695
  N   -2.03889445136015      0.16494246356761      0.36536264920584
  H   -1.86140175905862      1.00070854451475      0.89834277162418
  H   -2.70086948681798      0.30954846179004     -0.37588247060484
  N   0.39104891762434      1.34738909069148     -0.48800044997277
  O   0.20870891933227      2.40463588144766      0.11542116546783
  O   0.51661890635130      1.23288280226226     -1.70544932156603
  C   1.62709535679865     -0.74278011176946     -0.02496002515978
  H   1.63225547651019     -1.63507179250969      0.59993200455145
  H   1.60612554738151     -1.04102794655792     -1.07332562300527
  H   2.54278000119779     -0.17809237008843      0.16081136838213
