15
Coordinates from ORCA-job run
  C   -0.99697780468483     -0.21060260871161      0.66911044524478
  C   0.45129993165793      0.26076113442541      0.48410730178445
  F   -1.63590148407139      0.83391751021397      1.34096803246501
  H   0.85345360008357      0.52399953893923      1.46265763254277
  H   -0.97926635853170     -1.06170691830284      1.35710511888120
  N   -1.72174597543235     -0.55973886260674     -0.48822711570664
  H   -1.81467001681327     -1.54879419849494     -0.64151295127921
  H   -1.44803684522513     -0.05616733479939     -1.31756893991608
  N   0.45637957884411      1.55018436376178     -0.27669206923065
  O   0.84083043747979      2.55786617569716      0.30689299363505
  O   0.07849343704286      1.50614946711923     -1.44984284210108
  C   1.31597783175748     -0.75561543862438     -0.23245072472348
  H   1.34201640983682     -1.68474114967683      0.34206774158209
  H   0.91964739323409     -0.96567243840812     -1.22495394181195
  H   2.33949986482203     -0.38983924053193     -0.33266068136627
