16
Coordinates from ORCA-job run
  C   -0.76935951887866      0.16570816964173     -0.21667974177179
  C   0.58459842502557      0.37408903122443      0.46679412423562
  Cl  -1.53774411341768      1.83986238060098     -0.30622688850728
  H   0.42214706157190      0.73146703778371      1.48872459851245
  N   -1.75021103942781     -0.59355824456032      0.67255186307242
  O   -2.49025574007315     -1.38836165508243      0.11084109387324
  O   -1.74657022462788     -0.29890909057292      1.85771330606673
  N   -0.60422293670796     -0.48533088080227     -1.42481221018993
  H   -1.47085370380653     -0.68913917442691     -1.90153005751983
  H   0.06522549346975      0.00927278948095     -2.00122175779995
  N   1.41366919446751      1.18440913781589     -0.38489307640394
  H   1.27949990673434      2.16330491762709     -0.17119730264165
  H   2.38403846105692      0.93491947876167     -0.23863880655762
  N   1.24549850243367     -0.98670606777450      0.62734441786794
  O   2.44171859718229     -1.07298560713173      0.37068760479102
  O   0.53382163499771     -1.88704222258538      1.04954283297260
