14
Coordinates from ORCA-job run
  C   0.66776506153773     -0.08646171361152     -0.55409883530413
  C   -0.78565394980930      0.09394437164102     -0.09674873442841
  Cl  0.65760433713940     -0.77487992689321     -2.20532678708507
  H   -1.24950728355972     -0.89791435025423     -0.08414716917470
  H   1.13722539392995      0.89766049993157     -0.64127647981132
  C   1.45466566731874     -0.98359475296566      0.37910595125474
  H   2.47855837018050     -1.09464701004218      0.01966624764028
  H   1.46382561726945     -0.55549792258051      1.38086790149418
  H   0.99686576988953     -1.97444087562968      0.42441786898363
  C   -1.54114619697335      0.93255727571700     -1.04962251058199
  N   -2.15948729192203      1.66172331633092     -1.73228415223049
  N   -0.80672569768145      0.62642062464771      1.26126721578310
  H   -1.73783125637024      0.54004810880437      1.65065675312888
  H   -0.57715854094920      1.61408235490439      1.24652273033130
