14
Coordinates from ORCA-job run
  C   0.50385740024932     -0.43979151304727     -0.67935975302436
  C   -0.83611425576000      0.23452763149562     -0.34699387412886
  Cl  0.17486700603967     -2.18163900528105     -0.97796385176188
  H   -1.51548961104269      0.04654730292700     -1.19250040073283
  H   0.85549298104275     -0.04480310260518     -1.63473677457128
  C   1.55384570826968     -0.27968279422005      0.39933644845870
  H   1.77244742541270      0.78157775859566      0.54342631654805
  H   1.19932873009894     -0.69281488883011      1.34194967709370
  H   2.47372338547868     -0.78650301168093      0.10491050301787
  C   -0.61965232776162      1.68600159056650     -0.28160482539470
  N   -0.44256661359367      2.84588418359187     -0.24794362185583
  N   -1.34605696210883     -0.23232889550866      0.93666456578512
  H   -2.18656557309872      0.27704195407228      1.18099682815267
  H   -1.58811729322621     -1.21301721007568      0.85381876241364
