14
Coordinates from ORCA-job run
  C   0.44409132706158     -0.66310559090245     -0.30552049349636
  C   -0.66720247062024      0.38376917003587     -0.23479289420825
  Cl  0.10964745249246     -1.96411874644558      0.88163193919790
  H   -0.41714132339709      1.14233500701427     -0.98636533280963
  H   0.36569424950964     -1.12954367728312     -1.28945685381613
  C   1.82372933893234     -0.08656734697361     -0.06235277454846
  H   2.58246064350286     -0.86271054268041     -0.16818288811112
  H   1.89956017301953      0.33423858782853      0.94178146826815
  H   2.03122220886143      0.70082265407527     -0.79292515430631
  C   -0.66045748090909      1.05940272328112      1.08019045999477
  N   -0.67877969023353      1.62027830775000      2.11215073101671
  N   -1.94623944849257     -0.19482950833220     -0.61043180101356
  H   -2.65476042877991      0.52780086727582     -0.65346967485769
  H   -2.23382455094739     -0.86977190464350      0.08874326868998
