14
Coordinates from ORCA-job run
  C   0.53105900573927     -0.43115948380558     -0.73334912324179
  C   -0.86328190035407      0.11794706341378     -0.39153297288986
  Cl  0.37146871551730     -2.15035388409731     -1.19103971393277
  H   -1.53917600517454     -0.16778917217573     -1.20261684220164
  H   0.88964935136360      0.08345855506310     -1.62779276535039
  C   1.52204581423618     -0.28342226398561      0.40372121762031
  H   2.50624597448824     -0.63613585104727      0.09457862669243
  H   1.61098249361922      0.76723879652665      0.69519571934226
  H   1.20333822031067     -0.87722997500288      1.26092622926882
  C   -0.78456046710493      1.59445493392663     -0.37369530648994
  N   -0.70615332330594      2.76502015331542     -0.30848146033872
  N   -1.37463726543759     -0.45149442101354      0.84330587309143
  H   -2.38109166565140     -0.35590600838032      0.88366619897345
  H   -0.98688894824600      0.02637155726265      1.64711431945642
