14
Coordinates from ORCA-job run
  C   0.74601381407791      0.00875830494379     -0.45129364527199
  C   -0.76433203283627      0.10592728343853     -0.19951812188503
  Cl  1.00504525247525     -0.39753726065002     -2.17426641734819
  H   -1.19593300025582     -0.87592602669343     -0.42039602436280
  H   1.19491174654909      0.99532693610315     -0.30421918636109
  C   1.40843333394227     -1.02753911470710      0.43312553783738
  H   0.97737501826149     -2.01371568824670      0.24587247752751
  H   2.47756955392493     -1.07452623175092      0.22191184792700
  H   1.25421594429817     -0.77085273692042      1.48060620715534
  C   -1.39125065575076      1.08787201750013     -1.10777153719537
  N   -1.91991474585413      1.91789901156829     -1.74934066477281
  N   -1.00572867509184      0.40633874686577      1.20743695143724
  H   -0.80532458169923      1.38365870510330      1.38926098336863
  H   -1.98208097204106      0.25331605344564      1.42959159194419
