14
Coordinates from ORCA-job run
  C   0.45826913845751     -0.41347317235828     -0.69724726637365
  C   -0.91533439010850      0.22952398080430     -0.39885029450064
  Cl  0.18525015856548     -2.15996902293905     -1.00282439889619
  H   -1.56668259865644      0.01343600132504     -1.25261437968985
  H   0.83215407504948     -0.00467027383360     -1.63905108047067
  C   1.47821712486747     -0.23318475629582      0.40758855399920
  H   2.42655936550128     -0.69093118249157      0.12466071356609
  H   1.64946867508068      0.83091638560270      0.59017510711275
  H   1.14225504358627     -0.70698428455007      1.33123211019599
  C   -0.72328174354837      1.68631641473897     -0.34871272938906
  N   -0.51188756000933      2.84007614640793     -0.30448886032771
  N   -1.61044687320121     -0.20311857452569      0.79849890577938
  H   -1.76741341841223     -1.20266859642666      0.76174201386608
  H   -1.07612699717210      0.01473093454179      1.62989160512825
