14
Coordinates from ORCA-job run
  C   0.74599429566230      0.01688069643513     -0.45120864196540
  C   -0.76705241840505      0.07726526210942     -0.20365822335582
  Cl  1.01859472018527     -0.43333899818040     -2.16128347509449
  H   -1.16904369340045     -0.92301325639842     -0.39622871678668
  H   1.16552260951736      1.02031004770175     -0.33409381901285
  C   1.43764541488793     -0.97211208661475      0.46430619997417
  H   2.50779332166477     -0.99477868162212      0.25400840552208
  H   1.27572320223467     -0.68768015123792      1.50348590708388
  H   1.03505548919366     -1.97562661553862      0.30812574056770
  C   -1.42062112606105      1.01442258997076     -1.13951818651427
  N   -1.97274729654964      1.81012861323228     -1.80452973006697
  N   -1.01966708310042      0.41090048256507      1.19395407376369
  H   -0.84460148463457      1.39786881825251      1.34830165533629
  H   -1.99259595119477      0.23977327932532      1.41833881054867
