14
Coordinates from ORCA-job run
  C   0.45792902217483     -0.64931488145225     -0.31568316518740
  C   -0.70022390596193      0.34120815466308     -0.20007646372838
  Cl  0.27979908368920     -1.91978964388514      0.93672610887921
  H   -0.54571212007328      1.08157125658941     -0.99428750247128
  H   0.33497010833971     -1.15667968141474     -1.27443838078567
  C   1.81804284392289      0.00636657232449     -0.19349136869554
  H   1.94213121806303      0.46738782670557      0.78798130486848
  H   2.60853929929722     -0.73269404665903     -0.32850706276906
  H   1.92979790055978      0.77590907351793     -0.96300629797169
  C   -0.63737825578549      1.06579138552846      1.08730158764945
  N   -0.63166213567514      1.64691661543201      2.10823538428170
  N   -1.97000626547508     -0.31609500706430     -0.45957382411252
  H   -2.71795307856152      0.36693198100867     -0.47264410528154
  H   -2.16827371451422     -0.97850960529416      0.28146378532425
