14
Coordinates from ORCA-job run
  C   0.41353321236679     -0.64845516723573     -0.10216475860943
  C   -0.76035559231659      0.33999488842621     -0.22931324844473
  Cl  0.29181502655523     -1.52093218761904      1.45633292348507
  H   -0.65075207602441      0.81329736934375     -1.21391615993949
  H   0.27984323283932     -1.40821542859095     -0.87787073187555
  C   1.77093162472734      0.01447855098744     -0.22307407186595
  H   2.56545751896727     -0.73213333316483     -0.19508900807488
  H   1.83781015919480      0.55550429167157     -1.17179985585365
  H   1.92996873074559      0.71913388835805      0.59472835332347
  C   -0.62569189695810      1.40795876915603      0.77239028005181
  N   -0.49222253211894      2.25378250944966      1.57475080005447
  N   -2.09999201138119     -0.21457274320712     -0.16339745314144
  H   -2.22299540918475     -0.71609396347095      0.70820274323235
  H   -2.23934998741236     -0.86574744410411     -0.92677981234205
