14

C	-0.388818	0.071186	-1.47871
C	0.0	0.0	0.0
F	-0.165062	-1.218635	-2.002298
H	1.09229	0.0	0.0
H	-1.455979	0.257958	-1.620596
N	0.401204	1.073707	-2.066316
H	0.237188	1.149666	-3.060049
H	1.389796	0.918861	-1.874292
N	-0.566087	-1.257436	0.587084
O	0.212913	-2.106916	0.994445
O	-1.794516	-1.337993	0.589936
C	-0.532375	1.140265	0.729372
N	-0.991247	2.050955	1.310807
Br	3.421265	0.0	0.0
