16

C	-0.362764	0.107454	-1.472268
C	0.0	0.0	0.0
F	-1.668882	0.683607	-1.614618
H	1.088422	0.0	0.0
H	-0.422822	-0.888085	0.467378
C	0.633394	0.958572	-2.228598
H	1.625697	0.668184	-1.866243
H	0.46555	2.006639	-1.988746
H	0.534689	0.80904	-3.309215
N	-0.383851	-1.219142	-1.998522
H	-1.109578	-1.756644	-1.538874
H	-0.580645	-1.185277	-2.991426
N	-0.46652	1.14119	0.797349
O	-0.300767	2.278812	0.358499
O	-0.961786	0.903769	1.903159
F	2.61131	0.0	0.0
