16

C	-0.391089	-0.038137	-1.485463
C	0.0	0.0	0.0
F	-0.24543	1.272787	-1.95558
H	1.088088	0.0	0.0
H	-0.407099	-0.887294	0.490066
C	0.631876	-0.90039	-2.196524
H	1.620574	-0.605357	-1.826861
H	0.480993	-1.955791	-1.945873
H	0.527722	-0.768839	-3.275505
N	-1.751199	-0.413403	-1.805193
H	-2.366655	0.028231	-1.128208
H	-1.839223	-1.415048	-1.685295
N	-0.64818	1.156814	0.640538
O	-1.860284	1.049512	0.897478
O	0.003476	2.172729	0.856306
F	2.658288	0.0	0.0
