16

C	-0.483821	-0.011376	-1.448814
C	0.0	0.0	0.0
F	-0.213086	1.258603	-1.96848
H	1.088102	0.0	0.0
H	-0.405239	-0.882493	0.50212
C	0.369385	-1.016042	-2.192128
H	0.118365	-2.033908	-1.876848
H	0.192768	-0.918611	-3.26455
H	1.409448	-0.816127	-1.919773
N	-1.899024	-0.222195	-1.673108
H	-2.408479	0.318027	-0.979485
H	-2.10492	-1.198452	-1.48902
N	-0.585823	1.162374	0.698822
O	-1.775396	1.073124	1.05961
O	0.098435	2.16873	0.861928
F	2.636298	0.0	0.0
