16

C	-0.22435	-0.039369	-1.519395
C	0.0	0.0	0.0
F	-0.150112	-1.417217	-1.907601
H	1.089525	0.0	0.0
H	-0.431052	0.907368	0.419856
C	-1.581173	0.416707	-2.013847
H	-2.367623	-0.185516	-1.556769
H	-1.635682	0.304436	-3.101296
H	-1.731716	1.466025	-1.756913
N	0.849282	0.711738	-2.051809
H	1.721912	0.475455	-1.542893
H	0.935705	0.567759	-3.049341
N	-0.648076	-1.139244	0.66283
O	-1.830609	-0.993324	1.009139
O	-0.010211	-2.17497	0.827491
F	2.673819	0.0	0.0
