16

C	-0.144466	-0.054246	-1.512577
C	0.0	0.0	0.0
F	-1.468624	-0.328532	-1.912927
H	1.090288	0.0	0.0
H	-0.419394	-0.899521	0.440317
C	0.29004	1.209589	-2.230355
H	-0.380583	2.04664	-2.045874
H	0.32221	1.001513	-3.304595
H	1.289352	1.451316	-1.867412
N	0.67546	-1.198314	-1.85665
H	1.577724	-1.035917	-1.38745
H	0.833078	-1.192208	-2.85899
N	-0.580644	1.142757	0.70319
O	-1.288651	0.902872	1.689102
O	-0.309242	2.28617	0.329121
F	2.629886	0.0	0.0
