16

C	-0.138236	-0.153416	-1.507287
C	0.0	0.0	0.0
F	-1.45617	-0.457678	-1.904761
H	1.089415	0.0	0.0
H	-0.477264	0.906904	0.35962
C	0.22442	1.194331	-2.115764
H	1.235272	1.425628	-1.771772
H	-0.469828	1.982849	-1.810216
H	0.211277	1.11673	-3.207401
N	0.731611	-1.212912	-1.936586
H	0.9492	-1.081271	-2.91824
H	1.598881	-1.097111	-1.397118
N	-0.569926	-1.113601	0.768035
O	-0.059288	-2.227003	0.669262
O	-1.537596	-0.861146	1.498928
F	2.64218	0.0	0.0
