14
Coordinates from ORCA-job run
  C   -0.49271015201692     -0.03833796687363      0.21842794490295
  C   0.78879300662027      0.08090659929427     -0.59975730202521
  Br  -1.84890629386988     -0.94282565552424     -0.87466462203252
  H   1.58936149620954      0.48196547713077      0.02839603056292
  H   0.62285681344449      0.71879760987162     -1.46609494340366
  C   -0.31431167813022     -0.80467831806469      1.44893066691515
  N   -0.20706571086858     -1.32602124821846      2.49693074797572
  C   -0.99866395986230      1.36298105128644      0.56320177266993
  H   -1.92655962017958      1.29776667972808      1.13115996936861
  H   -1.18277093253426      1.92985155412269     -0.35089978866739
  H   -0.25169241438265      1.88227450959163      1.17034627564709
  N   1.27922646274405     -1.22762350851455     -1.12621556703859
  O   1.53341778452376     -1.27965108912737     -2.32588698818665
  O   1.40902519830229     -2.13640569470258     -0.31287419668834
