14
Coordinates from ORCA-job run
  C   -0.72807840013995     -0.12654420401201      0.12006202654501
  C   0.22625770490174     -0.54206124663109     -1.00146229127336
  Br  -2.51959785844386     -0.18327293004751     -0.70148800713662
  H   0.10485184445514     -1.59669250592949     -1.25413813363397
  H   0.07244535282254      0.07993903133524     -1.88091661062464
  C   -0.74782351777166     -1.08341381860356      1.22258141888995
  N   -0.79593969806938     -1.83022464216341      2.12886924757861
  C   -0.45777452490792      1.28782266797096      0.61855710694664
  H   -0.46069802062688      1.98531591705886     -0.22144240214146
  H   0.51308465288534      1.32084338586218      1.11842526377242
  H   -1.22532910045040      1.58935231463322      1.33116499511396
  N   1.65293738478688     -0.34679009146267     -0.59277925972083
  O   1.98910088259831     -0.81068064849101      0.49344995176107
  O   2.37756329796010      0.25440677048028     -1.38088330607677
