14
Coordinates from ORCA-job run
  C   -0.47744712060896     -0.04160481397070      0.24979476410385
  C   0.75023542179885      0.05308473839024     -0.65003784927099
  Br  -1.81634473742744     -1.16836021763778     -0.63846604596333
  H   0.49599078556162      0.56013494381414     -1.57914439206345
  H   1.54971947082227      0.58419632528571     -0.12555225424194
  C   -0.18394162211964     -0.62623411092690      1.55564562450518
  N   0.01186968131442     -0.99849443237590      2.65322057409127
  C   -1.06568348636159      1.35700481515108      0.44185836357493
  H   -0.32786399114122      1.99963560816966      0.93063050283374
  H   -1.33779188632690      1.78465516868842     -0.52450563516880
  H   -1.95562970767453      1.30693168570171      1.06901842723491
  N   1.30770264514015     -1.27831041910979     -1.03313475940123
  O   1.54509191002528     -2.06080811974926     -0.11903316769132
  O   1.50309263699770     -1.47183117143063     -2.22929415254282
