14
Coordinates from ORCA-job run
  C   -0.43472500147210     -0.04005269061894      0.31819223885809
  C   0.65472002436312      0.00081204787454     -0.74827349052692
  Br  -1.71607579707062     -1.45010522370965     -0.15256830063911
  H   0.22913211206348      0.28649054994997     -1.70860897088173
  H   1.43687101632568      0.70359699279582     -0.44720110762617
  C   0.08469571333387     -0.32383129860994      1.65341115965610
  N   0.45624974780679     -0.45105247508404      2.76126286408161
  C   -1.16914724682009      1.30129994480536      0.33482379278989
  H   -1.60661440199715      1.50073631893623     -0.64481202928832
  H   -0.46632244984939      2.09960663360877      0.58994258365787
  H   -1.96446652224552      1.28446365877609      1.07981911804525
  N   1.32700472704226     -1.31600740390220     -0.95840767736642
  O   1.76967086970608     -1.87503820077801      0.03949574183742
  O   1.40100720881360     -1.71991885404401     -2.11507592259757
