14
Coordinates from ORCA-job run
  C   -0.72170902672052     -0.13662761109461      0.10953741968963
  C   0.23732305784300     -0.52742442572568     -1.01987933232660
  Br  -2.52258721582851     -0.34383161824984     -0.65626380244577
  H   0.10053385380755     -1.56884074639289     -1.30635034668102
  H   0.10066804480738      0.14285866807208     -1.86704363740465
  C   -0.61893817154170     -1.06352940059522      1.23324456106850
  N   -0.52951955034104     -1.77906089453613      2.16166580379131
  C   -0.54313914729254      1.30341421558929      0.57666901383013
  H   -0.62015763801944      1.98256494838489     -0.27373935812113
  H   -1.31150547363416      1.55523947984197      1.30781053321976
  H   0.43794372069979      1.42692145328105      1.03982014324221
  N   1.65045637307094     -0.37354457863311     -0.55906651049193
  O   2.18664617957565      0.71435113734639     -0.76508145407424
  O   2.15398499357360     -1.33549062728819      0.01667696670379
