14
Coordinates from ORCA-job run
  C   -0.43669131953663     -0.03994190383011      0.31588130572963
  C   0.65817542831145      0.00044924561406     -0.74503324076000
  Br  -1.71854003088715     -1.44658199946194     -0.16328946133699
  H   1.44069120407307      0.70052422100473     -0.43859283062857
  H   0.23840117521830      0.28948322411494     -1.70693816923725
  C   0.07601052174847     -0.32673691406881      1.65308263603253
  N   0.44302129354588     -0.45539796474328      2.76229244764473
  C   -1.16836860833155      1.30288602446883      0.33104098091528
  H   -0.46511378073071      2.09936971762012      0.59051045114940
  H   -1.60095693320288      1.50458939041222     -0.65026681092563
  H   -1.96703324541632      1.28676076007387      1.07247152761046
  N   1.32842197775315     -1.31749880563840     -0.95465399132622
  O   1.40740175443724     -1.71909750381039     -2.11176951943671
  O   1.76458056301772     -1.87980749175583      0.04426467456933
