14
Coordinates from ORCA-job run
  C   -0.41654839812963     -0.01102180945974      0.34448539070087
  C   0.61139477157598     -0.06766100436189     -0.78076782093460
  Br  -1.71699562159132     -1.45579000142863      0.07507800589560
  H   1.40697451981330      0.65776903893059     -0.58804781331937
  H   0.13186946368204      0.13197756013606     -1.73742910829380
  C   0.17819046296667     -0.17401072979644      1.66846578012115
  N   0.61215622920514     -0.20102159720916      2.76050207005725
  C   -1.15361474198618      1.32749493079622      0.28158810759394
  H   -0.44040282644010      2.14452647228566      0.42321136285555
  H   -1.90526698916755      1.37942210081218      1.06909757479091
  H   -1.64665586999736      1.43822512226130     -0.68559278727442
  N   1.27544632840564     -1.39896800394368     -0.90962472257001
  O   1.28657484780036     -1.90465471741647     -2.02793553550064
  O   1.77487782386303     -1.86728736160595      0.10796949587753
