14
Coordinates from ORCA-job run
  C   -0.43043807568896     -0.01408395324679      0.32471179694880
  C   0.64390257578741     -0.05156387634602     -0.75793279870818
  Br  -1.73808434259242     -1.43042924444295     -0.04344776875750
  H   1.43933402725837      0.65625648531657     -0.50850795832762
  H   0.20709648574568      0.18247261231391     -1.72715158975734
  C   0.10576781596906     -0.22882446311864      1.66620990792031
  N   0.49336461199868     -0.30289646887748      2.77340991926794
  C   -1.14530069106590      1.33674324715202      0.27400750199894
  H   -0.42744601211410      2.13769978201709      0.47250673066859
  H   -1.59445633176591      1.48575750956144     -0.70928703718700
  H   -1.92959424610455      1.37505592051058      1.02983707781300
  N   1.29347616515687     -1.38855614904028     -0.89632742198167
  O   1.78153419615683     -1.87078626583680      0.12059460011756
  O   1.30084382125899     -1.88784513596267     -2.01762296001576
