14
Coordinates from ORCA-job run
  C   -0.59071090485589     -0.16027617678010      0.25742984252312
  C   0.66283968934643     -0.79619721055533     -0.35900185360216
  Br  -2.04143826471474     -0.19662962919908     -1.06568496240028
  H   1.47558804936461     -0.76158952868116      0.36996427051202
  H   0.46253190512036     -1.81835559053398     -0.67391029778689
  C   -0.98782900302617     -1.03343627556051      1.36079511046416
  N   -1.26025676258077     -1.72777850619668      2.26952776181029
  C   -0.40739355635427      1.26852087545513      0.76065312835159
  H   0.41462934656096      1.29789991614236      1.48079749579732
  H   -0.17530637501656      1.93879598394045     -0.06422158843767
  H   -1.32281676900508      1.60165810721002      1.25009302598291
  N   1.13605400985434     -0.05630038448587     -1.56399547178855
  O   1.64895199946361      1.04433037945266     -1.36781937722093
  O   0.98415663584317     -0.60064196020793     -2.65362708420497
