15

C	-0.504525	-0.072405	-1.433162
C	0.0	0.0	0.0
Br	-0.203271	1.656493	-2.335574
H	1.094998	0.0	0.0
H	-1.59356	-0.178155	-1.456702
H	-0.344999	0.92863	0.46322
C	0.163415	-1.166945	-2.243579
H	-0.149672	-1.137691	-3.289274
H	-0.110846	-2.142801	-1.832591
H	1.247213	-1.057538	-2.181066
C	-0.489628	-1.195713	0.81958
H	-1.580804	-1.299819	0.787044
H	-0.041973	-2.128437	0.470912
H	-0.191169	-1.07173	1.863217
Cl	3.635061	0.0	0.0
