15
Coordinates from ORCA-job run
  C   -0.57853746062311     -0.12946465603004     -0.06989083404985
  C   0.63524481763417     -0.79663678753518      0.56877752853365
  Br  -2.17560315765718     -1.23222385180678      0.57004991237621
  H   0.48994611578721     -0.83224617829920      1.65027663326599
  H   0.68195042783675     -1.83724532726573      0.21042265437323
  N   -0.45168646414405     -0.16925401345244     -1.48149293044496
  H   -1.20307541977058      0.32709048778256     -1.94365385200478
  H   -0.42512348552336     -1.12066789891542     -1.82812288832941
  C   -0.81201455110561      1.28564564581950      0.41544678344125
  H   -1.72371998512933      1.69756466221928     -0.02323262099182
  H   0.04642701285268      1.89383311305962      0.12952970822628
  H   -0.91541587660475      1.30438491639610      1.50028555016213
  N   1.81739379077681      0.00565817416408      0.27420954400652
  H   2.62320741874466     -0.38147490575046      0.74895189540064
  H   1.99200681692571     -0.01596338038587     -0.72255708396507
