15
Coordinates from ORCA-job run
  C   -0.46267989123186     -0.04352798872091     -0.27022259988990
  C   0.98643984537814     -0.48267062444208     -0.09803653030653
  Br  -1.57919267877026     -1.43999609064240      0.76340455384823
  H   1.10883388143795     -1.45723910656443     -0.59623905896667
  H   1.58078188993739      0.24907971149744     -0.65550471392450
  N   -0.79782348812978     -0.04278200490300     -1.64032537016516
  H   -1.75295990420261      0.25202838066580     -1.79733733552189
  H   -0.65515752340581     -0.94825877303765     -2.06992071081541
  C   -0.76713566839672      1.28913580448709      0.37563532400762
  H   -0.48737024577075      1.27229668411278      1.42589015512489
  H   -0.18242287589694      2.05716085332004     -0.13959414966607
  H   -1.82792580436911      1.53207364211056      0.28462444182473
  N   1.40779891547870     -0.45844544116928      1.29246188809833
  H   2.41586552161681     -0.52555813944416      1.34451741804047
  H   1.01494802632483     -1.25229690726981      1.78264668831186
