12
Coordinates from ORCA-job run
  C   -0.49919962239719     -0.26186490992798     -0.77170729269821
  C   0.73446607988155     -0.61118120822977      0.01083621424318
  H   -0.32372651276874      0.51103064965067     -1.51533216419537
  H   0.53509563801257     -1.29804823350717      0.82919867926308
  H   -0.91062589538704     -1.14827466264422     -1.25943731001200
  H   1.49944233342324     -1.03718373673438     -0.64187019652450
  N   -1.58765768541560      0.26189126745600      0.11802847412606
  O   -2.51548586808941      0.82615647042995     -0.44807634374416
  O   -1.48847566193717      0.05971845513080      1.32474621832665
  N   1.35508042886321      0.60367126653888      0.63534990245701
  O   0.99719182769614      1.70486330421201      0.22757319655119
  O   2.20389493811845      0.38922133762521      1.49169062220706
