12

C	0.0	0.0	0.0
C	-0.519233	0.036581	-1.436087
F	1.382872	0.0	0.0
H	0.331108	-0.239214	-2.068308
H	-0.364352	0.863134	0.556694
H	-1.314459	-0.703251	-1.549205
C	-0.374021	-1.247062	0.699213
N	-0.499857	-2.274496	1.251833
N	-0.955377	1.395275	-1.758344
H	-1.105882	1.448859	-2.760005
H	-1.878271	1.472639	-1.328908
Cl	-3.387496	0.0	0.0
