12

C	0.0	0.0	0.0
C	-0.529289	-0.004205	-1.413154
F	1.389226	0.0	0.0
H	-1.618253	-0.039504	-1.317727
H	-0.352546	0.893379	0.516641
H	-0.184489	-0.920579	-1.913077
C	-0.390487	-1.207478	0.753509
N	-0.588636	-2.16663	1.399158
N	-0.111195	1.22915	-2.077432
H	0.757514	1.08758	-2.57424
H	-0.819592	1.503757	-2.743446
Cl	-3.651249	0.0	0.0
