12

C	0.0	0.0	0.0
C	-0.523294	0.04833	-1.435714
F	1.383323	0.0	0.0
H	0.324873	-0.225496	-2.07257
H	-0.358313	0.859907	0.565261
H	-1.315598	-0.694658	-1.552687
C	-0.374191	-1.249094	0.696626
N	-0.522305	-2.257274	1.277976
N	-0.971643	1.406788	-1.73967
H	-1.152039	1.463981	-2.735662
H	-1.882848	1.468177	-1.285366
Cl	-3.410355	0.0	0.0
