12

C	0.0	0.0	0.0
C	-0.427514	0.100734	-1.449999
F	1.390222	0.0	0.0
H	-1.516712	0.062039	-1.470867
H	-0.366096	0.841025	0.591802
H	-0.102026	1.090366	-1.807024
C	-0.41892	-1.263643	0.632366
N	-0.663562	-2.256908	1.206356
N	0.152348	-1.015524	-2.188111
H	1.125447	-0.838349	-2.391791
H	-0.341705	-1.149091	-3.05928
Cl	-3.478605	0.0	0.0
