12

C	0.0	0.0	0.0
C	-0.447614	-0.183988	-1.461625
F	1.383716	0.0	0.0
H	0.151095	0.539906	-2.026744
H	-0.352614	0.953776	0.400931
H	-0.114186	-1.180448	-1.769826
C	-0.43414	-1.101626	0.87235
N	-0.633987	-2.050113	1.534327
N	-1.836314	-0.010906	-1.78381
H	-2.156388	0.925224	-1.571993
H	-2.467156	-0.601322	-1.248142
Cl	-4.515981	0.0	0.0
