12

C	0.0	0.0	0.0
C	-0.429241	0.163912	-1.452548
F	1.388236	0.0	0.0
H	0.11157	-0.596212	-2.026326
H	-0.368072	0.820673	0.617215
H	-1.499935	-0.015678	-1.521779
C	-0.409431	-1.284575	0.590339
N	-0.578562	-2.339676	1.07781
N	-0.112328	1.483623	-1.988994
H	0.809405	1.76066	-1.676549
H	-0.781672	2.146055	-1.614948
Cl	-3.417069	0.0	0.0
