12

C	0.0	0.0	0.0
C	-0.440579	-0.253901	-1.425684
F	1.39036	0.0	0.0
H	-0.15132	0.634769	-2.009292
H	-0.368358	0.955603	0.374582
H	-1.528514	-0.330154	-1.416861
C	-0.388881	-1.091554	0.912649
N	-0.547478	-2.002409	1.634319
N	0.171474	-1.493384	-1.892537
H	-0.30857	-1.827039	-2.71581
H	1.143159	-1.338923	-2.124204
Cl	-3.50225	0.0	0.0
