12

C	0.0	0.0	0.0
C	-0.482302	-0.102606	-1.440426
F	1.378855	0.0	0.0
H	-1.461596	0.369983	-1.507599
H	-0.354548	0.926843	0.455771
H	0.250141	0.464092	-2.025801
C	-0.403386	-1.140747	0.842737
N	-0.556346	-2.085989	1.520512
N	-0.470525	-1.49763	-1.884433
H	-1.33808	-1.91203	-1.55475
H	-0.508813	-1.515145	-2.896666
Cl	-3.40185	0.0	0.0
