12

C	0.0	0.0	0.0
C	-0.443054	-0.363834	-1.43365
F	1.383594	0.0	0.0
H	0.234109	-1.172334	-1.731812
H	-0.366221	0.976863	0.323002
H	-0.205101	0.498523	-2.063791
C	-0.414132	-1.035432	0.965066
N	-0.644676	-1.900088	1.72393
N	-1.80143	-0.775962	-1.659048
H	-2.009029	-1.63201	-1.164211
H	-2.500638	-0.119077	-1.318921
Cl	-4.475745	0.0	0.0
