12

C	0.0	0.0	0.0
C	-0.323404	-0.190006	-1.492272
F	1.388634	0.0	0.0
H	-1.380873	-0.381192	-1.642343
H	-0.382063	0.944404	0.389244
H	0.257312	-1.066013	-1.801734
C	-0.404605	-1.135868	0.842123
N	-0.482336	-2.097466	1.510516
N	0.101283	0.947584	-2.301206
H	-0.517406	1.72562	-2.115103
H	1.037042	1.220195	-2.029139
Cl	-3.257298	0.0	0.0
