16

C	-0.434517	0.289537	-1.448912
C	0.0	0.0	0.0
Br	-2.338427	0.65175	-1.537327
H	1.116	0.0	0.0
N	0.29974	1.388373	-2.00232
H	0.006451	2.253225	-1.563742
H	1.291326	1.234154	-1.799991
N	-0.094094	-0.901086	-2.368754
O	-0.954464	-1.381927	-3.086307
O	1.08937	-1.201448	-2.327947
N	-0.491095	-1.285009	0.584606
O	-0.586883	-1.341188	1.805544
O	-0.712504	-2.203003	-0.199691
C	-0.403011	1.110893	0.848149
N	-0.715244	2.054726	1.473183
Br	3.287835	0.0	0.0
