16

C	-0.535771	0.007392	-1.433168
C	0.0	0.0	0.0
Br	-2.528529	-0.319932	-1.353819
H	1.091419	0.0	0.0
N	-0.185764	1.191751	-2.086792
H	-0.526566	1.2167	-3.039271
H	-0.439605	2.02874	-1.580265
N	0.060306	-1.110089	-2.317802
O	1.168712	-1.502976	-2.004145
O	-0.577046	-1.392505	-3.326037
N	-0.405791	-1.232353	0.760473
O	-0.423509	-2.285075	0.134153
O	-0.622364	-1.100424	1.96012
C	-0.483092	1.184254	0.691762
N	-0.830348	2.194399	1.181681
Br	3.354451	0.0	0.0
