16

C	-0.303872	0.006543	-1.493759
C	0.0	0.0	0.0
Br	0.158853	1.845866	-2.185826
H	1.093128	0.0	0.0
N	0.398148	-1.044007	-2.05614
H	0.263957	-1.127318	-3.054307
H	1.384763	-0.998983	-1.792542
N	-1.787086	-0.09272	-1.842784
O	-2.553671	0.595767	-1.191696
O	-2.079475	-0.824181	-2.780664
N	-0.447315	-1.336818	0.563207
O	0.386543	-1.991252	1.170009
O	-1.619627	-1.648737	0.374785
C	-0.562368	1.062073	0.809288
N	-0.974137	1.893969	1.529105
Br	3.325878	0.0	0.0
