16

C	-0.467171	0.054316	-1.456671
C	0.0	0.0	0.0
Br	-2.395372	0.334333	-1.648772
H	1.114161	0.0	0.0
N	0.197029	1.084204	-2.178986
H	-0.133756	1.100233	-3.134954
H	1.202401	0.917334	-2.167476
N	-0.053541	-1.213956	-2.297424
O	-0.672947	-1.414122	-3.330039
O	1.045084	-1.668953	-2.001439
N	-0.539815	-1.043384	0.935662
O	0.257625	-1.434903	1.791493
O	-1.757126	-1.25514	0.941682
C	-0.229657	1.31639	0.544029
N	0.141076	2.504896	0.559713
Br	2.964543	0.0	0.0
