16

C	-0.607225	-0.037014	-1.406408
C	0.0	0.0	0.0
Br	0.300074	-1.249998	-2.614608
H	1.115583	0.0	0.0
N	-1.986152	-0.329093	-1.366757
H	-2.383897	-0.265339	-2.294221
H	-2.46041	0.325214	-0.753009
N	-0.3327	1.363078	-2.059034
O	0.638448	1.996159	-1.677546
O	-1.132275	1.693219	-2.93126
N	-0.358301	-1.243954	0.783176
O	-0.265958	-2.315527	0.205289
O	-0.631864	-1.08644	1.970789
C	-0.542122	1.153057	0.704865
N	-1.052501	2.090768	1.196949
Br	3.301051	0.0	0.0
