16

C	-0.499308	-0.045196	-1.430663
C	0.0	0.0	0.0
F	-1.894461	-0.357316	-1.387687
H	1.093817	0.0	0.0
H	-0.031999	-0.869758	-1.964899
N	-0.268461	1.170461	-2.110325
H	-0.801166	1.923949	-1.697957
H	-0.511128	1.084102	-3.087318
N	-0.403077	-1.300308	0.634954
O	-0.938437	-1.281234	1.743216
O	-0.152111	-2.32507	0.005464
C	-0.516751	1.176735	0.797459
H	-0.193418	1.092472	1.832929
H	-1.607166	1.236987	0.773926
H	-0.076072	2.088959	0.390403
Cl	3.363103	0.0	0.0
