16

C	-0.492304	-0.013018	-1.434675
C	0.0	0.0	0.0
F	-1.881179	-0.349379	-1.410831
H	1.091995	0.0	0.0
H	-0.006204	-0.813797	-1.988237
N	-0.278009	1.22615	-2.077727
H	-0.832084	1.955118	-1.649658
H	-0.510374	1.162142	-3.059024
N	-0.403775	-1.317279	0.597461
O	-0.121029	-2.325164	-0.045147
O	-0.975942	-1.326808	1.687625
C	-0.523043	1.155456	0.823445
H	-0.078565	2.077426	0.443719
H	-0.209366	1.043782	1.859407
H	-1.613299	1.216721	0.792867
Cl	3.364321	0.0	0.0
