16

C	-0.352538	0.081133	-1.481355
C	0.0	0.0	0.0
F	-1.722312	0.320941	-1.612826
H	1.092847	0.0	0.0
H	-0.141424	-0.878262	-1.95162
N	0.360429	1.104713	-2.19325
H	1.345551	0.850059	-2.182333
H	0.28931	1.98048	-1.686743
N	-0.450355	-1.316685	0.553474
O	-0.233553	-2.320142	-0.124808
O	-0.992718	-1.337068	1.659
C	-0.529446	1.143391	0.836158
H	-1.61922	1.153917	0.858627
H	-0.15108	1.068168	1.853948
H	-0.170088	2.087529	0.421359
Cl	3.322052	0.0	0.0
