16

C	-0.495487	0.000413	-1.450019
C	0.0	0.0	0.0
F	-0.171206	-1.236522	-1.986539
H	1.090209	0.0	0.0
H	0.085666	0.757085	-1.986455
N	-1.892124	0.227427	-1.685492
H	-2.436726	-0.248892	-0.976219
H	-2.096898	1.216175	-1.65147
N	-0.508234	-1.235431	0.662288
O	0.280752	-2.116286	0.97556
O	-1.734572	-1.299735	0.843029
C	-0.47671	1.217232	0.770207
H	-0.058319	1.200401	1.778273
H	-1.564127	1.266531	0.832208
H	-0.094553	2.114473	0.276151
Cl	3.411567	0.0	0.0
