16

C	-0.41148	0.038877	-1.463959
C	0.0	0.0	0.0
F	-1.815436	0.098985	-1.513701
H	1.092838	0.0	0.0
H	-0.12989	-0.898407	-1.94245
N	0.142672	1.134463	-2.188113
H	0.971892	0.83237	-2.679356
H	0.417188	1.887058	-1.571967
N	-0.437703	-1.315444	0.56938
O	-1.08756	-1.324688	1.617191
O	-0.118057	-2.327289	-0.054203
C	-0.54009	1.144948	0.827869
H	-0.202034	1.049969	1.858592
H	-0.149991	2.090709	0.444328
H	-1.629172	1.171555	0.809243
Cl	3.366953	0.0	0.0
