12
Coordinates from ORCA-job run
  C   1.01745715750872      0.09968117577688      0.24385151694766
  C   -0.40645576512821     -0.11049640427674     -0.30038712335316
  H   1.08973980885196     -0.37243569723835      1.22624636562747
  H   -0.50381320770342      0.44177351104910     -1.24686422113933
  H   1.72695071486939     -0.40469985047282     -0.41942450953889
  C   1.36880644159705      1.51500606302013      0.32984492663924
  N   1.63709173253545      2.65613930864386      0.38030027363178
  C   -1.38543616036323      0.45820748272387      0.63394991789164
  N   -2.17635474312409      0.90385271422059      1.37770593482005
  N   -0.63670360316706     -1.54844863322696     -0.42052475766666
  H   -0.11444628999345     -1.90507735210083     -1.21284535435418
  H   -1.61783608588310     -1.73450231811873     -0.59085296950562
