12
Coordinates from ORCA-job run
  C   0.58769457967093      0.82307817949993      0.40468478505267
  C   -0.47014910212872     -0.02813220338432     -0.32142017062228
  H   0.47585916705643      1.87925252341650      0.14647643206897
  H   -0.34565437673439      0.11707859652416     -1.40553986196118
  H   0.44726315765282      0.70651831241968      1.48196620585188
  C   1.92540692539021      0.36634172395603      0.03393679717745
  N   2.97321454774165     -0.04455550957963     -0.29848980805191
  C   -1.80254583005064      0.47674772284474      0.03348827648805
  N   -2.86742661647700      0.88762873708320      0.30637560869213
  N   -0.34675877351068     -1.41416330524014      0.11546001817478
  H   0.52581932120824     -1.79812948674496     -0.23138182504522
  H   -1.10272299981886     -1.97066529079517     -0.26555645782535
