12
Coordinates from ORCA-job run
  C   0.59631042664242      0.74941528217402      0.37306818101579
  C   -0.56096896386282      0.00371362696411     -0.34282483706391
  H   0.57951933296421      0.51097082038266      1.44094737590723
  H   -0.56078578371599      0.30745673573616     -1.39492347694400
  H   0.48025653508350      1.83274231583480      0.27231239372016
  C   1.87396925527344      0.33189192062164     -0.19776741111988
  N   2.86920314043020     -0.04616410746691     -0.69172993249635
  C   -1.82613829928025      0.46119861523551      0.25007902077372
  N   -2.80712846872784      0.84936553602570      0.76395094766610
  N   -0.50233799506394     -1.44467267455425     -0.30692037311564
  H   0.30974460090208     -1.77506367111082     -0.81411621779149
  H   -0.45064378064500     -1.78185439984262      0.64692432944827
