12
Coordinates from ORCA-job run
  C   0.67627994952923      0.66849322245839      0.50854924195588
  C   -0.43983751860953      0.04139756784565     -0.34380919850485
  H   0.50084197938189      1.74013028774859      0.63776821804942
  H   -0.38229992552815      0.46151964716387     -1.35244654976043
  H   0.67213066699379      0.21471273496593      1.50460911056359
  C   1.98193482296506      0.46159809683993     -0.11378388786175
  N   3.03004678069538      0.32510938213611     -0.62211742655348
  C   -1.74740601753918      0.42752820674822      0.22976130595713
  N   -2.78756164635537      0.69065265398845      0.70844869435690
  N   -0.23043738205337     -1.39172909174339     -0.44526340117356
  H   -0.43659373889490     -1.84363164762898      0.43808830972229
  H   -0.83609797058486     -1.79378106052277     -1.14980441675113
