12
Coordinates from ORCA-job run
  C   1.06279241535979      0.12867045866090      0.07575088987292
  C   -0.39588652049440     -0.07509817027322     -0.36388681244002
  H   1.70497414907818     -0.23188515547647     -0.73110720133058
  H   -0.57772563536313      0.54688431200360     -1.24532623335133
  H   1.26956773705376     -0.47636739784988      0.96391969209660
  C   1.35882840358136      1.52955334279689      0.36471380646480
  N   1.57991981807085      2.66210069992447      0.57709481356023
  C   -1.31925185840118      0.37263670941952      0.69990420555000
  N   -2.07326020505276      0.66066410809899      1.55363546706276
  N   -0.57295575712109     -1.46694109529447     -0.75324796170544
  H   -0.56788151589042     -2.06051716778279      0.06866506278593
  H   -1.46912103082097     -1.58970064422753     -1.20911572856586
