18

C	-0.593256	0.000208	-1.412161
C	0.0	0.0	0.0
Cl	0.25806	-1.247987	-2.350425
H	1.086268	0.0	0.0
C	-2.084113	-0.219792	-1.524753
H	-2.619144	0.551832	-0.974247
H	-2.363819	-0.181439	-2.575358
H	-2.340526	-1.198891	-1.122365
N	-0.214288	1.330835	-2.079511
O	0.737849	1.936836	-1.615688
O	-0.871876	1.647334	-3.064026
N	-0.483946	-1.225146	0.72201
O	-1.566262	-1.137419	1.306773
O	0.217524	-2.226013	0.647546
N	-0.466361	1.152064	0.832126
O	-1.241958	1.971256	0.339733
O	-0.017631	1.180684	1.970595
Cl	3.186984	0.0	0.0
