18

C	-0.397654	0.046466	-1.476056
C	0.0	0.0	0.0
Cl	-2.149889	0.104938	-1.786914
H	1.087618	0.0	0.0
C	0.317467	1.173932	-2.183981
H	-0.076216	2.122237	-1.830681
H	0.155148	1.087507	-3.25637
H	1.385437	1.102583	-1.962761
N	0.059804	-1.294781	-2.098353
O	0.709524	-1.245174	-3.133928
O	-0.314734	-2.313694	-1.52957
N	-0.533867	-1.156822	0.789311
O	-1.741877	-1.134565	1.019184
O	0.2643	-2.002469	1.164755
N	-0.42865	1.201932	0.795246
O	-0.147119	1.140721	1.986264
O	-0.993019	2.139097	0.239884
Cl	3.164872	0.0	0.0
