18

C	-0.505418	-0.007337	-1.434199
C	0.0	0.0	0.0
Cl	-2.245858	0.107983	-1.642741
H	1.085783	0.0	0.0
C	0.164125	1.098888	-2.240941
H	-0.094909	0.981614	-3.296158
H	-0.196463	2.072455	-1.907632
H	1.245231	1.053985	-2.109252
N	-0.014855	-1.356996	-2.027713
O	1.199302	-1.509648	-1.962999
O	-0.812357	-2.109074	-2.565342
N	-0.427266	-1.154778	0.841757
O	0.383884	-1.466475	1.713117
O	-1.450469	-1.780289	0.549848
N	-0.450046	1.237874	0.692022
O	-1.560685	1.231081	1.224428
O	0.34242	2.178191	0.677054
Cl	2.69233	0.0	0.0
