15

C	-0.420386	0.186192	-1.444398
C	0.0	0.0	0.0
F	-1.805847	0.420655	-1.541579
H	1.088771	0.0	0.0
H	-0.376596	-0.930439	0.419209
C	0.327825	1.27621	-2.183994
H	0.03481	2.241235	-1.78004
H	1.397134	1.125453	-2.006268
H	0.099976	1.226643	-3.250632
C	-0.18741	-1.110542	-2.115458
N	-0.034	-2.142876	-2.652742
N	-0.44239	1.06367	0.892228
O	-0.40435	2.235079	0.498019
O	-0.742313	0.735483	2.046344
H	2.634037	0.0	0.0
