15

C	-0.453318	-0.004388	-1.45581
C	0.0	0.0	0.0
F	-0.274369	1.318753	-1.89084
H	1.08851	0.0	0.0
H	-0.36246	0.892609	0.506159
C	0.380491	-0.893254	-2.354376
H	1.428684	-0.676391	-2.143127
H	0.139858	-0.676303	-3.398529
H	0.183969	-1.939123	-2.132988
C	-1.901119	-0.274068	-1.593647
N	-3.055404	-0.442792	-1.721799
N	-0.447108	-1.153808	0.756809
O	-0.525704	-1.029488	1.983592
O	-0.626721	-2.222502	0.155803
H	2.651219	0.0	0.0
