15

C	-0.442498	0.05942	-1.434168
C	0.0	0.0	0.0
F	-1.846277	0.150464	-1.521744
H	1.091609	0.0	0.0
H	-0.335132	0.892355	0.527791
C	0.166676	1.304428	-2.055867
H	-0.214823	2.184418	-1.533076
H	1.253066	1.254821	-1.932096
H	-0.099635	1.369034	-3.112272
C	-0.055999	-1.110554	-2.245993
N	0.227734	-1.942752	-3.023753
N	-0.498961	-1.143517	0.75044
O	-0.68212	-0.980771	1.962076
O	-0.631454	-2.224193	0.166685
H	2.632838	0.0	0.0
