16

C	-0.306666	-0.077115	-1.497675
C	0.0	0.0	0.0
Cl	-2.06312	-0.435197	-1.797763
H	1.104703	0.0	0.0
C	-0.068991	1.230026	-2.136429
N	0.167752	2.215146	-2.732314
N	0.48205	-1.145423	-2.057077
H	1.446132	-1.009454	-1.748669
H	0.452299	-1.122471	-3.068557
N	-0.50401	-1.205859	0.666061
H	0.15656	-1.41638	1.406767
H	-0.437465	-1.977618	0.008051
N	-0.520917	1.210636	0.580484
H	0.158108	1.593441	1.224266
H	-1.367645	0.975151	1.08679
Cl	3.374056	0.0	0.0
