16

C	-0.405131	0.039662	-1.482352
C	0.0	0.0	0.0
Cl	0.146908	-1.505709	-2.289178
H	1.102669	0.0	0.0
C	-1.86602	0.058996	-1.63956
N	-3.033517	0.043178	-1.76852
N	0.185704	1.197943	-2.073374
H	1.192761	1.146434	-1.921375
H	0.001063	1.230589	-3.067649
N	-0.498863	-1.180017	0.659075
H	0.205361	-1.541106	1.288379
H	-1.332883	-0.930135	1.178281
N	-0.550733	1.212293	0.621106
H	-0.312711	2.005359	0.033985
H	-0.048392	1.337777	1.495715
Cl	3.447773	0.0	0.0
