16

C	-0.340177	-0.01738	-1.501968
C	0.0	0.0	0.0
Cl	-2.112883	-0.321455	-1.727271
H	1.102983	0.0	0.0
C	-0.065292	1.288926	-2.115085
N	0.161259	2.342323	-2.583877
N	0.39123	-1.045959	-2.20078
H	0.25744	-1.881935	-1.633575
H	1.381931	-0.805387	-2.112197
N	-0.399971	-1.270269	0.567035
H	-1.322532	-1.173586	0.973816
H	0.264672	-1.536657	1.281167
N	-0.610153	1.127705	0.697332
H	-0.361705	1.990022	0.22046
H	-0.157265	1.181452	1.604458
Cl	3.382972	0.0	0.0
