16

C	-0.402249	0.02569	-1.485702
C	0.0	0.0	0.0
Cl	-0.041003	-1.566545	-2.250309
H	1.102079	0.0	0.0
C	-1.848894	0.258396	-1.618004
N	-2.999707	0.476279	-1.702692
N	0.327196	1.036358	-2.22164
H	1.316695	0.812936	-2.099371
H	0.169845	1.898042	-1.70279
N	-0.621971	-1.104848	0.722573
H	-0.220189	-1.100801	1.655205
H	-0.327094	-1.977524	0.29813
N	-0.41866	1.280649	0.54685
H	-1.319477	1.16953	0.999197
H	0.266403	1.599375	1.219899
Cl	3.411139	0.0	0.0
