16

C	-0.507655	0.034143	-1.437332
C	0.0	0.0	0.0
Cl	-2.47769	0.070976	-1.25846
H	1.095679	0.0	0.0
C	-0.264698	1.293116	-2.133138
N	-0.073415	2.280364	-2.739585
N	-0.088554	-1.06174	-2.153307
H	-0.133449	-1.897392	-1.583534
H	-0.46814	-1.152464	-3.08242
N	-0.36453	-1.309389	0.546861
H	0.3175	-1.557798	1.252779
H	-1.288084	-1.276967	0.962026
N	-0.420917	1.194262	0.69495
H	0.212764	1.373564	1.462142
H	-1.372149	1.116837	1.034065
Cl	3.361549	0.0	0.0
