16

C	-0.514598	0.002121	-1.435662
C	0.0	0.0	0.0
Cl	-2.482352	0.035782	-1.248384
H	1.094618	0.0	0.0
C	-0.27446	1.24691	-2.159366
N	-0.063945	2.214928	-2.790034
N	-0.092908	-1.108581	-2.128606
H	-0.474186	-1.222926	-3.053874
H	-0.133044	-1.929751	-1.537809
N	-0.360248	-1.29713	0.576682
H	0.330398	-1.534176	1.278358
H	-1.277979	-1.256147	1.00393
N	-0.4203	1.208491	0.669313
H	0.226305	1.416251	1.418743
H	-1.362251	1.131693	1.030952
Cl	3.356394	0.0	0.0
