16

C	0.0	0.0	0.0
C	-0.270106	0.068436	-1.53391
F	1.359821	0.0	0.0
H	0.205713	-0.862885	-1.875558
N	-0.404615	1.294013	0.683232
O	-0.897039	2.179468	-0.005881
O	-0.145782	1.352163	1.88151
C	-0.580671	-1.178661	0.705062
H	-0.255634	-1.162045	1.745919
H	-0.225366	-2.094027	0.226832
H	-1.675374	-1.113783	0.64895
C	0.531958	1.153883	-2.125798
N	1.210712	1.971899	-2.624293
C	-1.591649	0.086856	-2.176664
N	-2.377868	0.055235	-3.053393
Br	-3.849748	0.0	0.0
