16

C	0.0	0.0	0.0
C	-0.347998	-0.305105	-1.488165
F	1.35435	0.0	0.0
H	0.483071	0.168477	-2.024113
N	-0.34909	1.464614	0.271787
O	-0.594528	1.789459	1.426994
O	-0.21105	2.225725	-0.683639
C	-0.516637	-0.91448	1.06048
H	-1.608895	-0.918736	1.037783
H	-0.161178	-0.557691	2.026778
H	-0.119843	-1.913975	0.878371
C	-1.533975	0.236326	-2.168348
N	-2.170545	0.643985	-3.071232
C	-0.229707	-1.746685	-1.720328
N	-0.053013	-2.891467	-1.910553
Br	-3.653766	0.0	0.0
