16

C	0.0	0.0	0.0
C	-0.278497	0.247063	-1.514007
F	1.358279	0.0	0.0
H	0.087879	-0.68326	-1.971376
N	-0.399449	1.214361	0.820097
O	-0.173327	1.129806	2.022846
O	-0.848093	2.18346	0.220707
C	-0.574368	-1.251582	0.575345
H	-1.666738	-1.188552	0.51542
H	-0.258861	-1.33567	1.615777
H	-0.202946	-2.10643	0.004762
C	0.619897	1.310016	-2.002591
N	1.361516	2.108489	-2.436851
C	-1.592618	0.502655	-2.124076
N	-2.357581	0.74056	-2.986708
Br	-3.80138	0.0	0.0
