15
Coordinates from ORCA-job run
  C   -0.50904438189004      0.07142587712763      0.45659637412922
  C   0.97643829950609     -0.13592473876312      0.68180732657582
  Cl  -1.21683824118339      0.33072662211310      2.07343513360605
  H   1.41048238926978      0.72502609112091      1.18694031348913
  H   1.15070032367024     -1.03940007096177      1.26526749490073
  N   -1.13144140276783     -1.23308968516486     -0.05185503477197
  O   -2.04346888371422     -1.13370017813484     -0.86058339519244
  O   -0.69156521281713     -2.26908933555897      0.42839035525947
  C   -0.86161983189125      1.22488404768631     -0.44879107434112
  H   -0.51351830639447      1.02944642265809     -1.46238965561744
  H   -1.93985363123364      1.36669193868758     -0.47337454350825
  H   -0.39301744115499      2.13237647298737     -0.06340146065248
  N   1.72839602902282     -0.30386743187405     -0.59950098035065
  O   1.13332549777937     -0.82698285796384     -1.53902118141139
  O   2.89902479379865      0.05947682604046     -0.59551967211468
