15
Coordinates from ORCA-job run
  C   -0.44263759474607     -0.09200809037932      0.30717363504710
  C   0.96562455085799     -0.60261940545041      0.02465671403428
  Cl  -0.59842926474676      0.31295498343278      2.02714407032953
  H   1.22798812664444     -1.41354409556387      0.69776415491486
  H   1.04872299216561     -0.91429813190171     -1.01542722985259
  N   -1.40006162550616     -1.26862605495654      0.05079436593783
  O   -0.89927661588246     -2.34739746848098     -0.25428361780475
  O   -2.59329459715077     -1.03000654232249      0.16074470695875
  C   -0.90369488311161      1.06284412067675     -0.55132140526705
  H   -1.93915473148681      1.29562836728481     -0.30939665725491
  H   -0.28271326189220      1.93793092650255     -0.37140474402956
  H   -0.82748451629032      0.79268266313422     -1.60754646926679
  N   1.96456126111818      0.48523021333042      0.23215500950818
  O   2.61317900741067      0.46178401218473      1.27440891407196
  O   2.06767115261628      1.31944450250907     -0.66646144732685
