15
Coordinates from ORCA-job run
  C   -0.44586532863618     -0.07128701947004      0.30769423907022
  C   0.95508225587570     -0.61700852237684      0.05575698327037
  Cl  -0.60422543783034      0.40711266602696      2.00849315628288
  H   1.03878096404991     -0.97274903279669     -0.97004505358007
  H   1.19855677409220     -1.40408529049416      0.76337607051420
  N   -1.42185700299166     -1.24138023599220      0.09416499292845
  O   -2.61133344962625     -0.97800805192602      0.18692628051431
  O   -0.93822136877716     -2.34012105339372     -0.16370750608237
  C   -0.88240553022773      1.05435409111724     -0.60083633647364
  H   -0.80369872391326      0.73954924083692     -1.64443596476491
  H   -1.91556625442965      1.31323135772078     -0.37607905880462
  H   -0.24860649586842      1.92621827796855     -0.45288173982307
  N   1.97166672242783      0.46103802763252      0.22543959739310
  O   2.09258127156223      1.25771133801799     -0.70444033281828
  O   2.61611160429280      0.46642420712872      1.27057467237342
