15
Coordinates from ORCA-job run
  C   -0.42945016897086     -0.06345954953004      0.33183327967667
  C   0.95041626979842     -0.62659768306901      0.01108316794128
  Cl  -0.49144782852890      0.43452447329467      2.03312899941341
  H   0.97543085914525     -0.99252822397024     -1.01424753548454
  H   1.22335628632753     -1.40963650784516      0.71237993827454
  N   -1.42749959660731     -1.22482385388756      0.18365037323923
  O   -2.60735144343242     -0.94793044072520      0.33861938417740
  O   -0.96969766699319     -2.33103801577076     -0.08896462591348
  C   -0.90249302110427      1.05730923092039     -0.56456333236102
  H   -0.88442943596723      0.73009357791237     -1.60716464028226
  H   -1.91893334230840      1.33065466355917     -0.28694407665767
  H   -0.25178114465441      1.92313123928020     -0.46144242164485
  N   1.98577624455715      0.44177285962653      0.11568497917937
  O   2.06517315924189      1.22850485968084     -0.82704593357995
  O   2.68493082949673      0.45002337052379      1.12499244402187
