15
Coordinates from ORCA-job run
  C   -0.41308033714366     -0.08783815213276      0.34487979056710
  C   0.96121183256840     -0.58364414466589     -0.10057487339314
  Cl  -0.37607077509151      0.27669790280573      2.06871820897692
  H   0.96395443242414     -0.77597960078952     -1.17117333378854
  H   1.24467373339010     -1.47252803601097      0.45994942113473
  N   -1.37450325142995     -1.26683362390522      0.10186461805191
  O   -2.28211298665247     -1.45829702325122      0.89368392795852
  O   -1.17667712121280     -1.87801371796518     -0.94534087377148
  C   -0.98487667782966      1.07690419595657     -0.43810827574935
  H   -1.00681156182326      0.82775240854400     -1.50092184351027
  H   -1.99848656946019      1.27780010969818     -0.08712446036015
  H   -0.37181257785599      1.96356038628167     -0.29346835390774
  N   2.00843958669309      0.44381059699593      0.16259863219811
  O   2.82355748936478      0.20377705976182      1.04823281573178
  O   1.98259478405899      1.44983163867685     -0.54421540013841
