14

C	-0.40773	0.031544	-1.475626
C	0.0	0.0	0.0
Cl	0.108144	-1.532029	-2.207865
H	1.091874	0.0	0.0
C	-1.860765	0.1371	-1.633191
N	-3.027677	0.17948	-1.774102
C	0.259108	1.10151	-2.232334
N	0.709752	1.928808	-2.934837
C	-0.457153	-1.17747	0.69257
N	-0.761389	-2.16922	1.249148
N	-0.407376	1.195161	0.694711
O	-0.294949	1.190276	1.927435
O	-0.697068	2.189349	0.002532
H	2.325254	0.0	0.0
