14

C	-0.357104	0.006706	-1.490162
C	0.0	0.0	0.0
Cl	0.021706	-1.626275	-2.147994
H	1.091917	0.0	0.0
C	-1.784005	0.256263	-1.710291
N	-2.937741	0.395858	-1.887778
C	0.438622	0.975347	-2.263564
N	0.978071	1.706604	-3.00961
C	-0.499065	-1.136639	0.725308
N	-0.835224	-2.093417	1.32325
N	-0.367659	1.238138	0.635139
O	-0.316196	1.277109	1.872103
O	-0.527944	2.224905	-0.107913
H	2.308423	0.0	0.0
