14

C	-0.378549	0.022866	-1.484128
C	0.0	0.0	0.0
Cl	0.051829	-1.584718	-2.175183
H	1.091945	0.0	0.0
C	-1.817419	0.218945	-1.676648
N	-2.976018	0.329342	-1.84097
C	0.367275	1.032724	-2.25142
N	0.869623	1.804045	-2.982274
C	-0.484113	-1.155088	0.7088
N	-0.810844	-2.128482	1.284777
N	-0.382862	1.220724	0.662238
O	-0.315531	1.237796	1.898108
O	-0.588415	2.214047	-0.059169
H	2.316033	0.0	0.0
