14

C	-0.360767	0.027708	-1.491073
C	0.0	0.0	0.0
Cl	0.002042	-1.602517	-2.170119
H	1.093991	0.0	0.0
C	-1.787648	0.288743	-1.699597
N	-2.938475	0.454144	-1.873706
C	0.440303	0.996054	-2.256231
N	0.999309	1.73365	-2.980353
C	-0.504176	-1.146053	0.706976
N	-0.846285	-2.113802	1.283418
N	-0.371609	1.228776	0.650023
O	-0.370979	1.243743	1.887955
O	-0.489835	2.231438	-0.077782
H	2.309478	0.0	0.0
