14

C	-0.332764	0.018895	-1.484093
C	0.0	0.0	0.0
Cl	-2.101836	0.260215	-1.791569
H	1.094207	0.0	0.0
C	0.401521	1.045919	-2.236854
N	0.952713	1.783816	-2.96743
C	0.026305	-1.285526	-2.055443
N	0.283742	-2.327692	-2.533806
C	-0.497225	-1.169611	0.672725
N	-0.832314	-2.16155	1.211174
N	-0.358157	1.215981	0.680365
O	-0.458949	1.167708	1.914778
O	-0.365166	2.256288	0.00169
H	2.313151	0.0	0.0
