14

C	-0.338877	0.012848	-1.482943
C	0.0	0.0	0.0
Cl	-2.111183	0.238159	-1.781991
H	1.09428	0.0	0.0
C	0.383354	1.047429	-2.238087
N	0.932758	1.791012	-2.964531
C	0.031402	-1.28941	-2.052721
N	0.297976	-2.336384	-2.516087
C	-0.492725	-1.169109	0.677392
N	-0.825874	-2.160871	1.216838
N	-0.360273	1.215617	0.680438
O	-0.440152	1.169686	1.916626
O	-0.384892	2.254068	-0.000794
H	2.314145	0.0	0.0
