14

C	-0.319169	0.030857	-1.488151
C	0.0	0.0	0.0
Cl	-2.08496	0.26195	-1.8101
H	1.094236	0.0	0.0
C	0.415784	1.072635	-2.220719
N	0.971398	1.825312	-2.932417
C	0.059107	-1.264598	-2.068244
N	0.334093	-2.300316	-2.551344
C	-0.497233	-1.179735	0.655387
N	-0.834799	-2.180545	1.175318
N	-0.374264	1.205742	0.688977
O	-0.496331	1.143623	1.921637
O	-0.380168	2.253291	0.021081
H	2.313488	0.0	0.0
