14

C	-0.340192	0.036399	-1.481679
C	0.0	0.0	0.0
Cl	-2.11415	0.262873	-1.775889
H	1.094254	0.0	0.0
C	0.379299	1.084141	-2.2206
N	0.933259	1.835886	-2.934727
C	0.030981	-1.255258	-2.074164
N	0.301256	-2.285396	-2.571497
C	-0.489771	-1.180879	0.658986
N	-0.821962	-2.179042	1.187234
N	-0.361108	1.204279	0.700399
O	-0.393287	2.252261	0.034879
O	-0.43777	1.139811	1.935725
H	2.313615	0.0	0.0
