16

C	-0.26981	0.083906	-1.528901
C	0.0	0.0	0.0
Br	0.085969	1.913227	-2.155327
H	1.103069	0.0	0.0
C	0.703977	-0.861231	-2.234446
H	0.693904	-0.704632	-3.313455
H	1.689225	-0.663439	-1.793146
H	0.414208	-1.895846	-2.025801
C	-1.664133	-0.211813	-1.846325
N	-2.777575	-0.541469	-2.037364
N	-0.384353	-1.28115	0.572036
H	0.370413	-1.937439	0.425598
H	-1.259953	-1.644337	0.211358
C	-0.627876	1.085281	0.743033
N	-1.147192	1.922329	1.386644
F	2.588242	0.0	0.0
