16

C	-0.328531	0.078169	-1.505484
C	0.0	0.0	0.0
Br	0.067175	1.899238	-2.148453
H	1.108046	0.0	0.0
C	0.588015	-0.899431	-2.236264
H	0.288356	-1.913474	-1.964609
H	1.59709	-0.707722	-1.855133
H	0.524537	-0.769644	-3.317997
C	-1.746214	-0.157493	-1.773708
N	-2.886984	-0.379064	-1.959158
N	-0.387972	-1.326696	0.480664
H	0.360055	-1.661916	1.076112
H	-1.254629	-1.305639	1.004139
C	-0.591129	1.077528	0.779937
N	-1.098882	1.882804	1.472244
F	2.580197	0.0	0.0
