15
Coordinates from ORCA-job run
  C   -0.41586854265969      0.13989033346317     -0.46663128873148
  C   0.97590621000099      0.58795485649487      0.03493838148076
  Cl  -0.53186789366471      0.52785490270292     -2.19112646850189
  H   1.09355865878063      1.65092411429045     -0.19670735256070
  N   -1.44955732733231      1.02847925041223      0.23881198470134
  O   -1.08431546517149      2.15729938618845      0.54867470083011
  O   -2.56615798767421      0.55347788828874      0.39299967466700
  C   -0.71700171838556     -1.31477570935485     -0.21310991176354
  H   -0.69936859742856     -1.51943876413080      0.85974029001295
  H   0.03078254722829     -1.93129999365040     -0.71409495163520
  H   -1.70263206620659     -1.56193094545269     -0.60139029403085
  C   2.02497538239695     -0.17748132962745     -0.64200978271479
  N   2.85970457886521     -0.79798651782755     -1.18667789078635
  C   1.06779816045070      0.40840698457335      1.48717277735970
  N   1.11404406080035      0.24762554362957      2.64941013167294
