15
Coordinates from ORCA-job run
  C   -0.41457311441837      0.13436171549135     -0.47071399793563
  C   0.96267111065943      0.60537989143023      0.04884140705672
  Cl  -0.51959053481573      0.53172091322106     -2.19375274995758
  H   1.06161325326711      1.67207703308564     -0.17429590368982
  N   -1.47072544957471      0.99994010028490      0.23026811097863
  O   -2.57439484617555      0.49765012843467      0.39067670824780
  O   -1.13414814735286      2.13982918553760      0.53174359324462
  C   -0.69101123768211     -1.32728417945454     -0.23024980734219
  H   0.07253765329842     -1.92609189596391     -0.72937092991272
  H   -0.67901335371764     -1.53971627173312      0.84123242796578
  H   -1.66857184945466     -1.58968759882906     -0.62914021330568
  C   2.03545338494235     -0.13351618995822     -0.62042774994921
  N   2.89423569665679     -0.72749679340918     -1.15736455230224
  C   1.04235852521416      0.41688635380226      1.50079470132993
  N   1.08115890915339      0.24494760806033      2.66175895557159
