15
Coordinates from ORCA-job run
  C   -0.33182930197576      0.15676446371760     -0.37332590259868
  C   0.90465281057759      0.06921355199219      0.54937581753648
  Cl  0.07629925229021      1.04062999092850     -1.83417811287652
  H   0.59443364767715     -0.44264617740638      1.46635506042984
  N   -1.41601300402737      0.91821720317638      0.40937433761545
  O   -2.19298043023615      1.62014608492761     -0.21512822922083
  O   -1.44968157425136      0.67059419436169      1.61167810325109
  C   -0.91213982172514     -1.20460376254097     -0.70041628455423
  H   -1.17817991439748     -1.72556896342497      0.22245901498117
  H   -0.18552482019590     -1.79495026358115     -1.25958971363430
  H   -1.80528371172013     -1.07564835585418     -1.31359248463521
  C   1.39246064234714      1.40034970029261      0.91919589327692
  N   1.77048824530883      2.46873381316382      1.22570973852523
  C   1.95551411135814     -0.71856997615376     -0.09757128475008
  N   2.77678386897022     -1.38266150359899     -0.61034595334634
