15
Coordinates from ORCA-job run
  C   -0.34460783178059      0.10902708315982     -0.37882442270702
  C   0.91311634778263      0.14830696375143      0.51754227814231
  Cl  0.00596129913505      0.85206023850289     -1.93040850999755
  H   0.63776993120665     -0.27530820743381      1.48901420111156
  N   -1.43444993541954      0.91644221231616      0.34849062932362
  O   -2.25428867728383      1.51444629108458     -0.32744268171417
  O   -1.42430996487077      0.80961059688358      1.57163308056594
  C   -0.89182941844465     -1.29343148651047     -0.55369840101447
  H   -1.80168666143761     -1.25112869163268     -1.15424284288444
  H   -1.12216730146639     -1.72576513831278      0.42308465125783
  H   -0.16048837880673     -1.91724303251474     -1.06852759214562
  C   1.37243505912515      1.52183072678736      0.73912723175271
  N   1.73106048382117      2.62389224439935      0.92661576290797
  C   1.97238793922240     -0.67339799020736     -0.07089481426779
  N   2.80409710921704     -1.36234181027334     -0.53146857033087
