14

C	-0.582345	-0.013017	-1.425391
C	0.0	0.0	0.0
Cl	-0.136959	1.537624	-2.218804
H	1.087993	0.0	0.0
H	-0.38065	-0.881327	0.522363
C	0.05733	-1.112426	-2.162018
N	0.453759	-2.048219	-2.750471
N	-2.014683	-0.185273	-1.55929
H	-2.466655	0.430548	-0.890446
H	-2.247509	-1.140539	-1.305418
N	-0.524823	1.1727	0.749718
O	-1.744739	1.190502	0.970555
O	0.257603	2.045956	1.100541
Cl	3.320519	0.0	0.0
