14

C	-0.563488	-0.039961	-1.417221
C	0.0	0.0	0.0
Cl	-0.45021	-1.821529	-1.922664
H	1.091059	0.0	0.0
H	-0.381851	-0.824988	0.594185
C	-2.012566	0.227425	-1.412995
N	-3.162971	0.468037	-1.433281
N	0.137116	0.781934	-2.310867
H	-0.427913	1.235329	-3.009111
H	0.803441	1.39322	-1.863528
N	-0.431911	1.239415	0.704119
O	-0.865016	1.116069	1.850038
O	-0.30029	2.311913	0.113644
Cl	3.257204	0.0	0.0
