13
Coordinates from ORCA-job run
  C   0.60127006524897      0.12887180354110     -0.18264491740785
  C   -0.66263200338538     -0.29280059224175      0.56740644517650
  Br  0.92711241438960     -1.30160939989411     -1.60433351235445
  H   -0.82417534077012      0.48199094518633      1.32253204177287
  H   -0.42788682069760     -1.23225445280681      1.09117702187791
  N   1.68898461363567      0.27208904484059      0.70540265346617
  H   2.53256953978296      0.58326972103566      0.24140199863456
  H   1.87274134322611     -0.58736591992041      1.20801976014960
  C   0.38844591130238      1.36364840707809     -0.93326657993528
  N   0.21762425254956      2.38202062067932     -1.49302636793952
  N   -1.80694456196329     -0.34384815964876     -0.31501698428655
  H   -2.66419836896762     -0.23256613177094      0.20767117810171
  H   -1.84191104435124     -1.22144588607831     -0.81532273725567
