13
Coordinates from ORCA-job run
  C   0.68407949553485      0.03036152928022     -0.30797357889481
  C   -0.55748673760530     -0.41517561197454      0.48734171070708
  Br  1.13236709221336     -1.37620898347664     -1.59990786798191
  H   -0.66452780521614      0.32068311439700      1.30101229500738
  H   -0.31400656474168     -1.37894767056011      0.94299891512090
  N   1.86352109257673      0.28240387461964      0.48651936689907
  H   1.70317934924112      1.06768461280382      1.10874450575484
  H   2.09379795880699     -0.53960973427750      1.03342460556882
  C   0.34541447669042      1.24289818830363     -1.05833622679746
  N   0.01497474730057      2.23981851298593     -1.58498709477547
  N   -1.72253260463774     -0.54598707046203     -0.35856728210206
  H   -2.35417287292111     -1.25444553394677     -0.01552950575389
  H   -2.22360762724207      0.32852477230736     -0.43473984275249
