14

C	-0.446665	-0.007532	-1.459032
C	0.0	0.0	0.0
Cl	-2.24257	-0.147839	-1.578085
H	1.098964	0.0	0.0
H	-0.035509	-0.877371	-1.968699
C	-0.040556	1.223369	-2.121638
N	0.247804	2.225383	-2.662333
N	-0.387371	-1.36288	0.572524
O	-0.820497	-1.425247	1.715995
O	-0.184086	-2.327405	-0.165478
N	-0.468291	1.056427	0.803405
H	-1.353643	1.450151	0.523367
H	0.245731	1.752562	0.949868
Br	3.373099	0.0	0.0
