14

C	-0.552714	-0.060393	-1.422974
C	0.0	0.0	0.0
Cl	0.225387	-1.246304	-2.495949
H	1.098964	0.0	0.0
H	-0.321526	0.919455	-1.84204
C	-2.006189	-0.223748	-1.434276
N	-3.173648	-0.344985	-1.462135
N	-0.442722	-1.183272	0.811466
O	-0.663228	-2.235344	0.21865
O	-0.513353	-1.031521	2.029938
N	-0.454557	1.235232	0.604021
H	-0.882643	1.021056	1.496032
H	0.369016	1.793581	0.80997
Br	3.377421	0.0	0.0
