14

C	-0.548658	-0.069109	-1.429344
C	0.0	0.0	0.0
Cl	0.015065	1.355269	-2.350014
H	1.09521	0.0	0.0
H	-1.638755	-0.019403	-1.402354
C	-0.17442	-1.290958	-2.13409
N	0.070984	-2.275479	-2.724665
N	-0.504746	-1.233041	0.718145
O	0.174114	-1.67549	1.631571
O	-1.614751	-1.660665	0.377974
N	-0.452589	1.131249	0.748484
H	-1.259143	1.583692	0.342491
H	0.306323	1.789998	0.853268
Br	3.435255	0.0	0.0
