14

C	-0.585432	-0.009057	-1.409268
C	0.0	0.0	0.0
Cl	-0.243791	1.562132	-2.204363
H	1.096772	0.0	0.0
H	-1.671335	-0.089886	-1.33722
C	-0.075128	-1.075358	-2.265677
N	0.273412	-1.906908	-3.01756
N	-0.442774	-1.246382	0.709456
O	-1.029555	-2.119936	0.069544
O	-0.182623	-1.30552	1.906989
N	-0.556174	1.104657	0.772917
H	-0.111262	1.948405	0.426634
H	-0.200168	0.978178	1.715788
Br	3.411018	0.0	0.0
