14

C	-0.534062	-0.032559	-1.431833
C	0.0	0.0	0.0
Cl	0.211626	-1.234394	-2.513142
H	1.101933	0.0	0.0
H	-0.261179	0.943336	-1.835367
C	-1.992369	-0.144102	-1.445361
N	-3.165705	-0.186563	-1.409062
N	-0.430377	-1.227953	0.781235
O	-0.453163	-1.113274	2.005147
O	-0.697838	-2.254607	0.161211
N	-0.432152	1.211025	0.625483
H	-1.342974	1.110077	1.055459
H	0.239845	1.469567	1.335179
Br	3.38829	0.0	0.0
