14

C	-0.389222	0.078261	-1.468308
C	0.0	0.0	0.0
F	-1.741422	0.387458	-1.619812
H	1.09675	0.0	0.0
H	0.186615	0.887099	-1.927857
C	-0.135357	-1.170415	-2.201118
N	0.026343	-2.17598	-2.784082
C	-0.534511	-1.197159	0.638882
N	-0.981946	-2.134784	1.187089
C	-0.439143	1.264473	0.743799
H	-1.525115	1.367009	0.766679
H	-0.001924	2.138096	0.254178
H	-0.055775	1.230332	1.76441
Br	3.416651	0.0	0.0
