14

C	-0.499516	-0.027396	-1.4407
C	0.0	0.0	0.0
F	-0.075226	-1.170381	-2.08598
H	1.09559	0.0	0.0
H	-1.596769	-0.036465	-1.461275
C	-0.049118	1.153006	-2.199871
N	0.235517	2.100054	-2.831273
C	-0.502578	-1.191665	0.677845
N	-0.971356	-2.122132	1.220546
C	-0.462884	1.269061	0.722486
H	-1.553082	1.369998	0.720146
H	-0.014555	2.143965	0.248166
H	-0.115408	1.238567	1.755844
Br	3.441874	0.0	0.0
