14

C	-0.510445	0.015189	-1.436809
C	0.0	0.0	0.0
F	-0.069301	-1.095077	-2.126522
H	1.095604	0.0	0.0
H	-1.607434	-0.016707	-1.446767
C	-0.088229	1.229729	-2.155858
N	0.245771	2.189963	-2.742307
C	-0.496857	-1.215651	0.640286
N	-0.941106	-2.158139	1.18279
C	-0.463658	1.241394	0.768344
H	-0.01582	2.132901	0.325615
H	-0.115113	1.172709	1.799615
H	-1.553859	1.341017	0.770618
Br	3.443271	0.0	0.0
