14

C	-0.395534	0.06677	-1.466128
C	0.0	0.0	0.0
F	-1.762692	0.309081	-1.609352
H	1.096773	0.0	0.0
H	0.136295	0.905461	-1.925073
C	-0.081282	-1.163915	-2.205744
N	0.137154	-2.156412	-2.792916
C	-0.527668	-1.199977	0.641078
N	-0.969515	-2.139338	1.19075
C	-0.447606	1.262553	0.7413
H	-1.53404	1.364133	0.751348
H	-0.077527	1.227052	1.766728
H	-0.004286	2.137062	0.25878
Br	3.42409	0.0	0.0
