14

C	-0.38894	0.08016	-1.468106
C	0.0	0.0	0.0
F	-1.741363	0.388745	-1.61925
H	1.096725	0.0	0.0
H	0.186655	0.889417	-1.926472
C	-0.135464	-1.167584	-2.203132
N	0.021593	-2.170913	-2.791429
C	-0.535231	-1.197529	0.63728
N	-0.983291	-2.135391	1.184426
C	-0.438879	1.263824	0.745125
H	-0.057776	1.227468	1.766614
H	-1.524773	1.367696	0.766015
H	0.000671	2.137515	0.257931
Br	3.416569	0.0	0.0
