14

C	-0.389803	0.098618	-1.466462
C	0.0	0.0	0.0
F	-1.744257	0.404965	-1.61178
H	1.096785	0.0	0.0
H	0.182571	0.916582	-1.91461
C	-0.132116	-1.138583	-2.218154
N	0.038247	-2.134667	-2.816386
C	-0.533878	-1.206464	0.621984
N	-0.978943	-2.151938	1.158583
C	-0.439367	1.253505	0.762208
H	0.000605	2.133653	0.287244
H	-0.058949	1.203236	1.783341
H	-1.525308	1.357031	0.783937
Br	3.416758	0.0	0.0
