14

C	-0.500257	0.012267	-1.440534
C	0.0	0.0	0.0
F	-0.064465	-1.104604	-2.121026
H	1.095592	0.0	0.0
H	-1.597345	-0.010208	-1.457978
C	-0.066989	1.220804	-2.164494
N	0.224868	2.188688	-2.760214
C	-0.516871	-1.207838	0.638651
N	-0.990812	-2.15314	1.150972
C	-0.462177	1.247259	0.760099
H	-1.552172	1.350489	0.758515
H	-0.117725	1.183073	1.792865
H	-0.01063	2.135702	0.315037
Br	3.444895	0.0	0.0
