14

C	-0.390953	0.087724	-1.466921
C	0.0	0.0	0.0
F	-1.746992	0.38298	-1.613023
H	1.096734	0.0	0.0
H	0.174701	0.90772	-1.919159
C	-0.1234	-1.150701	-2.211787
N	0.052865	-2.14885	-2.803856
C	-0.531554	-1.203597	0.629529
N	-0.969847	-2.149814	1.170366
C	-0.441296	1.25763	0.753865
H	-0.060401	1.214854	1.775095
H	-1.527431	1.359353	0.775141
H	-0.003341	2.135742	0.272911
Br	3.41683	0.0	0.0
