14

C	-0.450711	-0.001655	-1.45433
C	0.0	0.0	0.0
F	0.058309	-1.104872	-2.112315
H	1.095601	0.0	0.0
H	-1.544439	-0.052271	-1.538005
C	0.013978	1.217512	-2.141479
N	0.387421	2.197968	-2.668614
C	-0.458561	-1.229873	0.622473
N	-0.847393	-2.216182	1.140161
C	-0.531054	1.216102	0.754498
H	-0.128188	2.136547	0.32393
H	-1.625691	1.26429	0.732166
H	-0.216325	1.168573	1.79934
Br	2.753153	0.0	0.0
