14

C	-0.409944	0.002623	-1.473274
C	0.0	0.0	0.0
F	0.00163	1.182762	-2.063061
H	1.096108	0.0	0.0
H	0.083935	-0.821994	-1.994644
C	-1.872203	-0.100418	-1.650612
N	-3.036223	-0.167489	-1.788065
C	-0.472736	-1.24263	0.603888
N	-0.888342	-2.231522	1.08336
C	-0.513281	1.225483	0.751776
H	-0.130119	2.123697	0.267412
H	-1.606127	1.261295	0.777073
H	-0.133708	1.205021	1.774228
Br	3.449064	0.0	0.0
