11
Coordinates from ORCA-job run
  C   1.22173993093989     -0.18166418241198      0.10280654955153
  C   -0.15417199582676      0.26717573928195     -0.36030335071569
  F   1.56599021079103     -1.30373194976707     -0.61847967258109
  H   -0.17402233745588      0.41183823238014     -1.44156184464949
  H   1.19542798419350     -0.43191174351546      1.16349117365008
  H   1.95099354669202      0.60727302757140     -0.09118773854907
  C   -0.57022499858876      1.47534696573993      0.34112951298287
  N   -0.86462875751307      2.45743865540700      0.91301623465928
  N   -1.15294583115315     -0.83649877463975     -0.07263842386121
  O   -1.20903510155533     -1.22491437093872      1.08700819713255
  O   -1.80812265052350     -1.24135159910744     -1.02428063761975
