11
Coordinates from ORCA-job run
  C   1.20876731250959     -0.17544457175996      0.23964754222991
  C   -0.10850993502242      0.17989505874730     -0.42858126691173
  F   1.03693802771529     -0.13968755829221      1.60441324123068
  H   0.00459523173967      0.11477875247371     -1.51511303897496
  H   1.50480321046132     -1.18235341497088     -0.05501473237805
  H   1.97289893756965      0.55171697761796     -0.04245395880399
  C   -0.58880548650073      1.50142314716365     -0.04542161098160
  N   -0.91226893921090      2.59452055436688      0.23332272952746
  N   -1.13505395254089     -0.88527870144966     -0.07378056370299
  O   -2.16890201121473     -0.53589605144318      0.47649554976589
  O   -0.81546239550584     -2.02367419245362     -0.39351389100061
