11
Coordinates from ORCA-job run
  C   1.22138888188601     -0.19289140729303      0.18718792504855
  C   -0.15544485556077      0.17276528289058     -0.36721375958729
  F   2.07951682059282      0.83031601097579     -0.15574316592207
  H   -0.11253353130969      0.21180652212546     -1.46014382134901
  H   1.57443414301214     -1.11962150262735     -0.25937457768563
  H   1.18630050234527     -0.28194281164832      1.27416367227062
  C   -0.62851908956610      1.44998674744321      0.15140222145266
  N   -0.96484991140960      2.48920849550161      0.58066211408676
  N   -1.16058325909300     -0.91668921835160     -0.04373870441142
  O   -2.33654210105757     -0.59287281200927      0.03505040043213
  O   -0.70216759983951     -2.05006530700708      0.05974769566471
