14

C	0.0	0.0	0.0
C	-0.586243	0.020647	-1.408873
Cl	1.782531	0.0	0.0
H	-1.702541	0.137598	-1.076933
H	-0.355445	-0.900511	0.496193
C	-0.424885	1.16242	0.786992
N	-0.604313	2.113699	1.451645
C	-0.407226	-1.319587	-2.111935
H	-0.975399	-2.071645	-1.557573
H	-0.813867	-1.273475	-3.125025
H	0.641932	-1.627775	-2.175697
C	-0.086992	1.131474	-2.191521
N	0.314271	2.011204	-2.862816
F	-2.668252	0.0	0.0
