14

C	0.0	0.0	0.0
C	-0.54123	0.159488	-1.423072
Cl	1.782268	0.0	0.0
H	-1.653235	0.232901	-1.138721
H	-0.366521	-0.943235	0.396771
C	-0.437279	1.087033	0.879837
N	-0.607784	1.989169	1.612279
C	-0.282335	-1.086367	-2.263713
H	-0.664731	-0.945733	-3.277364
H	-0.81957	-1.925038	-1.813667
H	0.782445	-1.330925	-2.330206
C	-0.027715	1.356457	-2.063186
N	0.386545	2.30172	-2.628283
F	-2.617533	0.0	0.0
