14

C	0.0	0.0	0.0
C	-0.430591	-0.012534	-1.50274
Cl	1.782939	0.0	0.0
H	0.478395	-0.194858	-2.090113
H	-0.340322	-0.898	0.502286
C	-0.469239	1.169185	0.738566
N	-0.587155	2.166519	1.350056
C	-1.041383	1.302502	-1.98443
H	-1.958381	1.442036	-1.416461
H	-1.24792	1.242327	-3.05752
H	-0.342049	2.125602	-1.812122
C	-1.297722	-1.158051	-1.789614
N	-1.791237	-2.154499	-2.171388
F	-2.369461	0.0	0.0
