14

C	0.0	0.0	0.0
C	-0.430379	-0.020777	-1.502114
Cl	1.782845	0.0	0.0
H	0.476655	-0.213345	-2.089771
H	-0.339914	-0.895123	0.50769
C	-0.466169	1.172423	0.734775
N	-0.587342	2.165151	1.353147
C	-1.031544	1.296602	-1.988837
H	-0.325932	2.115541	-1.821768
H	-1.947445	1.444908	-1.421478
H	-1.239822	1.232815	-3.061377
C	-1.309654	-1.158251	-1.784273
N	-1.816441	-2.144051	-2.175611
F	-2.368475	0.0	0.0
