14

C	0.0	0.0	0.0
C	-0.543433	-0.103401	-1.403712
F	1.357147	0.0	0.0
H	-0.164562	-1.002354	-1.88132
H	-1.645391	-0.118255	-1.343549
C	-0.445517	1.153804	0.788771
N	-0.612841	2.114671	1.443442
N	-0.364518	-1.287229	0.762672
O	-0.384323	-2.316102	0.099593
O	-0.461956	-1.195133	1.976782
N	-0.128583	1.041717	-2.254313
O	0.379815	2.031272	-1.730689
O	-0.354359	0.912371	-3.455417
Cl	-3.362001	0.0	0.0
