14

C	0.0	0.0	0.0
C	-0.516718	-0.057608	-1.417406
F	1.356847	0.0	0.0
H	-0.248473	-1.007288	-1.870575
H	-1.611812	0.064388	-1.384179
C	-0.445121	1.1375	0.811849
N	-0.5864	2.07957	1.499042
N	-0.370073	-1.30322	0.731867
O	-0.468546	-1.234386	1.947774
O	-0.391339	-2.319879	0.049869
N	0.080223	1.009479	-2.256444
O	0.17425	0.760609	-3.457565
O	0.397687	2.071152	-1.725207
Cl	-3.310936	0.0	0.0
