14

C	0.0	0.0	0.0
C	-0.56073	-0.33283	-1.367567
F	1.347938	0.0	0.0
H	-1.587973	-0.701302	-1.239341
H	-0.60146	0.563264	-1.983944
C	-0.451887	1.316596	0.466261
N	-0.598207	2.435147	0.793763
N	-0.375568	-1.050985	1.06009
O	-0.06847	-0.734633	2.204602
O	-0.843591	-2.11177	0.685436
N	0.256909	-1.323008	-2.121349
O	0.17911	-1.243782	-3.346291
O	0.904631	-2.165746	-1.508227
Cl	-3.333271	0.0	0.0
