12

C	0.0	0.0	0.0
C	-0.508249	-0.212899	-1.421447
Br	1.949385	0.0	0.0
H	-1.6058	-0.184819	-1.357408
H	-0.266857	1.007997	0.331205
H	-0.197079	-1.204683	-1.759759
N	-0.502315	-1.067977	0.820127
H	-1.52327	-1.018996	0.725364
H	-0.284774	-0.871463	1.791333
C	-0.047886	0.796369	-2.367732
N	0.317956	1.587772	-3.153163
Cl	-3.560638	0.0	0.0
