12

C	0.0	0.0	0.0
C	-0.21892	-0.226565	-1.5306
Br	1.961597	0.0	0.0
H	0.228215	-1.201066	-1.761101
H	-0.320172	0.999131	0.290831
H	0.38741	0.511958	-2.063116
N	-0.532008	-0.950495	0.903429
H	-1.541328	-0.75096	0.948739
H	-0.423297	-1.882634	0.517157
C	-1.520247	-0.206333	-2.216337
N	-2.271362	-0.219971	-3.121437
Cl	-3.431874	0.0	0.0
