15

C	0.0	0.0	0.0
C	-0.586716	0.056084	-1.397169
Br	1.945977	0.0	0.0
H	-1.692286	0.100214	-1.236277
H	-0.30308	0.911081	0.513492
C	-0.475995	-1.238808	0.74179
H	-1.568418	-1.239566	0.748754
H	-0.102747	-2.14529	0.260297
H	-0.107348	-1.214587	1.768847
C	-0.236306	-1.091255	-2.220962
N	0.016891	-2.053602	-2.84515
N	-0.218314	1.332703	-2.107686
O	-0.211523	2.34961	-1.423289
O	-0.004658	1.279504	-3.315631
Br	-3.746479	0.0	0.0
