15

C	0.0	0.0	0.0
C	-0.57378	0.012418	-1.405701
Br	1.946018	0.0	0.0
H	-1.678318	0.074378	-1.261419
H	-0.304012	0.928075	0.481845
C	-0.477488	-1.214865	0.776304
H	-0.136589	-1.145187	1.811385
H	-1.570962	-1.233873	0.759234
H	-0.078023	-2.134348	0.341789
C	-0.223078	-1.167872	-2.183202
N	-0.002253	-2.140144	-2.804193
N	-0.166704	1.262079	-2.143751
O	0.2368	1.155348	-3.298667
O	-0.301255	2.310666	-1.524164
Br	-3.7523	0.0	0.0
