15

C	0.0	0.0	0.0
C	-0.58034	0.169659	-1.39155
Br	1.945983	0.0	0.0
H	-1.687087	0.193562	-1.239203
H	-0.304643	0.866988	0.584202
C	-0.482856	-1.292551	0.635943
H	-1.575916	-1.282378	0.651413
H	-0.123521	-2.158122	0.074679
H	-0.105756	-1.363161	1.657488
C	-0.215594	-0.901794	-2.306802
N	0.047293	-1.80742	-3.007072
N	-0.218556	1.503686	-1.992395
O	-0.018577	1.554271	-3.202611
O	-0.205061	2.458853	-1.224648
Br	-3.750458	0.0	0.0
