17
Coordinates from ORCA-job run
  C   0.75139785089185     -0.55625967866345     -0.31308942338760
  C   -0.31017614044886      0.37850909418320      0.29041754044226
  H   0.27280419033201     -1.13675559726038     -1.11155205966115
  H   0.16995880426814      0.91328949365817      1.12233933726186
  N   1.24234551131118     -1.50242205185370      0.68544272832262
  H   1.77973524239302     -1.00179907929952      1.38522952713517
  H   1.86587926103321     -2.17344533349049      0.25156339590426
  C   1.84028249061550      0.22980903785265     -0.93342223636512
  N   2.74099870069739      0.83880570354325     -1.37915734900109
  C   -1.47554757948453     -0.44113699685599      0.83576576552103
  H   -1.13531392829975     -1.18614930162088      1.55369210200097
  H   -2.20500733129937      0.21245623703094      1.32093284795444
  H   -1.98567481201884     -0.96267063919732      0.01907079465110
  C   -0.78815229400078      1.40251676170661     -0.73549420624481
  H   -1.55539626074853      2.04581793380249     -0.29826143351774
  H   -1.23129165940646      0.89958660330461     -1.60122898276569
  H   0.02315795416482      2.04084781315979     -1.09124834825052
