17
Coordinates from ORCA-job run
  C   0.78868949981854     -0.61885628015629     -0.39294385630606
  C   -0.57290822828158      0.10442755293697     -0.40668616040266
  H   0.63546178533604     -1.62682883464087     -0.81263103310110
  H   -0.94109428208065      0.04403649750968     -1.43890097679459
  N   1.35302505068887     -0.64427568012394      0.96016959360939
  H   2.32997023726054     -0.91063707426686      0.92461482029784
  H   0.86870171575815     -1.34868608933351      1.50366475548760
  C   1.73226197964616      0.06293153363047     -1.28781631400229
  N   2.48227676779329      0.60276295462615     -2.01173522032746
  C   -0.44032033192935      1.57092852031832     -0.01087424142650
  H   0.18849808390435      2.12050539775756     -0.71502799026366
  H   0.00413988108598      1.65425754498544      0.98192352802012
  H   -1.42338208069286      2.04857014370604      0.00448324596461
  C   -1.55733609138580     -0.62991061563393      0.50116908644941
  H   -1.28197414490646     -0.50864779479634      1.55202007209113
  H   -2.56326132952426     -0.22131388448002      0.37984683978068
  H   -1.60374851249097     -1.69926389203886      0.27072385092355
