17
Coordinates from ORCA-job run
  C   0.72731453132571     -0.70997441462877     -0.35285160799407
  C   -0.58526615174211      0.09474704549122     -0.39695514825468
  H   0.50224291470728     -1.73842941019463     -0.65663333059718
  H   -0.89651606005320      0.12507131378161     -1.44884734926054
  N   1.27024094119076     -0.76540352762524      1.00235410594365
  H   1.69077939399477      0.12508347993362      1.24087459878204
  H   2.00342923405547     -1.46295877639986      1.05047050179102
  C   1.68654944089480     -0.16562773850126     -1.33874718826844
  N   2.46617889973284      0.29482673789123     -2.08767960828949
  C   -0.37965014975690      1.52827597354691      0.08569541443726
  H   0.41964543107672      2.03322809809078     -0.46395885101239
  H   -0.14381336640937      1.55023443229630      1.15299967057310
  H   -1.29512419223962      2.10746248584708     -0.05580021670471
  C   -1.66163325917843     -0.61915323294190      0.41466521474179
  H   -1.85477332179766     -1.62146991853144      0.02145089947222
  H   -2.60015272882370     -0.05989789260635      0.38057956299863
  H   -1.34945155697736     -0.71601465544931      1.45538333164179
