17
Coordinates from ORCA-job run
  C   0.75545202275854     -0.55980561975031     -0.30497010716049
  C   -0.30933536969337      0.38094413806836      0.28349587116516
  H   0.27637177278386     -1.16392791435059     -1.08532635645882
  H   0.17139492650202      0.93744727963962      1.10064671730564
  N   1.26072166895628     -1.47733531554770      0.71351205299342
  H   1.88228150269888     -2.15768740956003      0.29170410313779
  H   1.80297227217057     -0.95614645996550      1.39420449297310
  C   1.83212817777223      0.22100431393883     -0.95184215311393
  N   2.70016932881790      0.85772589310932     -1.42320480124682
  C   -1.46473797093850     -0.43607071473183      0.85423280120685
  H   -1.97810025777977     -0.97632162888177      0.05186306244595
  H   -2.19458221386457      0.22183503281574      1.33294469685805
  H   -1.11317588564911     -1.16465986356158      1.58342494919638
  C   -0.80283181734808      1.37855664101020     -0.76080786087746
  H   -1.24546670073909      0.85333727482940     -1.61355216934321
  H   0.00009834556641      2.01744639486892     -1.13400015823052
  H   -1.57435980201420      2.02265795806892     -0.33232514085111
