15

C	0.0	0.0	0.0
C	-0.529295	0.185718	-1.418537
Cl	1.7937	0.0	0.0
H	-1.62453	0.187414	-1.295876
H	-0.311192	-0.983057	0.355659
C	-0.492588	1.089299	0.929968
H	-0.131671	0.905128	1.944307
H	-1.584513	1.069504	0.921117
H	-0.13345	2.059378	0.5877
C	-0.16403	-0.965985	-2.267371
N	0.117153	-1.868087	-2.966115
N	-0.102808	1.46131	-1.981445
H	-0.671611	1.677293	-2.789999
H	0.864425	1.399207	-2.277573
Cl	-3.708903	0.0	0.0
