15

C	0.0	0.0	0.0
C	-0.559974	0.130602	-1.411872
Cl	1.793798	0.0	0.0
H	-1.651808	0.101645	-1.258967
H	-0.300907	-0.97399	0.389016
C	-0.500823	1.106806	0.90408
H	-0.171476	2.074502	0.526528
H	-1.592231	1.062763	0.911057
H	-0.122014	0.96195	1.918258
C	-0.183579	-1.03038	-2.241313
N	0.110811	-1.920814	-2.94978
N	-0.19765	1.40339	-2.021587
H	0.744202	1.355995	-2.391743
H	-0.833756	1.598964	-2.784038
Cl	-3.739923	0.0	0.0
