15

C	0.0	0.0	0.0
C	-0.599067	0.204424	-1.384045
Cl	1.784015	0.0	0.0
H	-1.686013	0.119595	-1.203784
H	-0.290131	-0.996402	0.341523
C	-0.497323	1.048871	0.978982
H	-0.072053	0.867763	1.967278
H	-0.211581	2.041785	0.634917
H	-1.58407	0.972634	1.029847
C	-0.205148	-0.875466	-2.304772
N	0.097685	-1.711292	-3.074313
N	-0.306119	1.53145	-1.921031
H	0.556971	1.5179	-2.454062
H	-1.066392	1.812163	-2.528736
Cl	-3.755275	0.0	0.0
