15

C	0.0	0.0	0.0
C	-0.569133	0.158463	-1.405347
Cl	1.784715	0.0	0.0
H	-1.660743	0.132811	-1.247122
H	-0.302958	-0.97991	0.373827
C	-0.49873	1.092813	0.924863
H	-1.590789	1.065175	0.92336
H	-0.150832	2.063879	0.574215
H	-0.132112	0.918397	1.938715
C	-0.199861	-0.987269	-2.259358
N	0.133171	-1.844008	-2.991931
N	-0.202554	1.439713	-1.996544
H	-0.864483	1.670488	-2.727932
H	0.724032	1.384284	-2.403817
Cl	-3.746643	0.0	0.0
