13

C	-0.004608	0.00281	0.003844
C	-0.492545	0.341369	-1.410482
F	1.3859	0.016885	0.021356
H	-1.598686	0.335982	-1.337855
H	-0.327875	0.810435	0.6724
N	-0.459911	-1.30361	0.346779
H	-1.482243	-1.269142	0.312939
H	-0.196288	-1.493965	1.30709
C	-0.042639	-0.655959	-2.383662
N	0.318144	-1.422059	-3.196075
C	-0.035652	1.672754	-1.811643
N	0.32846	2.7457	-2.11817
Cl	-3.442655	0.008169	0.00564
