13

C	-0.426433	0.086704	-0.152712
C	-0.250607	-0.548407	-1.556032
F	0.612271	1.050501	-0.145735
H	0.762902	-0.970984	-1.552497
H	-1.365525	0.634698	-0.065271
N	-0.3025	-0.831883	0.886331
H	0.018564	-1.750711	0.622216
H	-1.173435	-0.85905	1.428787
C	-0.305112	0.446555	-2.631331
N	-0.341456	1.2331	-3.501477
C	-1.193558	-1.63806	-1.818711
N	-1.905852	-2.546931	-2.028392
Cl	-3.227363	-0.292762	1.912066
