16

C	-0.402633	-0.026958	-1.4805
C	0.0	0.0	0.0
Cl	-2.209085	-0.172443	-1.618708
H	1.096631	0.0	0.0
C	-0.04511	1.249106	-2.103015
N	0.235617	2.240495	-2.666983
C	0.260616	-1.186599	-2.207026
H	1.341985	-1.097058	-2.065722
H	-0.080951	-2.131128	-1.779351
H	0.014409	-1.164193	-3.269493
C	-0.43916	-1.238809	0.657374
N	-0.80455	-2.19851	1.22948
N	-0.460226	1.205211	0.661461
H	0.241658	1.499864	1.327191
H	-1.339827	1.060576	1.137585
Cl	3.25433	0.0	0.0
