16

C	-0.471284	-0.023841	-1.486996
C	0.0	0.0	0.0
Cl	0.187025	1.43343	-2.30266
H	1.095569	0.0	0.0
C	0.058577	-1.20485	-2.17064
N	0.385612	-2.173426	-2.750465
C	-1.990066	-0.011525	-1.638323
H	-2.260393	-0.012219	-2.69521
H	-2.405944	0.88924	-1.183018
H	-2.417417	-0.894365	-1.157624
C	-0.515175	-1.216337	0.639427
N	-0.988504	-2.175163	1.126786
N	-0.394413	1.162502	0.768871
H	-1.323225	1.492887	0.543239
H	0.282127	1.89682	0.606985
Cl	3.258442	0.0	0.0
