16

C	-0.40092	-0.014662	-1.481158
C	0.0	0.0	0.0
Cl	-2.20578	-0.167491	-1.624113
H	1.096597	0.0	0.0
C	-0.048485	1.268142	-2.092796
N	0.217381	2.256303	-2.669348
C	0.269048	-1.164092	-2.216935
H	-0.066873	-2.113997	-1.797343
H	1.349578	-1.069369	-2.074012
H	0.022658	-1.13443	-3.279321
C	-0.439136	-1.245522	0.646024
N	-0.811051	-2.20839	1.208536
N	-0.462769	1.199069	0.669636
H	0.221882	1.471149	1.362981
H	-1.358542	1.056611	1.116305
Cl	3.256071	0.0	0.0
