16

C	-0.53951	0.081046	-1.450583
C	0.0	0.0	0.0
Cl	0.215836	1.499436	-2.242994
H	1.094152	0.0	0.0
C	-0.167524	-1.114337	-2.210377
N	0.031526	-2.085725	-2.841032
C	-2.052552	0.257641	-1.481182
H	-2.400174	0.364019	-2.509689
H	-2.537218	-0.611817	-1.027677
H	-2.298314	1.156888	-0.916645
C	-0.483894	-1.241987	0.608459
N	-0.930331	-2.191617	1.138821
N	-0.430574	1.174917	0.758994
H	-1.075994	0.924866	1.495889
H	0.395534	1.586778	1.176528
Cl	3.256134	0.0	0.0
