15
Coordinates from ORCA-job run
  C   -0.78614767351845      0.01703569511743      0.41861780305635
  C   0.67303813848057      0.34566856940523      0.13806543563816
  Cl  -1.07007717493418      0.25814352442258      2.17269538058921
  H   1.32667635293532     -0.35681659704822      0.66443417615889
  H   -1.40826358896487      0.74640716894198     -0.10258644968065
  C   -1.16558105150052     -1.39837309463955      0.02973881895206
  H   -0.52322720815130     -2.12559796564475      0.53085222936082
  H   -2.19864039381210     -1.59951165732343      0.31467920609716
  H   -1.08151473663090     -1.52699997792833     -1.05060874077836
  N   0.99157710539770      1.72397439914175      0.33032528275428
  H   1.93555804958412      1.85051590310014      0.66453748839222
  H   0.34887062591082      2.18108612200613      0.95975974714129
  N   0.91935793072436      0.03129816385045     -1.33399309231180
  O   0.13715188191758      0.51342008557476     -2.14499657755192
  O   1.90122174256184     -0.66125033897618     -1.59252070781770
