15
Coordinates from ORCA-job run
  C   -0.79084574460737      0.02260161086058      0.34308255851884
  C   0.70326706734869      0.34497881363739      0.22688062212865
  Cl  -1.26028644556378      0.34693989381545      2.04175561362607
  H   1.27578336536787     -0.30522524158573      0.88923265175167
  H   -1.34573368456004      0.73704342323363     -0.26986653981177
  C   -1.14001886812093     -1.40411613897516     -0.03188023042793
  H   -0.54193915663290     -2.11503698230417      0.54176620538101
  H   -0.95810612552260     -1.57050559867319     -1.09585094567234
  H   -2.19457420180482     -1.59819286352768      0.16624988978209
  N   1.10777297705966      1.70483959579494      0.41230523407311
  H   0.47730487756560      2.33921971904394     -0.06161366194464
  H   1.13799481959222      1.93238130724505      1.39609406270078
  N   1.09610006595009     -0.04819021003960     -1.17178036871927
  O   1.79098244013185     -1.04856495656456     -1.31930045755062
  O   0.64329861379647      0.66082762803911     -2.06807463383566
