15
Coordinates from ORCA-job run
  C   -0.47671786808913     -0.30663611883275      0.81060728295723
  C   0.73294900061730      0.43578679857610      0.24623260838789
  Cl  0.09343300373345     -1.71160206165223      1.75688659617850
  H   1.45816053308761      0.60269792228494      1.04821493916121
  H   -0.92152278839660      0.37366634823377      1.54380626276260
  C   -1.52192434367705     -0.74036842405708     -0.19949796342557
  H   -2.39900975856163     -1.11610653974131      0.32967788462989
  H   -1.81357714947322      0.10074414292170     -0.83049623064454
  H   -1.13707749372812     -1.52714363146712     -0.84487407999344
  N   0.31163364246309      1.60257144140732     -0.47100453742023
  H   -0.48404202232934      2.04303588803926     -0.02985325024716
  H   1.06046234287407      2.27851533630358     -0.54422352405879
  N   1.50462127134860     -0.46066958373235     -0.71008065063874
  O   2.61742141332247     -0.82107134625822     -0.32963263495623
  O   0.97619021680850     -0.75442017202561     -1.77576270269261
