15
Coordinates from ORCA-job run
  C   -0.35845423896154     -0.80249628056148     -0.06590688573374
  C   0.59807035100421      0.35265244155056      0.20864197786870
  Cl  -0.35096694235081     -1.15841162641122     -1.82424070803865
  H   0.57349275938818      0.56680664333040      1.28280860997955
  H   0.02050967612708     -1.70076273255562      0.41525352217287
  C   -1.76672443978633     -0.47952058598520      0.39070794238246
  H   -1.77590473506235     -0.31163209998888      1.47172512387007
  H   -2.14505609013954      0.41409563394103     -0.10723064832197
  H   -2.43737915293237     -1.30978381576726      0.16713468298311
  N   0.38969954622866      1.52543967398025     -0.53208877206851
  H   -0.08565854584902      1.41012659813273     -1.41105563854197
  H   0.11085204202801      2.33810700337796     -0.01475828915727
  N   2.05884291256350     -0.15994910653717      0.02358789330805
  O   2.90136017090085      0.64852041872864     -0.33166361572615
  O   2.26731668684148     -1.33219216523475      0.32808480502345
