15
Coordinates from ORCA-job run
  C   -0.54223641274822     -0.29464234777542      0.85949888038052
  C   0.70009287609105      0.49043404974668      0.42061149405826
  Cl  -0.13211537390533     -1.56879745161711      2.04063465042060
  H   1.44683210740829      0.49962239282920      1.21620066161802
  H   -1.15178842618993      0.42320495857267      1.41004205839006
  C   -1.32919362356452     -0.89149599052827     -0.29592236696812
  H   -2.29879713867094     -1.24416601247239      0.05605241011757
  H   -0.79155979483837     -1.73525089304755     -0.72956947927617
  H   -1.49994699584918     -0.14842464109451     -1.08074371025467
  N   0.33991537614507      1.81661153426809      0.06194057276484
  H   1.12841951807407      2.31527557943112     -0.32950128677742
  H   -0.39862007718791      1.82123375374991     -0.63009694471695
  N   1.38400123349354     -0.28450431101428     -0.71856806451367
  O   1.31204594179172      0.19006665364204     -1.84987913583675
  O   1.83395078995065     -1.38816727469018     -0.43169973940610
