14

C	0.0	0.0	0.0
C	-0.365214	0.185061	-1.517421
Cl	1.757226	0.0	0.0
H	0.431639	-0.340047	-2.055343
H	-0.412583	0.744729	0.672438
N	-0.394348	-1.342557	0.541321
O	-0.67387	-1.38316	1.73655
O	-0.304909	-2.296539	-0.223101
C	-0.137068	1.635001	-1.786649
N	0.008951	2.758264	-2.104095
N	-1.634835	-0.323796	-1.93841
H	-1.882033	0.068281	-2.846536
H	-2.376882	-0.135801	-1.169573
H	-3.08426	0.0	0.0
