14

C	0.0	0.0	0.0
C	-0.446175	0.019236	-1.478911
Cl	1.75763	0.0	0.0
H	0.260224	-0.652798	-1.993485
H	-0.402299	0.807479	0.605141
N	-0.417366	-1.287617	0.665496
O	-0.243655	-2.320483	0.03168
O	-0.828517	-1.193505	1.816954
C	-0.143908	1.387437	-1.966013
N	0.046319	2.456614	-2.418325
N	-1.804526	-0.408797	-1.684128
H	-2.183094	0.06681	-2.495612
H	-2.527651	-0.185398	-0.853993
H	-3.496068	0.0	0.0
