14

C	0.0	0.0	0.0
C	-0.429718	-0.00752	-1.511804
Cl	1.756638	0.0	0.0
H	0.331168	-0.617637	-2.008241
H	-0.40201	0.818393	0.589516
N	-0.406287	-1.270262	0.694655
O	-0.656533	-1.188383	1.890537
O	-0.368031	-2.30351	0.031486
C	-0.211547	1.377103	-1.978897
N	-0.035775	2.473573	-2.361326
N	-1.729101	-0.4673	-1.903925
H	-1.709375	-1.481713	-1.856944
H	-2.452315	-0.174055	-1.158451
H	-3.247612	0.0	0.0
