16

C	0.0	0.0	0.0
C	-0.466433	-0.038063	-1.486761
F	1.355488	0.0	0.0
H	0.484981	-0.010739	-2.028777
N	-0.220563	1.439035	0.61505
O	-0.607088	1.499728	1.776388
O	0.142973	2.389421	-0.071078
N	-0.507836	-1.001222	0.805097
H	-0.320075	-0.776296	1.775635
H	-1.522468	-1.038627	0.680711
C	-1.208164	1.141419	-1.985924
N	-1.717063	1.981769	-2.633056
N	-1.117308	-1.297884	-1.818222
H	-2.063841	-1.253377	-1.432333
H	-1.214881	-1.327198	-2.828011
Br	-3.634299	0.0	0.0
