16

C	0.0	0.0	0.0
C	-0.521466	0.126703	-1.441732
F	1.347999	0.0	0.0
H	-1.619447	0.177534	-1.345224
N	-0.358998	1.294369	0.767896
O	-0.967768	2.182016	0.177893
O	0.050099	1.350323	1.919912
N	-0.512651	-1.077355	0.75197
H	-0.261991	-1.949602	0.301434
H	-1.534466	-0.99528	0.773634
C	-0.174748	-1.130383	-2.110907
N	0.122056	-2.126789	-2.657263
N	0.086982	1.239754	-2.17978
H	-0.467713	2.061703	-1.97866
H	0.016877	1.052792	-3.172478
Br	-3.743498	0.0	0.0
