16

C	0.0	0.0	0.0
C	-0.473951	0.069869	-1.468708
F	1.355861	0.0	0.0
H	-1.564865	0.204796	-1.421663
N	-0.354343	1.322971	0.709219
O	-0.985755	2.174264	0.089326
O	0.083927	1.438571	1.847253
N	-0.507609	-1.042836	0.796749
H	-0.294535	-1.932305	0.359916
H	-1.528738	-0.935976	0.830322
C	-0.193839	-1.251265	-2.049511
N	0.078241	-2.305047	-2.490518
N	0.132516	1.089978	-2.309326
H	1.1293	1.120253	-2.13241
H	-0.268121	1.979456	-2.044066
Br	-3.698643	0.0	0.0
