16

C	0.0	0.0	0.0
C	-0.345165	-0.298196	-1.484441
F	1.371545	0.0	0.0
H	0.040879	-1.319332	-1.592286
N	-0.323337	1.465333	0.377943
O	-0.753383	2.215614	-0.491207
O	-0.11141	1.760061	1.550938
N	-0.562237	-0.908539	0.892753
H	-1.57756	-0.909177	0.757631
H	-0.365631	-0.616526	1.843957
C	0.507454	0.54246	-2.351221
N	1.18013	1.166958	-3.082972
N	-1.695345	-0.275449	-1.960308
H	-2.229311	-1.046071	-1.576716
H	-2.189339	0.551719	-1.643666
Br	-4.191595	0.0	0.0
