17

C	0.0	0.0	0.0
C	-0.254027	-0.009039	-1.527932
F	1.4092	0.0	0.0
H	0.185075	0.934389	-1.891381
H	0.415019	-0.804022	-1.896768
C	-0.541653	1.234613	0.677075
H	-0.253043	1.252193	1.734202
H	-0.163296	2.14034	0.192978
H	-1.633597	1.16287	0.587217
C	-0.523825	-1.2543	0.658861
H	-0.167791	-2.142705	0.12888
H	-1.617154	-1.186749	0.611965
H	-0.193781	-1.305855	1.701946
N	-1.61074	-0.218673	-2.010517
H	-1.848953	0.535865	-2.641073
H	-2.307837	-0.169137	-1.226129
F	-3.252652	0.0	0.0
