12

C	-0.586635	-0.001455	-1.403898
C	0.0	0.0	0.0
Cl	0.038141	-1.373866	-2.375098
H	1.098595	0.0	0.0
H	-1.663535	-0.16069	-1.325546
H	-0.349632	0.920786	0.480495
C	-0.343253	1.245604	-2.120673
N	-0.168892	2.263346	-2.678772
N	-0.563563	-1.145952	0.729492
H	-0.039414	-1.96341	0.436114
H	-0.323966	-1.018623	1.704824
Cl	3.497692	0.0	0.0
