12

C	-0.491885	-0.047929	-1.445893
C	0.0	0.0	0.0
Cl	-0.107913	1.465295	-2.321721
H	1.092051	0.0	0.0
H	0.022516	-0.859657	-1.960656
H	-0.36301	0.920743	0.471522
C	-1.935826	-0.275964	-1.508706
N	-3.095419	-0.459105	-1.532405
N	-0.449058	-1.229526	0.649407
H	0.301258	-1.588529	1.224508
H	-1.260557	-1.069499	1.230654
Cl	3.456085	0.0	0.0
