12

C	-0.578674	0.002578	-1.40627
C	0.0	0.0	0.0
Cl	0.012915	-1.393198	-2.365178
H	1.098642	0.0	0.0
H	-1.66046	-0.13263	-1.331605
H	-0.347581	0.92089	0.480854
C	-0.30917	1.242609	-2.130115
N	-0.133532	2.269021	-2.671924
N	-0.570777	-1.14564	0.725704
H	-0.022566	-1.959829	0.467607
H	-0.3747	-0.999563	1.710323
Cl	3.500454	0.0	0.0
