12

C	-0.487004	0.071698	-1.445523
C	0.0	0.0	0.0
Cl	-0.011479	1.608037	-2.224182
H	1.092114	0.0	0.0
H	-0.014446	-0.723413	-2.026042
H	-0.323993	-0.975251	0.383202
C	-1.940802	-0.071273	-1.528774
N	-3.104871	-0.218082	-1.56522
N	-0.562717	1.0917	0.789524
H	-1.002054	0.729323	1.623022
H	0.193836	1.697286	1.08281
Cl	3.47215	0.0	0.0
