12

C	-0.444404	0.00368	-1.455373
C	0.0	0.0	0.0
Cl	-2.172232	0.49733	-1.636191
H	1.100853	0.0	0.0
H	0.142734	0.736543	-2.012974
H	-0.33575	0.941995	0.440916
C	-0.282338	-1.307209	-2.082214
N	-0.157811	-2.361885	-2.584264
N	-0.595671	-1.127072	0.716999
H	0.057593	-1.901355	0.669453
H	-0.673628	-0.884872	1.696173
Cl	3.466031	0.0	0.0
