15

C	0.0	0.0	0.0
C	-0.471894	-0.180805	-1.432927
F	1.387907	0.0	0.0
H	0.032015	-1.067465	-1.830009
H	-1.550377	-0.36744	-1.358565
N	-0.558048	1.177094	0.566577
H	-1.589799	1.022835	0.438038
H	-0.385949	1.175268	1.566885
C	-0.300159	-1.246997	0.780495
N	-0.398378	-2.241386	1.398704
C	-0.184254	1.037482	-2.302062
H	0.871731	1.316738	-2.260038
H	-0.442293	0.823102	-3.343392
H	-0.776531	1.889188	-1.969681
H	-3.084195	0.0	0.0
