15

C	0.0	0.0	0.0
C	-0.428744	0.270356	-1.435889
F	1.412963	0.0	0.0
H	-1.527211	0.256623	-1.391792
H	-0.103823	1.295368	-1.659792
N	-0.537736	0.897957	0.964484
H	-0.446601	1.835953	0.581307
H	-1.56403	0.677364	0.912092
C	-0.344829	-1.393354	0.391699
N	-0.45318	-2.530856	0.661972
C	0.125094	-0.709912	-2.460708
H	-0.194254	-0.428457	-3.468107
H	1.217018	-0.738007	-2.441967
H	-0.245957	-1.718878	-2.266388
H	-3.021921	0.0	0.0
