15

C	0.0	0.0	0.0
C	-0.426154	0.008258	-1.465807
F	1.403807	0.0	0.0
H	-1.514923	-0.135044	-1.434958
H	0.048618	-0.84684	-1.960489
N	-0.535895	1.025955	0.829711
H	-1.566542	0.82568	0.779141
H	-0.394326	1.912376	0.354923
C	-0.345247	-1.320044	0.604851
N	-0.483614	-2.371497	1.106522
C	-0.060454	1.303967	-2.180373
H	0.99723	1.549767	-2.054409
H	-0.662541	2.138677	-1.814966
H	-0.260691	1.21199	-3.251393
H	-3.023168	0.0	0.0
