15

C	0.0	0.0	0.0
C	-0.46435	-0.023864	-1.444983
F	1.388189	0.0	0.0
H	-0.131535	0.93027	-1.868203
H	-1.562241	-0.027052	-1.393836
N	-0.547382	1.132376	0.659897
H	-1.581633	0.991145	0.52978
H	-0.369163	1.052035	1.658262
C	-0.31167	-1.301878	0.676683
N	-0.424057	-2.340991	1.212799
C	0.076939	-1.206161	-2.237447
H	1.16647	-1.266337	-2.179782
H	-0.338158	-2.145679	-1.864512
H	-0.203157	-1.115621	-3.290899
H	-3.044912	0.0	0.0
