15

C	0.0	0.0	0.0
C	-0.23312	0.050971	-1.53346
F	1.38621	0.0	0.0
H	0.156519	1.041649	-1.794338
H	0.489623	-0.676014	-1.91996
N	-0.595789	1.086685	0.681981
H	-1.624261	0.916047	0.501474
H	-0.466987	0.956178	1.683412
C	-0.3372	-1.347892	0.551917
N	-0.481506	-2.430326	0.985996
C	-1.569106	-0.187613	-2.21832
H	-1.387619	-0.166966	-3.303197
H	-2.315919	0.548414	-1.937608
H	-1.999735	-1.148645	-1.942079
H	-3.07756	0.0	0.0
