13

C	0.0	0.0	0.0
C	-0.518629	-0.25058	-1.428864
Br	1.996022	0.0	0.0
H	-1.627243	-0.190529	-1.281264
H	-0.318363	0.994665	0.309263
N	-0.503265	-0.986498	0.855409
H	0.013892	-1.849428	0.88353
H	-0.8462	-0.669298	1.744568
C	-0.168263	-1.595754	-1.876114
N	0.110848	-2.687995	-2.204353
C	-0.078272	0.753903	-2.392618
N	0.255837	1.564599	-3.174057
Br	-3.636374	0.0	0.0
