13

C	0.0	0.0	0.0
C	-0.529199	-0.104607	-1.441759
Br	1.937586	0.0	0.0
H	-1.634667	-0.110702	-1.320553
H	-0.295023	0.983378	0.381547
N	-0.494471	-1.130655	0.728366
H	-1.51859	-1.051279	0.711968
H	-0.188486	-1.07527	1.693382
C	-0.112761	-1.344804	-2.095409
N	0.20093	-2.327676	-2.655617
C	-0.16222	1.055055	-2.252664
N	0.113704	1.992719	-2.903264
Br	-3.618128	0.0	0.0
