13

C	0.0	0.0	0.0
C	-0.445924	0.012144	-1.508661
Br	1.941696	0.0	0.0
H	0.46581	-0.011934	-2.118052
H	-0.288897	0.950032	0.457166
N	-0.458699	-1.184897	0.658672
H	-1.485492	-1.146817	0.601234
H	-0.206171	-1.128021	1.639862
C	-1.104651	1.270614	-1.872743
N	-1.436035	2.334102	-2.245091
C	-1.186305	-1.177955	-1.941941
N	-1.594896	-2.158592	-2.442957
Br	-3.455924	0.0	0.0
