13

C	0.0	0.0	0.0
C	-0.226529	0.058412	-1.551157
Br	2.011796	0.0	0.0
H	0.555226	0.72516	-1.947943
H	-0.352645	0.906451	0.481421
N	-0.488384	-1.144941	0.586035
H	-0.025469	-1.99471	0.313438
H	-0.69362	-1.08809	1.568083
C	-1.46107	0.590927	-2.157984
N	-2.097344	1.156124	-2.97418
C	0.050131	-1.26702	-2.114215
N	0.239135	-2.315149	-2.61422
Br	-3.450862	0.0	0.0
