13

C	0.0	0.0	0.0
C	-0.413507	-0.016111	-1.461339
Br	1.932751	0.0	0.0
H	-1.504133	-0.105426	-1.408949
H	-0.389033	0.85371	0.543263
H	0.029564	-0.894937	-1.942581
N	-0.401555	-1.233683	0.748231
O	-0.46235	-1.141702	1.971322
O	-0.487872	-2.279037	0.106914
N	-0.026657	1.259826	-2.066824
H	0.875212	1.181582	-2.51793
H	-0.712818	1.508934	-2.765851
H	-2.754987	0.0	0.0
