13

C	0.0	0.0	0.0
C	-0.486289	0.108827	-1.472616
Br	1.930875	0.0	0.0
H	0.268777	-0.389786	-2.085952
H	-0.375723	0.764813	0.673915
H	-0.426499	1.180758	-1.698915
N	-0.375115	-1.316823	0.624631
O	-0.719179	-1.296149	1.801368
O	-0.265427	-2.318366	-0.076663
N	-1.783342	-0.397991	-1.810507
H	-1.760559	-1.409351	-1.750833
H	-2.534268	-0.103338	-1.131079
H	-3.627951	0.0	0.0
