13

C	0.0	0.0	0.0
C	-0.332373	-0.125762	-1.507671
Br	1.930303	0.0	0.0
H	0.359644	-0.836858	-1.956233
H	-0.337582	0.904696	0.483305
H	-1.343421	-0.502674	-1.598817
N	-0.468389	-1.148455	0.806916
O	-0.476449	-1.004011	2.035976
O	-0.529605	-2.240862	0.222182
N	-0.236553	1.144039	-2.213701
H	-0.915558	1.767375	-1.791251
H	0.684484	1.541111	-2.059949
H	-2.273559	0.0	0.0
