13

C	0.0	0.0	0.0
C	-0.488913	-0.246242	-1.441954
Br	1.930406	0.0	0.0
H	0.320385	-0.675364	-2.036306
H	-0.357139	0.920715	0.442569
H	-1.313302	-0.949205	-1.371484
N	-0.376109	-1.096628	0.956932
O	-0.463733	-0.790383	2.143244
O	-0.412197	-2.241417	0.511501
N	-0.995542	0.954122	-2.081715
H	-0.322377	1.707056	-1.979652
H	-1.824679	1.183428	-1.522905
H	-2.634395	0.0	0.0
