15

C	-0.503947	-0.101544	-1.440771
C	0.0	0.0	0.0
Br	-0.225331	1.604981	-2.38214
H	1.095115	0.0	0.0
H	-1.589091	-0.242884	-1.460888
C	0.22629	-1.20782	-2.177286
H	1.301797	-1.03059	-2.112302
H	-0.000288	-2.153333	-1.680398
H	-0.087702	-1.259817	-3.222409
N	-0.361826	-1.243894	0.698754
H	0.452453	-1.51606	1.244601
H	-1.141002	-1.096789	1.328785
C	-0.51283	1.172191	0.704078
N	-0.960489	2.055916	1.339297
H	2.763792	0.0	0.0
