15

C	-0.440724	-0.113853	-1.46408
C	0.0	0.0	0.0
Br	-0.107824	1.575745	-2.417704
H	1.096049	0.0	0.0
H	-1.527796	-0.240454	-1.535732
C	0.312715	-1.227402	-2.172722
H	0.040391	-2.192911	-1.736215
H	0.070159	-1.249812	-3.237049
H	1.38503	-1.072955	-2.028755
N	-0.343283	-1.199735	0.768514
H	0.472092	-1.802942	0.758617
H	-1.1349	-1.694049	0.375872
C	-0.565947	1.174466	0.65899
N	-1.038971	2.108348	1.194142
H	2.758174	0.0	0.0
