15

C	-0.258464	-0.030373	-1.492082
C	0.0	0.0	0.0
Br	-2.188368	-0.309401	-1.931975
H	1.098822	0.0	0.0
H	0.220896	-0.933922	-1.878158
C	0.270999	1.199117	-2.192249
H	0.18553	1.109332	-3.277272
H	-0.258585	2.096654	-1.865385
H	1.328306	1.28052	-1.908409
N	-0.389719	-1.179186	0.754941
H	-1.214737	-1.608262	0.350692
H	0.388617	-1.828801	0.710688
C	-0.520639	1.216527	0.613072
N	-0.937243	2.207792	1.089613
H	2.689715	0.0	0.0
