15

C	-0.516096	-0.10696	-1.435377
C	0.0	0.0	0.0
Br	-0.27897	1.604506	-2.377344
H	1.100068	0.0	0.0
H	-1.598354	-0.269065	-1.442823
C	0.224989	-1.199635	-2.181969
H	-0.109112	-1.263415	-3.220381
H	0.029454	-2.14763	-1.676379
H	1.29798	-0.999918	-2.139183
N	-0.346777	-1.249783	0.699468
H	0.490599	-1.53528	1.2023
H	-1.089306	-1.099837	1.370187
C	-0.513003	1.165411	0.711552
N	-0.952245	2.04941	1.352282
H	2.752783	0.0	0.0
