15

C	0.0	0.0	0.0
C	-0.601914	-0.241717	-1.36828
Cl	1.797741	0.0	0.0
H	-0.621811	0.696357	-1.920181
H	-1.646118	-0.568825	-1.220166
N	-0.543323	1.16939	0.520154
H	-0.452951	1.984783	-0.061258
H	-0.331394	1.320429	1.493395
N	-0.382205	-1.108315	0.999242
O	-0.85396	-2.145457	0.56761
O	-0.163914	-0.83628	2.174611
N	0.114654	-1.199722	-2.252201
O	0.655068	-2.18521	-1.762834
O	0.072585	-0.941027	-3.456056
Br	-3.864178	0.0	0.0
