15

C	0.0	0.0	0.0
C	-0.534619	0.131229	-1.415895
Cl	1.776895	0.0	0.0
H	-1.630013	0.16189	-1.356118
H	-0.173917	-0.68592	-2.029953
N	-0.514972	0.949913	0.870124
H	-0.27178	0.722567	1.826315
H	-1.536055	0.966153	0.762528
N	-0.320378	-1.484767	0.459039
O	-0.44929	-1.637976	1.665502
O	-0.357903	-2.363904	-0.391141
N	-0.054217	1.389729	-2.042558
O	0.836075	1.287772	-2.891741
O	-0.5801	2.442815	-1.692675
Br	-3.697728	0.0	0.0
