15

C	0.0	0.0	0.0
C	-0.480736	0.048492	-1.449094
Cl	1.776589	0.0	0.0
H	0.095306	-0.639148	-2.061141
H	-1.557187	-0.143429	-1.473577
N	-0.494646	1.043042	0.775524
H	-1.518264	1.058608	0.688737
H	-0.219365	0.928345	1.742658
N	-0.354328	-1.417536	0.55659
O	-0.444658	-2.337664	-0.245323
O	-0.460452	-1.494379	1.772444
N	-0.243832	1.413813	-2.001399
O	0.76524	1.573152	-2.6943
O	-1.07223	2.281434	-1.747544
Br	-3.642266	0.0	0.0
