18

C	0.0	0.0	0.0
C	-0.554517	-0.119538	-1.422794
Cl	1.761501	0.0	0.0
H	-1.646996	-0.295234	-1.233511
C	-0.42636	1.308505	0.65086
H	-1.501301	1.435201	0.525439
H	-0.196841	1.258581	1.715657
H	0.120679	2.142695	0.205798
N	-0.613063	-1.1324	0.742667
O	-0.350432	-2.28694	0.328127
O	-1.770626	-0.758657	1.227595
C	0.015309	-1.237646	-2.168085
N	0.487494	-2.007275	-2.9213
C	-0.426795	1.151853	-2.263469
H	-1.039246	1.94684	-1.835941
H	-0.782896	0.955883	-3.278167
H	0.611765	1.48686	-2.322691
H	-2.874739	0.0	0.0
