18

C	0.0	0.0	0.0
C	-0.577547	-0.083473	-1.411982
Cl	1.761122	0.0	0.0
H	-1.677419	-0.205355	-1.195676
C	-0.421481	1.297913	0.680009
H	-1.497612	1.431601	0.55672
H	-0.194103	1.223215	1.744107
H	0.13007	2.138268	0.253584
N	-0.610761	-1.142555	0.729228
O	-1.767805	-0.780632	1.22317
O	-0.337841	-2.292126	0.308171
C	-0.099444	-1.230704	-2.175047
N	0.248175	-2.041447	-2.953034
C	-0.400605	1.183433	-2.249313
H	-0.799203	1.016821	-3.253221
H	0.654847	1.45426	-2.338939
H	-0.948653	2.012119	-1.799629
H	-2.876229	0.0	0.0
