16
Coordinates from ORCA-job run
  C   -0.48830454760897     -0.02820928272516      0.25103400814498
  C   0.80175840518761      0.09520979417959     -0.13460928648622
  C   -1.25141556854972     -1.31100037897617      0.42450243942445
  H   -0.62125082311069     -2.14996886489561      0.71432020237507
  H   -1.75081163957100     -1.59665892052628     -0.50673556864553
  H   -2.02131265260465     -1.16882392268985      1.18731168306048
  C   -1.22297329905758      1.24401543573210      0.57817786031606
  H   -1.12567105267008      1.50516089002526      1.64002844365840
  H   -2.28989520491198      1.12546958959902      0.37585013815182
  H   -0.84951676420312      2.08338601805732     -0.01301803466674
  N   1.51280163962057      1.29075456418977     -0.19652776564529
  H   2.49129775053092      1.12533773214023     -0.38587831950949
  H   1.39613297684784      1.86140151307471      0.62773679623011
  N   1.59502414685593     -1.06447136742063     -0.57838959738641
  O   1.00240331251921     -2.06722298539522     -0.97037849494194
  O   2.82373332072572     -0.94337981436908     -0.55242450407973
