16
Coordinates from ORCA-job run
  C   -0.45720518664809     -0.05263262806729      0.34851470655456
  C   0.82550843548137      0.09938502847972     -0.05143801742876
  C   -1.15829859519354      1.17846313272618      0.85632912795670
  H   -1.66165124188488      1.72142894446071      0.04577001637087
  H   -1.92754962582116      0.90230835730458      1.58105860496446
  H   -0.45886979078046      1.86442786913316      1.34014863614507
  C   -1.26447579098441     -1.31921147822658      0.29723018454383
  H   -2.32202067101465     -1.06510677110736      0.18867987609051
  H   -0.97746341875639     -1.97810634629371     -0.52048170433544
  H   -1.14993534301330     -1.89361182407051      1.22188755078164
  N   1.52332958250830      1.30364662520262     -0.08036747069027
  H   2.41669976671416      1.19836010123102     -0.54022752640902
  H   0.99218430400432      2.05756048157656     -0.49037007187899
  N   1.64996513627437     -1.04700113963984     -0.47215651674240
  O   1.32208304103606     -2.17341593504035     -0.10600760393223
  O   2.64769939807830     -0.79649441766894     -1.15556979199053
