16
Coordinates from ORCA-job run
  C   -0.47742799166810      0.00321700502269      0.33590936479888
  C   0.78644441991777      0.15754090279916     -0.10119410718162
  C   -1.31218651251901     -1.23393310706100      0.15223749034298
  H   -0.72897276844646     -2.15334851219730      0.15193593453000
  H   -1.84216734623176     -1.19380671001774     -0.80364503186751
  H   -2.05837020931243     -1.28696967856520      0.94798580517865
  C   -1.15767296376062      1.13458925752050      1.05033059064375
  H   -2.08072211768300      1.39826779189992      0.52301220316205
  H   -0.51647245302352      2.00970496195375      1.12128358981068
  H   -1.44989297920286      0.81534768034891      2.05601748326460
  N   1.57524856295785      1.30595582392923      0.11172353172434
  H   1.83334937271258      1.72872284428128     -0.77320334225981
  H   2.43346511975887      1.04586346667981      0.58398272081816
  N   1.47733139007625     -0.96341161005556     -0.79038411729222
  O   2.68007223287134     -1.08422560865998     -0.54861887306972
  O   0.83797424355308     -1.68151450787848     -1.55737324260321
