16
Coordinates from ORCA-job run
  C   -0.46887707031331     -0.00782732381178      0.32278879053372
  C   0.79026911364473     -0.12080617316759     -0.15672149487086
  C   -0.86239608419114      0.24056766574750      1.75165248442176
  H   -1.81601324010367      0.77460804763922      1.77158343952823
  H   -0.99546706316902     -0.70336438568886      2.28953326124922
  H   -0.12581595131374      0.81921016553998      2.30634353057924
  C   -1.58850516952859     -0.09935354952012     -0.67860615081362
  H   -1.86121155026062      0.88859158162005     -1.07180133867186
  H   -2.48269820859954     -0.51192589451466     -0.20556689437057
  H   -1.31838502994436     -0.73801667594742     -1.52274433613648
  N   1.13212458476152     -0.25534631747232     -1.49967114759855
  H   2.13201194665478     -0.19549940153044     -1.63105982468528
  H   0.65042805229557      0.40032864402419     -2.09689418931684
  N   1.96195500913868     -0.14991402406460      0.73673488398057
  O   1.79634030699774     -0.46160178062892      1.91387724800803
  O   3.05624035393097      0.11934942177579      0.23155173816331
