16
Coordinates from ORCA-job run
  C   -0.47270075815850     -0.04074400584238      0.30686247314835
  C   0.84576667704199      0.05341005211493      0.02241692800428
  C   -1.10524071921681      1.13779026364828      0.99656848029778
  H   -1.93751120922145      0.80512077207819      1.62124219313053
  H   -0.38657267513824      1.66317141042379      1.62975392120203
  H   -1.51404447458269      1.85707000478855      0.27509478476622
  C   -1.38075424614268     -1.18890160269047     -0.03281276527851
  H   -2.39897593269400     -0.81266721080920     -0.16183538454933
  H   -1.08584829394541     -1.71742288026267     -0.93766031686105
  H   -1.39588439799639     -1.92683174355164      0.77544144182516
  N   1.64434138735354      1.16835126533012      0.26255610315690
  H   2.56197875196514      1.05650193198406     -0.14493036886889
  H   1.21822187135302      2.03150236974498     -0.04077467258289
  N   1.59770734128826     -1.07360865664808     -0.55752542188707
  O   1.14712329833178     -2.20964867874188     -0.42858249315654
  O   2.66239337976244     -0.80309329156657     -1.12181490234698
