16
Coordinates from ORCA-job run
  C   -0.48322416043337      0.00971066631031      0.31922624645861
  C   0.79497328976260      0.14848039620874     -0.07964720420888
  C   -1.17996241843874      1.15873253921905      0.98812970830606
  H   -2.08994774943187      1.40888508671749      0.43241849035025
  H   -1.49623781814253      0.86493470028799      1.99436609843999
  H   -0.54015663474615      2.03533000037720      1.05303519081689
  C   -1.31846836288720     -1.22706041313914      0.13566898577976
  H   -2.08698229827077     -1.26155857400843      0.91095020788182
  H   -1.82137565157373     -1.20252536286884     -0.83528017136784
  H   -0.74020520202242     -2.14898219163163      0.16874462179103
  N   1.58306962613198      1.29699787319074      0.13545874854812
  H   1.87984952041505      1.69468352577288     -0.74895753615834
  H   2.41971772269830      1.04401651441832      0.64853655688876
  N   1.50122288473019     -0.98964584526276     -0.72377606203184
  O   2.69496945956174     -1.11134310869746     -0.44125947401260
  O   0.88275779264691     -1.71965580689447     -1.49661440748179
