16
Coordinates from ORCA-job run
  C   -0.47338416499331     -0.04943141527429      0.30285099513402
  C   0.84383305319686      0.08834545939513      0.03045461138296
  C   -1.19080481861920      1.16557807910989      0.82632250769143
  H   -0.51957127785642      1.81093767293281      1.39758566936678
  H   -2.01580565767707      0.86360976931822      1.47570215994353
  H   -1.62543692721160      1.75998618402913      0.01222233762468
  C   -1.30344474085409     -1.28531175396876      0.09659033471050
  H   -1.28601309065608     -1.92083817975390      0.98751813189395
  H   -2.34048221576737     -0.99287606124030     -0.08703700969386
  H   -0.96041803791995     -1.89910123530375     -0.73461016384061
  N   1.57010419167168      1.27081876922551      0.13913977756078
  H   2.50299610238417      1.16536541807384     -0.23358504716710
  H   1.10205583003845      2.06216547002313     -0.27690046918786
  N   1.67401149021222     -1.05522144811415     -0.38854044740425
  O   2.73683552156227     -0.79374366617341     -0.96049748467655
  O   1.28552474248944     -2.19128306227910     -0.12621590333840
