16
Coordinates from ORCA-job run
  C   -0.48936211421996     -0.00354177376217      0.30138853745093
  C   0.79112475997373      0.17356531299349     -0.07391777306147
  C   -1.29359706843136      1.17371938272989      0.77068501541253
  H   -2.19224915403795      1.27411375999752      0.15269286005677
  H   -1.63470162825780      1.00419761495130      1.79717564930833
  H   -0.71892750182310      2.09574102195368      0.72909632876337
  C   -1.22401039003627     -1.31526200252478      0.27838826958205
  H   -0.58174377391791     -2.17402387595656      0.46694128443658
  H   -1.68650849582956     -1.47316411895076     -0.70003533791647
  H   -2.01945023352695     -1.29652526108752      1.02664277014012
  N   1.48463665438107      1.39885728494729     -0.01273867241203
  H   1.77667589715124      1.68890079895615     -0.93954114699273
  H   2.32155622663947      1.28901132031791      0.54816311656612
  N   1.60410871140620     -0.98929919678777     -0.51668862698363
  O   1.07477127151869     -1.86912524558058     -1.19377751287575
  O   2.78867683901044     -0.97816502219711     -0.17547476147470
