16
Coordinates from ORCA-job run
  C   -0.47243701135452      0.00599423676590      0.34884253040943
  C   0.78235700335192      0.15057317743796     -0.11689412197054
  C   -1.24351934858998     -1.28478594698316      0.37323661731072
  H   -1.00347893019291     -1.94795920524951     -0.45636014986340
  H   -2.31340735235705     -1.06621575148045      0.35446762482578
  H   -1.02852325335790     -1.83663410592199      1.29265268773001
  C   -1.19186549965464      1.19299710466741      0.92011510699449
  H   -1.49369908497573      0.97766558504450      1.95071221363280
  H   -0.57253565662501      2.08641118831249      0.90146924958179
  H   -2.11127530394591      1.37621149434759      0.35455359474815
  N   1.48439008371171      1.37150225895357     -0.16933857459288
  H   2.31013808130291      1.33245864204745      0.41806407962755
  H   1.79492037639025      1.54387762922940     -1.11851452100454
  N   1.49470162164502     -1.01202852250087     -0.70835583390900
  O   1.34445563431944     -2.12590404029854     -0.20908719396384
  O   2.21777864033239     -0.76416374437172     -1.67556330955651
