16
Coordinates from ORCA-job run
  C   -0.47572257517262      0.00983908059027      0.34058480422216
  C   0.79106905861602      0.14211844334976     -0.09544027147289
  C   -1.26693854726593     -1.26893350957467      0.32810898756462
  H   -1.07799205830466     -1.84016871499678      1.24134916223913
  H   -2.33279484853418     -1.03349896490984      0.29317488925105
  H   -1.02057082963419     -1.92120008308012     -0.50829028060798
  C   -1.19104984798525      1.19979234070330      0.91096205530413
  H   -0.55644517654248      2.08243716295705      0.92580643977575
  H   -2.09028455304838      1.40833422657948      0.32219434911312
  H   -1.52657230880567      0.97252437198680      1.92848538900428
  N   1.50953900916092      1.35455086669751     -0.11814062204277
  H   1.82651284158717      1.54335828478090     -1.06218123740194
  H   2.33395537202415      1.28963568853745      0.46897786367716
  N   1.50130679588527     -1.02333395251769     -0.68404128684849
  O   2.25698561892452     -0.77380522380709     -1.62548656015728
  O   1.31800204909529     -2.14165001729633     -0.20606368162006
