16
Coordinates from ORCA-job run
  C   -0.46340620364510     -0.03719276430115      0.33491155491003
  C   0.83616284546130      0.05588150379021     -0.02643855542417
  C   -1.36950536993150     -1.21560957775002      0.11499553917393
  H   -1.11436960769408     -1.79483550789420     -0.77069425076237
  H   -1.32960718375298     -1.90289265114259      0.96594009086248
  H   -2.39920345286473     -0.86150422007102      0.01853545674583
  C   -1.07606741341635      1.17288398368933      0.98664980698042
  H   -0.33238452752042      1.74356327553978      1.54763158059800
  H   -1.53305787181123      1.84277268046750      0.24679160759192
  H   -1.86890256706839      0.86859674800221      1.67395872395541
  N   1.62790618974225      1.19394659527344      0.10138767683951
  H   2.52539087658398      1.06896791997091     -0.34519364371613
  H   1.17281718698743      2.03037050469520     -0.23317522821262
  N   1.57322610227052     -1.09458084808435     -0.57890790840298
  O   2.60008348024200     -0.84492065837851     -1.21787867029108
  O   1.14991751641729     -2.22644698380673     -0.35551378084819
