16
Coordinates from ORCA-job run
  C   -0.46269518858654      0.08230401757380      0.32032313478306
  C   0.80007742214546     -0.00719627884712     -0.15466614254931
  C   -0.89309831533683     -0.08528261908731      1.75034599283318
  H   -0.25820954373120     -0.76736400597641      2.31323269058475
  H   -0.87570767641857      0.87308966084757      2.27873800557557
  H   -1.91911463239267     -0.46173797121711      1.77269411730370
  C   -1.55197017641954      0.33474017536806     -0.68675860980550
  H   -1.18385050560570      0.91236414378689     -1.53776908497580
  H   -1.97535656133769     -0.60335573314395     -1.06842312559875
  H   -2.37139317829536      0.88838406423380     -0.22236021949389
  N   1.16270133377304      0.05681123395461     -1.49727115284926
  H   2.14166230840974     -0.15817436835350     -1.62343629610767
  H   0.58690221729520     -0.52263240083908     -2.08989257936633
  N   1.95972071277518     -0.14963098163418      0.74390191780622
  O   3.00036052476625     -0.59096908376189      0.24661470549465
  O   1.84097125895923      0.19765014709580      1.91672664636539
