16
Coordinates from ORCA-job run
  C   -0.49587614276791     -0.00087385845520      0.27886962765109
  C   0.79369153847018      0.12495994217316     -0.10025312729887
  C   -1.25348281200542     -1.29539906669187      0.39960428902068
  H   -1.07661731530381     -1.96721516714955     -0.44043340487073
  H   -2.32254351263823     -1.08430401679626      0.46331860128474
  H   -0.95819280560215     -1.84075961478772      1.29944590986367
  C   -1.24701018719658      1.23960409712690      0.67172501480343
  H   -0.70165477312550      2.14117344913486      0.39745917771968
  H   -1.42329196010683      1.24856334842159      1.75364871459332
  H   -2.22992029680860      1.24707691408442      0.19183169544778
  N   1.48825642363956      1.34361809313214     -0.17352537618760
  H   1.91635763666223      1.58832997265887      0.71031852220247
  H   2.19865044026908      1.29715474615472     -0.89196150100506
  N   1.56670189573783     -1.05129527496300     -0.57087318389361
  O   1.27110441554189     -2.17031469102330     -0.15726931027055
  O   2.47482745523425     -0.81831887301975     -1.37190564906045
