16
Coordinates from ORCA-job run
  C   -0.49389252024894     -0.09106337280663      0.24758515390995
  C   0.76678732041452      0.14407743710104     -0.16215171550283
  C   -1.55447910634696     -0.41116593406774     -0.76515880837550
  H   -1.16197174546008     -0.39307572213656     -1.77889733261433
  H   -1.97891883712863     -1.39893753826101     -0.55784039086979
  H   -2.37492812607618      0.30895307353134     -0.67673947695785
  C   -0.96427237886111     -0.04328183261038      1.67499594429945
  H   -0.20234977442477     -0.34426898113806      2.39217954634639
  H   -1.26511276686033      0.97425733953444      1.94008965767194
  H   -1.83586935877125     -0.69150782794570      1.78891923838795
  N   1.20653180507929      0.05527926819311     -1.49813869129904
  H   1.97062130130646     -0.60759378643137     -1.56124924740977
  H   1.55730257742408      0.95173425133033     -1.81709680253091
  N   1.82966153673471      0.44059316472518      0.83345282988077
  O   2.94463241083500     -0.02262462504182      0.58474315320450
  O   1.55625766238418      1.12762508602383      1.81630694185906
