16
Coordinates from ORCA-job run
  C   -0.48955908765658     -0.02554970320515      0.24752214801481
  C   0.80357238172171      0.09208555886850     -0.12970597153378
  C   -1.25448075344269     -1.30660711582334      0.42673537215199
  H   -1.74158000861631     -1.60466167508745     -0.50708233296328
  H   -2.03383478042802     -1.15540042426398      1.17806249949900
  H   -0.62798409416445     -2.14193680502131      0.73481199672035
  C   -1.22513760875239      1.25006072962194      0.55765086443151
  H   -1.14161670359845      1.51749128473826      1.61907433447095
  H   -0.84265892151333      2.08525839653941     -0.03365993304746
  H   -2.28961710952855      1.13294002321854      0.34162759054389
  N   1.51800950214749      1.28519752489359     -0.19635987049522
  H   2.49718489604918      1.11641547199600     -0.37891029296417
  H   1.39830572105912      1.86279960065568      0.62258180773751
  N   1.59761342552788     -1.07389915688325     -0.55609496884835
  O   2.82638565692941     -0.95599063719189     -0.52055913322909
  O   1.00539748426599     -2.07820307305556     -0.94469411048868
