16

C	-0.499734	-0.032099	-1.424533
C	0.0	0.0	0.0
F	-1.911824	-0.078243	-1.395865
H	1.091259	0.0	0.0
H	-0.230937	0.900211	-1.922493
C	0.030426	-1.234721	-2.162804
H	-0.315521	-1.224768	-3.199306
H	1.12249	-1.2113	-2.137692
H	-0.310021	-2.145585	-1.67068
N	-0.485734	-1.090762	0.767204
H	0.03957	-1.165016	1.62662
H	-1.466051	-0.969765	0.985002
N	-0.380188	1.364154	0.602435
O	-0.868702	1.379061	1.732953
O	-0.138753	2.364458	-0.069282
Cl	3.323933	0.0	0.0
