16

C	-0.4828	-0.016553	-1.432232
C	0.0	0.0	0.0
F	-1.893202	-0.071673	-1.423181
H	1.092688	0.0	0.0
H	-0.21236	0.92279	-1.914447
C	0.06393	-1.204644	-2.178954
H	-0.273747	-2.123242	-1.700457
H	1.155203	-1.172611	-2.143299
H	-0.271224	-1.184509	-3.21847
N	-0.482777	-1.111617	0.74105
H	-1.464078	-0.998394	0.956266
H	0.036413	-1.197073	1.60327
N	-0.414991	1.344632	0.612028
O	-0.129328	2.36128	-0.013404
O	-0.997603	1.330261	1.696954
Cl	3.330211	0.0	0.0
