16

C	-0.504202	0.03349	-1.444959
C	0.0	0.0	0.0
F	-0.213256	-1.216547	-1.999384
H	1.090781	0.0	0.0
H	-1.598696	0.119786	-1.444947
C	0.158783	1.103151	-2.277126
H	-0.141707	2.097552	-1.942892
H	-0.127385	0.98547	-3.325319
H	1.242461	1.015824	-2.175973
N	-0.478206	-1.098675	0.785536
H	0.195951	-1.849168	0.715779
H	-1.382113	-1.420689	0.468123
N	-0.510345	1.281767	0.614221
O	0.248074	2.237021	0.708771
O	-1.700322	1.286044	0.923894
Cl	3.404085	0.0	0.0
