14
Coordinates from ORCA-job run
  C   -0.37021731339484      0.14276390151722      0.51243833310954
  C   1.01558955748985      0.26783598037720     -0.11678587456298
  F   -0.26630490590205     -0.80802004756469      1.53460615989854
  H   1.69713209624448      0.64272066568246      0.65967616678567
  H   0.96505580195676      1.02083389174697     -0.90795676757855
  C   -1.44405511156575     -0.31512573590831     -0.45148777403943
  H   -1.11695433879409     -1.24209738177631     -0.91893867393053
  H   -1.60649463033795      0.43949857976107     -1.22360178171649
  H   -2.37770922798977     -0.47589311048317      0.08910524578607
  C   -0.73567475026969      1.42538524462391      1.14142470676296
  N   -1.01528694897886      2.46525194962604      1.60892959379083
  N   1.39964656303794     -1.01268361937234     -0.69122240207054
  H   1.64908275859578     -1.65333320496784      0.05124771344662
  H   2.20819044990820     -0.89713711326220     -1.28743464568169
