14
Coordinates from ORCA-job run
  C   -0.49223237198809     -0.04490734759713      0.56872443447666
  C   0.92339040748429     -0.53736132605763      0.27030549316615
  F   -0.92090064615348     -0.70050190227828      1.72189466102277
  H   1.50357389323477     -0.45473295689946      1.19939490792563
  H   0.84378814390172     -1.59885766327051      0.02068037674498
  C   -1.47217696278489     -0.32905295272015     -0.54842314246275
  H   -1.52708013770170     -1.40976011252504     -0.69686809503197
  H   -2.46343583229208      0.04260431995856     -0.28546199797365
  H   -1.12851884589390      0.14409399565403     -1.46714743085218
  C   -0.43958304755066      1.39935773438843      0.86873977990851
  N   -0.35280447742604      2.55041542354410      1.08258749234572
  N   1.46552024191368      0.19070304092800     -0.86770491553330
  H   1.84524504283537      1.08018816024507     -0.56767881296427
  H   2.21521459242106     -0.33318841337000     -1.29804275077230
