14

C	0.0	0.0	0.0
C	-0.442576	0.109568	-1.467093
F	1.391739	0.0	0.0
H	0.082579	-0.714741	-1.980168
H	-0.362919	0.854327	0.574381
C	-0.422522	-1.272969	0.600524
N	-0.67613	-2.32788	1.047792
N	-0.013367	1.430421	-1.917147
H	-0.462153	1.586147	-2.811657
H	0.990993	1.448314	-2.042584
N	-1.840285	-0.026116	-1.737505
H	-2.164802	-0.976207	-1.613023
H	-2.444479	0.524957	-1.129872
Cl	-4.536178	0.0	0.0
