14

C	0.0	0.0	0.0
C	-0.502416	-0.183773	-1.440545
F	1.383664	0.0	0.0
H	-1.568182	0.05443	-1.420217
H	-0.354888	0.956578	0.39016
C	-0.408314	-1.08588	0.904967
N	-0.591062	-1.99053	1.630144
N	-0.211902	-1.549574	-1.869012
H	-0.428449	-1.579608	-2.859009
H	-0.869071	-2.169429	-1.403955
N	0.172467	0.7134	-2.363642
H	1.167292	0.693224	-2.169893
H	-0.165693	1.65727	-2.22177
Cl	-3.504899	0.0	0.0
