14

C	0.0	0.0	0.0
C	-0.518682	0.023583	-1.436146
F	1.39175	0.0	0.0
H	0.179867	0.698304	-1.960628
H	-0.330115	0.911707	0.501695
C	-0.435759	-1.176127	0.766383
N	-0.688742	-2.097365	1.446819
N	-1.80533	0.64759	-1.439658
H	-2.535243	0.202618	-0.872482
H	-2.171244	0.750606	-2.376109
N	-0.461835	-1.339554	-1.984565
H	0.47346	-1.550007	-2.319416
H	-1.111415	-1.412499	-2.757393
Cl	-4.634762	0.0	0.0
