14

C	0.0	0.0	0.0
C	-0.466202	-0.005997	-1.492977
F	1.377247	0.0	0.0
H	0.484735	-0.050915	-2.037728
H	-0.358956	0.887965	0.520553
C	-0.399604	-1.218514	0.724854
N	-0.571954	-2.231525	1.291843
N	-1.089642	1.277558	-1.759728
H	-1.978567	1.271262	-1.255426
H	-1.333381	1.280249	-2.744901
N	-1.277178	-1.122971	-1.947509
H	-0.830521	-2.004984	-1.718472
H	-2.166909	-1.081322	-1.447955
Cl	-3.622594	0.0	0.0
