14

C	0.0	0.0	0.0
C	-0.539535	-0.190521	-1.416141
F	1.377845	0.0	0.0
H	-1.565387	0.183252	-1.389375
H	-0.348389	0.964942	0.372711
C	-0.404029	-1.067016	0.933114
N	-0.583393	-1.956123	1.67772
N	-0.471199	-1.610444	-1.786667
H	-0.819487	-1.678118	-2.738522
H	-1.158828	-2.100069	-1.217281
N	0.254301	0.651925	-2.289022
H	-0.221982	0.75423	-3.175716
H	1.143215	0.19227	-2.451671
Cl	-3.533521	0.0	0.0
