14

C	0.0	0.0	0.0
C	-0.453272	0.409288	-1.441974
F	1.376152	0.0	0.0
H	0.504371	0.517972	-1.964754
H	-0.364404	0.708789	0.743405
C	-0.402417	-1.370978	0.351636
N	-0.622161	-2.501028	0.580657
N	-1.073876	1.719083	-1.349323
H	-1.963535	1.576187	-0.867773
H	-1.314901	1.988358	-2.297869
N	-1.257653	-0.533508	-2.200139
H	-2.152036	-0.629765	-1.717367
H	-0.814209	-1.446003	-2.219496
Cl	-3.591285	0.0	0.0
