14

C	0.0	0.0	0.0
C	-0.468445	0.715531	-1.308319
F	1.376288	0.0	0.0
H	0.481194	0.946459	-1.806088
H	-0.356543	0.531917	0.882302
C	-0.40441	-1.414169	0.056418
N	-0.58709	-2.574025	0.051787
N	-1.094883	1.966342	-0.91833
H	-1.326896	2.451664	-1.779653
H	-1.988936	1.719225	-0.489313
N	-1.280717	-0.039914	-2.247249
H	-2.171825	-0.241852	-1.791888
H	-0.839852	-0.924054	-2.477801
Cl	-3.637723	0.0	0.0
