14

C	0.0	0.0	0.0
C	-0.481129	0.118722	-1.443082
F	1.397755	0.0	0.0
H	-1.553302	0.307543	-1.376986
H	-0.344329	0.852902	0.585368
C	-0.395777	-1.263947	0.642379
N	-0.574128	-2.292394	1.178605
N	-0.281932	-1.097115	-2.230443
H	-1.030934	-1.744325	-2.01179
H	0.594282	-1.539793	-1.973776
N	0.18126	1.287028	-2.001917
H	1.158936	1.066471	-2.150169
H	-0.225388	1.447373	-2.914314
Cl	-3.489049	0.0	0.0
