14

C	0.0	0.0	0.0
C	-0.515495	-0.178475	-1.410987
F	1.39325	0.0	0.0
H	-1.606035	-0.189941	-1.309357
H	-0.348449	0.953625	0.394761
C	-0.388675	-1.104918	0.894157
N	-0.547111	-2.005951	1.627426
N	-0.069148	-1.470763	-1.914744
H	0.928725	-1.446849	-2.09701
H	-0.552545	-1.687954	-2.777133
N	-0.131193	1.012109	-2.169854
H	0.834045	0.928676	-2.467436
H	-0.71259	1.082038	-2.994825
Cl	-3.612249	0.0	0.0
