14

C	0.0	0.0	0.0
C	-0.447022	-0.208206	-1.462615
F	1.377458	0.0	0.0
H	-1.508507	0.035661	-1.50915
H	-0.37049	0.956399	0.373531
C	-0.406611	-1.087446	0.903964
N	-0.566973	-1.998458	1.626587
N	-0.131723	-1.582115	-1.843513
H	-0.81458	-2.196022	-1.410273
H	-0.272004	-1.634687	-2.845747
N	0.28571	0.661427	-2.370327
H	1.27033	0.614643	-2.133398
H	-0.027821	1.616734	-2.246321
Cl	-3.386899	0.0	0.0
