16

C	0.0	0.0	0.0
C	-0.504539	-0.103067	-1.460145
Cl	1.816808	0.0	0.0
H	-1.595934	0.028929	-1.377884
N	-0.322271	1.414309	0.605247
O	-0.514596	2.364836	-0.14331
O	-0.323674	1.462382	1.828489
N	-0.51331	-1.025473	0.784761
H	-1.538785	-1.010402	0.679063
H	-0.273454	-0.880286	1.758683
C	-0.242684	-1.475875	-1.91288
N	-0.003451	-2.541315	-2.344529
N	0.020299	0.809939	-2.455005
H	-0.277089	1.743636	-2.209048
H	1.033083	0.783805	-2.444659
Br	-3.649825	0.0	0.0
