16

C	0.0	0.0	0.0
C	-0.352296	0.221094	-1.50693
Cl	1.797989	0.0	0.0
H	0.493463	0.801111	-1.8947
N	-0.295829	1.312267	0.794663
O	-0.507937	1.17681	1.992298
O	-0.21094	2.369858	0.183992
N	-0.536423	-1.140222	0.56338
H	-0.431855	-1.102795	1.571128
H	-1.542673	-1.143764	0.332015
C	-1.493654	1.067477	-1.899333
N	-2.101566	1.826727	-2.562259
N	-0.483785	-1.090484	-2.127678
H	0.350243	-1.634224	-1.938013
H	-0.580629	-0.96681	-3.12843
Br	-3.585948	0.0	0.0
