14

C	0.0	0.0	0.0
C	-0.422724	-0.061688	-1.465217
Cl	1.777768	0.0	0.0
H	0.408053	-0.432583	-2.066526
H	-0.32661	-0.933075	0.447839
C	-0.478547	1.109778	0.816477
N	-0.556415	1.983824	1.600039
N	-0.759105	1.235442	-2.138982
O	-1.263102	2.152094	-1.510451
O	-0.475386	1.255581	-3.339337
N	-1.50718	-1.070538	-1.742843
O	-1.275427	-2.18153	-1.281709
O	-2.358748	-0.791727	-2.568535
F	-2.298386	0.0	0.0
