14

C	0.0	0.0	0.0
C	-0.349562	-0.410843	-1.43171
Cl	1.779646	0.0	0.0
H	0.42159	-0.070194	-2.12334
H	-0.371614	-0.749293	0.687213
C	-0.473312	1.32562	0.37733
N	-0.569409	2.433863	0.759664
N	-1.620146	0.096584	-2.066742
O	-1.604047	1.304302	-2.261388
O	-2.40443	-0.712336	-2.535172
N	-0.322667	-1.904938	-1.569456
O	-0.566105	-2.609478	-0.596674
O	-0.040337	-2.313734	-2.695401
F	-2.288271	0.0	0.0
