14

C	0.0	0.0	0.0
C	-0.26685	-0.165545	-1.504016
Cl	1.779759	0.0	0.0
H	0.22771	0.633944	-2.055211
H	-0.362914	-0.856782	0.5517
C	-0.503613	1.25585	0.533613
N	-0.595167	2.32997	1.005852
N	-1.662946	-0.236454	-2.086797
O	-2.063534	0.818938	-2.558359
O	-2.159199	-1.342333	-2.238163
N	0.383009	-1.433803	-1.99584
O	0.85332	-1.385538	-3.130794
O	0.360622	-2.418248	-1.270904
F	-2.280135	0.0	0.0
