14

C	0.0	0.0	0.0
C	-0.42367	0.294175	-1.436594
Cl	1.781236	0.0	0.0
H	0.411033	0.082616	-2.108444
H	-0.324612	-1.014488	0.20411
C	-0.482754	0.870949	1.06512
N	-0.573852	1.529818	2.035602
N	-0.769732	1.710361	-1.783311
O	-0.554038	1.991956	-2.965658
O	-1.208735	2.47573	-0.93836
N	-1.501486	-0.630435	-1.9482
O	-1.254432	-1.816206	-1.757693
O	-2.357742	-0.176379	-2.686635
F	-2.305249	0.0	0.0
