17

C	0.0	0.0	0.0
C	-0.534275	-0.001397	-1.429642
Cl	1.809714	0.0	0.0
H	-1.628206	-0.000387	-1.225043
C	-0.505607	1.194525	0.788071
H	-1.601379	1.082874	0.7234
H	-0.148136	1.146483	1.819723
H	-0.160941	2.1101	0.307713
C	-0.390225	-1.247837	0.670697
N	-0.62696	-2.239715	1.252671
N	-0.148765	-1.239949	-2.092978
H	-0.717971	-1.362797	-2.921458
H	0.825702	-1.19656	-2.376604
N	-0.146077	1.2459	-2.08757
H	-0.735776	1.373837	-2.901018
H	0.816443	1.174493	-2.40643
F	-2.878753	0.0	0.0
