17

C	0.0	0.0	0.0
C	-0.343254	0.205163	-1.537259
Cl	1.807366	0.0	0.0
H	0.37647	-0.447888	-2.056288
C	-0.628683	1.015612	0.919265
H	-1.716315	0.864352	0.788791
H	-0.336089	0.83163	1.956397
H	-0.336133	2.016351	0.606993
C	-0.387478	-1.364984	0.364825
N	-0.626303	-2.484442	0.629605
N	-0.119489	1.617687	-1.845528
H	-0.636054	1.78133	-2.700737
H	0.864606	1.791452	-2.011246
N	-1.661138	-0.152088	-1.960109
H	-2.391409	0.046888	-1.19936
H	-1.690788	-1.158476	-2.074673
F	-3.236996	0.0	0.0
