17

C	0.0	0.0	0.0
C	-0.537327	-0.176363	-1.420297
Cl	1.796027	0.0	0.0
H	-1.593963	-0.435336	-1.230795
C	-0.491968	1.285169	0.661662
H	-1.591054	1.213768	0.61713
H	-0.096422	2.139948	0.109212
H	-0.134098	1.337157	1.690293
C	-0.384436	-1.187031	0.784966
N	-0.590365	-2.192945	1.360603
N	0.172923	-1.248403	-2.076081
H	-0.348233	-1.534549	-2.888549
H	1.082953	-0.911859	-2.373157
N	-0.398805	1.108542	-2.127327
H	-0.561668	0.909549	-3.105578
H	-1.188753	1.67607	-1.824946
F	-2.865064	0.0	0.0
