17

C	0.0	0.0	0.0
C	-0.554372	0.15861	-1.426276
Cl	1.794336	0.0	0.0
H	-1.625033	0.338894	-1.216928
C	-0.499011	1.138732	0.876418
H	-0.160568	2.078116	0.436483
H	-0.104792	1.039316	1.890803
H	-1.594481	1.032558	0.839874
C	-0.413249	-1.287085	0.569132
N	-0.636008	-2.332574	1.056829
N	-0.320386	-1.077023	-2.193773
H	-0.748322	-0.929848	-3.103816
H	-0.870209	-1.812826	-1.755371
N	0.06469	1.30031	-2.067312
H	0.944318	1.001571	-2.477637
H	-0.542091	1.628922	-2.807899
F	-2.875798	0.0	0.0
