17

C	0.0	0.0	0.0
C	-0.539167	-0.066184	-1.47478
Cl	1.793678	0.0	0.0
H	0.335201	-0.101292	-2.132504
C	-0.480698	1.200986	0.802568
H	-0.02753	1.180185	1.79687
H	-0.209261	2.117775	0.281348
H	-1.567743	1.092648	0.860587
C	-0.348037	-1.222426	0.742006
N	-0.521777	-2.192513	1.380639
N	-1.276522	1.162658	-1.764657
H	-2.138405	1.027371	-1.208131
H	-1.539534	1.110983	-2.745933
N	-1.280296	-1.312707	-1.633003
H	-2.124125	-1.140247	-1.058343
H	-1.572021	-1.363642	-2.604988
F	-2.956825	0.0	0.0
