19

C	0.0	0.0	0.0
C	-0.305567	-0.115139	-1.514913
F	1.405685	0.0	0.0
H	0.211642	0.739352	-1.971786
C	-0.493856	1.313875	0.561759
H	-1.587173	1.326376	0.575417
H	-0.122858	2.152959	-0.033805
H	-0.129613	1.427935	1.586613
C	-0.503123	-1.179111	0.798957
H	-0.148185	-1.095584	1.830043
H	-0.135913	-2.118827	0.379485
H	-1.596818	-1.179903	0.803617
C	-1.775333	-0.096567	-1.925853
H	-2.263716	0.826259	-1.615753
H	-1.850281	-0.184055	-3.013878
H	-2.35105	-0.898041	-1.467206
C	0.356796	-1.313561	-2.045623
N	0.867827	-2.269128	-2.498036
Br	-4.616798	0.0	0.0
