19

C	0.0	0.0	0.0
C	-0.313826	0.105193	-1.512898
F	1.405676	0.0	0.0
H	0.314032	0.936872	-1.861449
C	-0.49041	1.226311	0.737742
H	-1.582209	1.220248	0.788996
H	-0.15401	2.138675	0.236851
H	-0.087937	1.219485	1.753867
C	-0.500618	-1.275864	0.635626
H	-0.094206	-2.150417	0.123417
H	-1.592941	-1.303984	0.599791
H	-0.185254	-1.307567	1.682066
C	-1.764985	0.389242	-1.895653
H	-2.47838	-0.301085	-1.447805
H	-1.872489	0.359187	-2.982598
H	-2.057344	1.38113	-1.551474
C	0.194609	-1.086433	-2.202657
N	0.602528	-2.028215	-2.772637
Br	-4.662524	0.0	0.0
