16

C	0.0	0.0	0.0
C	-0.526848	-0.012922	-1.419566
Br	1.946072	0.0	0.0
H	-0.020361	0.76747	-1.987878
H	-1.586153	0.255652	-1.338314
N	-0.283741	1.418887	0.626464
O	-0.371902	1.456982	1.848988
O	-0.353599	2.382733	-0.125247
N	-0.526222	-1.023652	0.792223
H	-0.292507	-0.865908	1.765899
H	-1.550523	-0.98416	0.686157
C	-0.388406	-1.377835	-2.078614
H	0.645652	-1.730953	-2.067934
H	-1.00938	-2.111904	-1.565631
H	-0.722405	-1.316394	-3.118067
Br	-3.789862	0.0	0.0
