16

C	0.0	0.0	0.0
C	-0.233459	-0.387343	-1.486058
Br	1.955466	0.0	0.0
H	0.424063	0.239876	-2.08652
H	0.167848	-1.405353	-1.568602
N	-0.387022	1.473523	0.204307
O	-0.157983	2.228018	-0.734561
O	-0.868042	1.787732	1.282362
N	-0.5873	-0.767476	1.021162
H	-0.509572	-1.748753	0.778794
H	-1.579929	-0.521039	1.083068
C	-1.626353	-0.33327	-2.085561
H	-2.333497	-1.014696	-1.62151
H	-1.523318	-0.582743	-3.148165
H	-2.073578	0.656983	-2.010121
Br	-4.216171	0.0	0.0
