16

C	0.0	0.0	0.0
C	-0.521874	-0.2388	-1.408042
Br	2.01649	0.0	0.0
H	-0.485033	-1.325578	-1.524676
H	-1.583102	0.032277	-1.359509
N	-0.26018	1.471662	0.469901
O	-0.344176	2.351192	-0.376434
O	-0.332835	1.640877	1.682239
N	-0.519412	-0.92296	0.904111
H	-1.534666	-0.963578	0.734837
H	-0.364154	-0.600514	1.8524
C	0.159542	0.42713	-2.596918
H	-0.39694	0.162394	-3.500532
H	1.187468	0.081923	-2.72151
H	0.16215	1.510447	-2.503363
Br	-3.77493	0.0	0.0
