16

C	0.0	0.0	0.0
C	-0.34705	-0.388067	-1.437973
Br	1.952981	0.0	0.0
H	0.067279	-1.393003	-1.564627
H	0.22208	0.277681	-2.086482
N	-0.309229	1.521056	0.229473
O	-0.572382	1.84759	1.381303
O	-0.232276	2.274737	-0.731862
N	-0.585359	-0.808208	0.974728
H	-0.45702	-0.410081	1.897544
H	-1.588454	-0.872984	0.787831
C	-1.812707	-0.359525	-1.831628
H	-1.876893	-0.532018	-2.910903
H	-2.288023	0.593617	-1.613868
H	-2.41738	-1.114587	-1.335468
Br	-4.64036	0.0	0.0
