14
Coordinates from ORCA-job run
  C   0.70418887122299      0.10733946118348     -0.22247466613862
  C   -0.48706254844627     -0.50337422160846      0.47240170698815
  F   1.00169380701289     -0.58534285654780     -1.36538502866119
  H   -0.23185355561423     -1.54632468385224      0.66824202303296
  H   -0.60596488399857     -0.00733467393657      1.44008042232595
  C   0.50729972209786      1.52336062101964     -0.55208372965862
  N   0.25816316539001      2.64112853975547     -0.81181839382330
  N   1.97255792976087     -0.00836101486044      0.63843781953077
  O   2.82688400692646      0.85485505514023      0.47457982312341
  O   2.04845900535503     -0.99475207194267      1.35997519099848
  C   -1.75420797325664     -0.38681478189420     -0.36951369645171
  H   -2.05320575786112      0.65397894973478     -0.50591347238480
  H   -1.61182004149047     -0.83849482289456     -1.35194818429661
  H   -2.57313174709883     -0.90986349929664      0.12642018541513
