14
Coordinates from ORCA-job run
  C   0.71453707196351      0.05664355564832     -0.27615342970479
  C   -0.49368724784803     -0.42775268884020      0.50008655375331
  F   0.92496952323290     -0.71471703653358     -1.37077254456743
  H   -0.27898196706433     -1.46292335521655      0.78588954007741
  H   -0.56651147976817      0.16849332629948      1.41243152670099
  C   0.61867827486355      1.46396709101951     -0.67936927645405
  N   0.49108126333487      2.57993437940608     -1.02246047346370
  N   1.94631331025693     -0.07920923792661      0.63009507959665
  O   2.72448595093607     -0.98394864726927      0.37851625209720
  O   1.98946068349879      0.71851222465565      1.55736925705244
  C   -1.77143184898113     -0.34306467907507     -0.32680289310339
  H   -2.00905127277299      0.69074456919854     -0.58613208658968
  H   -2.60843933951381     -0.74594931489662      0.24562327756633
  H   -1.68142292213814     -0.92073018646969     -1.24732078296127
