14
Coordinates from ORCA-job run
  C   0.73425734769723      0.21461510650950     -0.41652403394347
  C   -0.75493931718293     -0.05707573760592     -0.50882092005815
  F   1.45077940799254     -0.89566467116486     -0.71761015094632
  H   -1.27933356190776      0.88534887813685     -0.33775791751538
  H   -0.94501233343497     -0.36326313907270     -1.54172011291273
  C   1.17173961994773      1.32900989667010     -1.26342413954142
  N   1.49468719015401      2.20101290226220     -1.98080812816385
  N   1.05417789666844      0.59080468111865      1.03655072600890
  O   0.57745104322979      1.65818726270956      1.39925063266852
  O   1.68981346406661     -0.21276424448978      1.69807750525097
  C   -1.20520992319184     -1.13321874005797      0.47366653514421
  H   -2.24734480394499     -1.39142740625701      0.28063178328480
  H   -1.13608310895539     -0.78681636858634      1.50645802090137
  H   -0.60498292113845     -2.03774842017227      0.37103019982256
