14
Coordinates from ORCA-job run
  C   0.84987735101370      0.11312203390250     -0.46585214120835
  C   -0.43387083285874     -0.68445346274059     -0.57870031321461
  F   1.78558437356655     -0.38908667059980     -1.31350394494140
  H   -0.75585444848005     -0.59171366190216     -1.62008337073459
  H   -0.15308673698426     -1.72877419158169     -0.41165190275638
  C   0.67528472573443      1.54585737277630     -0.72278722560287
  N   0.50216435951601      2.67281582254008     -1.00441218734964
  N   1.39555477132515     -0.05859814571435      0.95515409431061
  O   1.09427983366588      0.80878577532416      1.76650472160758
  O   2.02067948303981     -1.08799861230476      1.15888058523618
  C   -1.52949087539462     -0.23171378622433      0.37905701402848
  H   -1.76667875799403      0.82536343472748      0.24388200647671
  H   -1.24741680285368     -0.38569150422600      1.42120723053133
  H   -2.43702644329620     -0.80691440397689      0.19030543361693
