14
Coordinates from ORCA-job run
  C   0.69260081830971      0.14059254604008     -0.50745378156706
  C   -0.80199572653597      0.30655727277217     -0.31230307369513
  F   0.96648242525192     -0.95883986267875     -1.25135007864166
  H   -0.96958320370425      1.24696456998407      0.21698617488169
  H   -1.23002159158724      0.40521003523607     -1.31431504189576
  C   1.33207355515387      1.31447146047842     -1.11056525139662
  N   1.81839276636950      2.24585556536849     -1.63525697099945
  N   1.32722717181722     -0.06672899512729      0.87421373273554
  O   1.76463091512578     -1.17586537026843      1.13053193443520
  O   1.27478900064420      0.91214487669894      1.60725328520986
  C   -1.41922256376089     -0.87172944020297      0.43384119235990
  H   -2.50611363413186     -0.77802783983872      0.43018437951296
  H   -1.15710714334017     -1.81934591500879     -0.03803332469254
  H   -1.09315278961177     -0.90125890345326      1.47526682375308
