14
Coordinates from ORCA-job run
  C   0.86184577376506      0.11632927740933     -0.44219154499830
  C   -0.41787004816948     -0.68034875455807     -0.59546300370754
  F   1.82249081195151     -0.38176967281438     -1.26412840381900
  H   -0.71447337457032     -0.57842629342119     -1.64344993411564
  H   -0.14101712740677     -1.72591817200432     -0.43004133697363
  C   0.69456608663180      1.55023764865371     -0.69807927903520
  N   0.52854184574641      2.67476647110157     -0.99345209230751
  N   1.36520778300914     -0.06234652789391      0.99335569945644
  O   1.05391533976333      0.80874567478301      1.79694785573364
  O   1.96985955193868     -1.10073973539465      1.21339042201292
  C   -1.53595238753313     -0.23594867133622      0.34018758992993
  H   -1.76483994385437      0.82420705050055      0.21506296114349
  H   -2.44115860918197     -0.80359976460024      0.12012775487000
  H   -1.28111570208988     -0.40718853042517      1.38673331181045
