14
Coordinates from ORCA-job run
  C   0.85682196085854      0.13788796646792     -0.44775372536365
  C   -0.41530027449220     -0.66927419043013     -0.61079385247109
  F   1.81568912190979     -0.32750284952536     -1.29074005864315
  H   -0.72277778900847     -0.54314069756272     -1.65303058946152
  H   -0.12524165088371     -1.71556229104292     -0.47558276234076
  C   0.67071163084721      1.57590711955969     -0.66395443189401
  N   0.48717362252994      2.71024715361030     -0.90669842414676
  N   1.37480921515040     -0.07362473627526      0.97810781917002
  O   1.06435040663021      0.77303548289399      1.80770514987791
  O   1.99073322354131     -1.11198856715886      1.16460007347416
  C   -1.53004013232792     -0.26198174617148      0.34535417571956
  H   -2.42896372107718     -0.83822687537800      0.12190572681110
  H   -1.26242094783257     -0.45190107859116      1.38549460534392
  H   -1.77554466584532      0.79712530960399      0.24538629392427
