14
Coordinates from ORCA-job run
  C   0.85310912879356      0.10598262922739     -0.46222140175012
  C   -0.43739750431014     -0.67893434154869     -0.58390331942224
  F   1.79024030741454     -0.40450267132968     -1.30366529471533
  H   -0.75529160070834     -0.57930513384723     -1.62584444619941
  H   -0.16720056216779     -1.72635112390156     -0.41912291782574
  C   0.69374627002135      1.54038756734042     -0.71962014268771
  N   0.53218017725305      2.66841532864514     -1.00386802749975
  N   1.38692053225528     -0.07272825596286      0.96229432989996
  O   1.98681326980231     -1.11596831805001      1.17205673256759
  O   1.10039812936570      0.80286413485590      1.77020481151042
  C   -1.53069705556431     -0.21904008830185      0.37329737721128
  H   -1.75264804287379      0.84244388541012      0.24700132376654
  H   -2.44558960167642     -0.77962065651857      0.17637336893470
  H   -1.25458344760496     -0.38664295601848      1.41501760620982
