19

C	-0.52235	0.016759	-1.436011
C	0.0	0.0	0.0
Br	0.316832	-1.448973	-2.493097
H	1.096042	0.0	0.0
C	-2.032783	-0.167438	-1.573358
H	-2.325123	-1.134679	-1.16446
H	-2.332756	-0.124278	-2.622087
H	-2.548606	0.625772	-1.024564
C	-0.136154	1.253256	-2.118126
N	0.092575	2.280621	-2.642005
C	-0.450265	-1.23046	0.777028
H	-0.265911	-2.150493	0.216059
H	0.1513	-1.286105	1.690209
H	-1.509069	-1.193914	1.065473
C	-0.396336	1.275454	0.745342
H	-0.03473	2.168714	0.231607
H	-1.476998	1.370383	0.908656
H	0.096781	1.251748	1.72184
H	2.877388	0.0	0.0
