19

C	-0.528929	0.021225	-1.433049
C	0.0	0.0	0.0
Br	0.308003	-1.436816	-2.500816
H	1.096095	0.0	0.0
C	-2.04063	-0.17322	-1.556156
H	-2.352086	-0.132573	-2.601389
H	-2.555389	0.616679	-1.002074
H	-2.323917	-1.141694	-1.143098
C	-0.163092	1.258351	-2.12555
N	0.047914	2.266997	-2.692759
C	-0.448619	-1.233531	0.774629
H	0.194788	-1.32229	1.654693
H	-1.490453	-1.173681	1.111954
H	-0.317569	-2.14782	0.191533
C	-0.39133	1.273521	0.749186
H	-1.472962	1.374216	0.906811
H	-0.019254	2.167125	0.24215
H	0.094895	1.241242	1.729266
H	2.866927	0.0	0.0
