14
Coordinates from ORCA-job run
  C   0.73558476723985     -0.36467825387174     -0.59750934844406
  C   -0.31413312107920      0.50751658476642      0.09303589841830
  Br  -0.01468075850007     -1.81347539965188     -1.62363179971900
  H   0.27813652333580      1.17890175139905      0.73944067093911
  H   1.31756429977009      0.25146243010101     -1.27680297312390
  N   1.72099584183282     -0.92946348471622      0.38728590688560
  O   1.27874284313165     -1.51564545951746      1.37264990329052
  O   2.90809966241671     -0.74054601737553      0.13794217319938
  N   -1.30019994341579     -0.28070320820296      0.80473187668293
  H   -0.85087519601194     -0.94749973056266      1.42090415437076
  H   -1.87936671342351      0.33541981269317      1.36235074384590
  N   -0.90981829458846      1.33706695650256     -0.93457577393609
  H   -1.30668593994204      2.17227377156959     -0.52331155986137
  H   -1.66336397076591      0.80937024686665     -1.36250987254810
