14
Coordinates from ORCA-job run
  C   0.63005560485396     -0.59057467854391     -0.52717330481765
  C   -0.50000529640385      0.03238250977870      0.28701015483550
  Br  0.53962636501914     -2.52050061905233     -0.58307192908517
  H   -0.42126786824879     -0.36518384031547      1.30651644173760
  H   0.63262042358187     -0.22276656002559     -1.55129066342894
  N   1.93903165126445     -0.18771881028925      0.08311150399887
  O   2.09864166612568     -0.43374807927845      1.27201250656150
  O   2.73459828920892      0.37393790056624     -0.66178431227078
  N   -1.76152508755727     -0.24857560353133     -0.38674799800757
  H   -1.94214582109411     -1.24553548221176     -0.41853907081640
  H   -2.51254284693284      0.18273977183942      0.13960531198011
  N   -0.22265664013484      1.44933575282121      0.33573191113917
  H   -0.62980003331032      1.90252859611654     -0.47362771301245
  H   -0.58363040637199      1.87367914212598      1.17824716118621
