14
Coordinates from ORCA-job run
  C   0.87277445473276      0.04417836207811     -0.36008635671435
  C   -0.63988784702114     -0.03257868485607     -0.11412515731511
  Br  1.31571705154385      0.06210174473320     -2.23746541196120
  H   -0.98368873977993     -0.96610339425349     -0.56646153112344
  H   1.32233585451319      0.92801496556023      0.09327340764907
  N   1.53341606729923     -1.13790263953613      0.28910797074524
  O   2.36201853036097     -0.88537982596241      1.15780843099469
  O   1.16910451988498     -2.24720637187152     -0.07719502688736
  N   -1.40834224797451      1.05248080484131     -0.69346326503982
  H   -1.39947707897194      1.01056901860622     -1.70526557890062
  H   -1.03422100382628      1.95211293070297     -0.41138364004073
  N   -0.78617980039391     -0.14844034034148      1.32048051958148
  H   -0.57213924394261      0.73617396331214      1.76919654404975
  H   -1.75143051642466     -0.36902053301309      1.53357909496239
