14
Coordinates from ORCA-job run
  C   0.68459593789145     -0.52490211685316     -0.72639224432705
  C   -0.63429594502266      0.16418114450935     -0.34753881772260
  Br  0.40900230112112     -2.34130840953299     -1.30227051112316
  H   -1.34000716155957     -0.08893643168096     -1.15089095664468
  H   1.17138583137687      0.02262995814128     -1.52987104663933
  N   1.61937428880764     -0.46406761098530      0.46058075053454
  O   1.77944681438039     -1.44516271825845      1.16711759593363
  O   2.11055536233670      0.64943616133755      0.63349982525786
  N   -0.44808326999757      1.59497970358981     -0.39920296836442
  H   0.09699500737269      1.89754269978318      0.39970228134151
  H   -1.34552141126174      2.06295555991322     -0.37842569964351
  N   -1.03320821783338     -0.31294006272475      0.97029540378785
  H   -1.15143965033992     -1.32088105711750      0.97660623545973
  H   -1.91879988727201      0.10647317987871      1.22579015214961
