14
Coordinates from ORCA-job run
  C   0.67277188777677     -0.48457361625604     -0.74744462541472
  C   -0.69074539042661      0.04104233375229     -0.28652462258796
  Br  0.64599521465640     -2.33636714778319     -1.24388859657872
  H   -1.34715367205204     -0.04098850741979     -1.16564075680423
  H   1.03486660424042      0.07760037812802     -1.60662119743764
  N   1.70050360150407     -0.24511697776166      0.32469318823222
  O   2.60797547365470      0.52800758321937      0.03443030973821
  O   1.54175226931523     -0.80569443999407      1.40200338244211
  N   -0.44313532697815      1.42032061216695      0.14115572261438
  H   -0.17151912420593      2.01062180265008     -0.63843208145057
  H   -1.28988834367557      1.80379094825498      0.54269534190189
  N   -1.27042507773396     -0.77096212319168      0.74339487531435
  H   -2.23907675980738     -0.52305755445638      0.89178910647112
  H   -0.75292135626795     -0.67362329130889      1.60738995355957
