14
Coordinates from ORCA-job run
  C   0.55136597143954     -0.63200973732597     -0.64459993066392
  C   -0.71193928254854      0.18637606785507     -0.28521181572541
  Br  0.17966816878155     -2.51572313503497     -0.76931423800484
  H   -1.39846357864474      0.03442040811223     -1.13275522292026
  H   0.97279285558112     -0.32185594071901     -1.59983655714522
  N   1.62752213042270     -0.37333887676656      0.36584823059754
  O   1.43535344352645     -0.75940316307967      1.51349951860219
  O   2.60007957537892      0.25708220636561     -0.03652215773713
  N   -0.25282183851300      1.55006259286951     -0.10294966224151
  H   -1.02896786947425      2.09817779247986      0.24606913985990
  H   0.07876269777892      1.95754558944535     -0.96868976071396
  N   -1.42068867376671     -0.18048371389136      0.90976669496707
  H   -0.77822778689395     -0.21193661774351      1.69268598898441
  H   -1.85343581306799     -1.08891347256656      0.81000977214113
