14
Coordinates from ORCA-job run
  C   0.68315130566457     -0.48632563016776     -0.75419335969989
  C   -0.64225516711925      0.16400431593642     -0.33270733163405
  Br  0.43260305102617     -2.28702017541347     -1.38758077259787
  H   -1.35534410266469     -0.07402997131034     -1.13418241306849
  H   1.14855463169180      0.09677794313132     -1.54520609413234
  N   1.63446253335136     -0.44824178085071      0.42096373569961
  O   2.10569674458440      0.66843929439882      0.62570758914521
  O   1.82548392332811     -1.44987448343043      1.08974525475209
  N   -0.48422421688066      1.59919279256367     -0.33699584367540
  H   0.06877571020314      1.88412724943374      0.46294320919802
  H   -1.39012328099229      2.04799743256419     -0.28460707997475
  N   -1.01241145100737     -0.36615532385533      0.97326869512846
  H   -1.90125179783618      0.02783507667418      1.25633152617705
  H   -1.11211788334912     -1.37572673967430      0.94651288468235
