14
Coordinates from ORCA-job run
  C   0.81443403290702     -0.20337549205933     -0.56801743194596
  C   -0.38868454135999      0.44669715554617      0.11331255419118
  Br  0.34353277027194     -1.68289183850983     -1.71229148599243
  H   0.05486687320112      1.18317561955445      0.80427375427229
  H   1.31407639022426      0.53564443341815     -1.19048566187854
  N   1.85374636467635     -0.68163043730609      0.41124408372990
  O   3.00597899033725     -0.73320551633030     -0.00232175151496
  O   1.48542929001150     -0.97399462632129      1.54819936243779
  N   -1.24612887421307     -0.52537263381204      0.76156261358793
  H   -2.05299400885973     -0.04893609837829      1.14535141026020
  H   -0.75138532173015     -0.98653313953866      1.51482324765453
  N   -1.08350285354571      1.19645850647957     -0.91241282101851
  H   -1.66063231446860      1.91339221785960     -0.49153146718736
  H   -1.68873679745220      0.55957184939790     -1.41970640659605
