14
Coordinates from ORCA-job run
  C   0.71745337969401     -0.46506513871955     -0.73991018698217
  C   -0.67459637645317      0.04622314298897     -0.36937183187644
  Br  0.79087871592261     -2.34802258909203     -1.13416909043387
  H   -1.24334719948002     -0.01816401273764     -1.30310249631444
  H   1.08378807348938      0.07213616255048     -1.61090132014528
  N   1.72496359571504     -0.16998334756188      0.33909359118238
  O   1.33149328167716     -0.18577013560445      1.50560657787934
  O   2.87004888770454      0.06139189959510     -0.02619902706984
  N   -0.48898190158274      1.47090664290199     -0.08673985947905
  H   -1.35156627956775      1.97396116502484     -0.25057393787703
  H   -0.23283737916173      1.59658082894804      0.88557458355282
  N   -1.34735818200724     -0.79198385493657      0.59404441033254
  H   -0.87439283807258     -0.75484650032234      1.48702185309635
  H   -2.30454577787750     -0.48636426303496      0.70962673413467
