14
Coordinates from ORCA-job run
  C   0.71509464092132     -0.52799757940073     -0.71169103641884
  C   -0.64883359801552      0.08746896958391     -0.37158155872170
  Br  0.54638469266480     -2.31722846149843     -1.38839193348590
  H   -1.30343733814291     -0.22025573055374     -1.19060847804630
  H   1.21839032930917      0.07006430069875     -1.47244260765312
  N   1.64415360555000     -0.50157801541636      0.48925952105062
  O   1.48559808833365      0.46065345641649      1.24265539586326
  O   2.50883089243220     -1.35345698458818      0.60262884087835
  N   -0.54402648262939      1.53761258059482     -0.45578638588419
  H   -0.03230199277823      1.89066109208606      0.34270008527450
  H   -1.47118868569319      1.94484307480314     -0.45069709597828
  N   -1.16439110055038     -0.53218181414838      0.83723434168074
  H   -0.78206575442993     -0.07828320695721      1.65702610459416
  H   -2.17220729697157     -0.46032168162014      0.86969480684671
