14
Coordinates from ORCA-job run
  C   0.85040730077331     -0.13301175058419     -0.53035744003154
  C   -0.41905556724446      0.42181984684314      0.11516828961831
  Br  0.51836673266408     -1.54704937077567     -1.79955878076637
  H   -0.04730049205836      1.10176842688474      0.90145139823783
  H   1.35656182154749      0.66788340818747     -1.06238662541167
  N   1.83763688742179     -0.63569369753406      0.48655857576198
  O   3.01288103062314     -0.34100911105399      0.29499399570928
  O   1.40600977783492     -1.29351544835534      1.43114506092837
  N   -1.29301813393266     -0.62545653634473      0.60487189226058
  H   -2.06292619694251     -0.20323800023469      1.11007367299422
  H   -0.79246756245675     -1.23872042253830      1.23681604868530
  N   -1.06251305630468      1.25061805289576     -0.88423545319879
  H   -1.63611583797773      0.64947204510081     -1.46652890563685
  H   -1.66946670394757      1.92713255750907     -0.43901172915067
