14
Coordinates from ORCA-job run
  C   0.63780765718274     -0.47412130354901     -0.73508862764912
  C   -0.77080419014506      0.00654710111648     -0.34266796994624
  Br  0.76658997870418     -2.35554546916169     -1.11031757507833
  H   -1.36053537013013     -0.07705326336157     -1.26292484422949
  H   0.98432709789803      0.05704137146494     -1.61939533077835
  N   1.62195485068114     -0.10126508047366      0.33683579702244
  O   1.43382452640454     -0.54821262312061      1.46551232536447
  O   2.51402595114792      0.67872081352458      0.01300092944821
  N   -0.77067159556555      1.41714021389609      0.03021560048000
  H   -0.24936933091867      1.57080259369354      0.88578946170248
  H   -0.39300430782758      2.01163749624953     -0.69904495311393
  N   -1.37302309482237     -0.84059759924451      0.65028792338933
  H   -0.78236664586326     -0.91115377844442      1.46906983670456
  H   -2.25975552674594     -0.43294047258968      0.91872742668396
