14
Coordinates from ORCA-job run
  C   0.81925140558760     -0.26433538293299     -0.56625538303189
  C   -0.59426130024850      0.13314920941295     -0.14756225601675
  Br  0.87891419608796     -1.02486814068453     -2.33361728593845
  H   -1.26563669830179     -0.70274956335942     -0.37500973101469
  H   1.49275797141766      0.59029921276760     -0.53365688619671
  N   1.39010023819207     -1.27567363708604      0.38383914264392
  O   2.57500977361178     -1.15819834706940      0.67478776198458
  O   0.62727764690772     -2.15167522621772      0.78731903332693
  N   -0.97725782455247      1.26094373961860     -0.95936568035736
  H   -1.98140322369504      1.37377772897785     -0.97820254566997
  H   -0.55647898476751      2.10578251677010     -0.58947150491741
  N   -0.52754289679533      0.47142644410829      1.27501000186542
  H   -0.53249385089843     -0.36918412162067      1.84143754417651
  H   -1.34823645254572      1.01230556731539      1.51874778914586
