14
Coordinates from ORCA-job run
  C   0.90605014476555      0.15671057553155     -0.21861259957590
  C   -0.61598313469916     -0.03808877175235     -0.20669808298121
  Br  1.58298521678899      0.57618954783900     -1.97532277017134
  H   -0.82916874057348     -0.87633002045803     -0.87474422431494
  H   1.22891746438135      0.94909378595721      0.45717881703838
  N   1.56269839650537     -1.10099237432733      0.27370622893256
  O   1.33012069005238     -2.12877104192795     -0.34837157893377
  O   2.25448327661385     -0.99119772002981      1.28095267661060
  N   -1.38225416270426      1.10391694216779     -0.66558525614629
  H   -1.24205255683155      1.26792968607847     -1.65505964517064
  H   -1.11543503384661      1.94482134979961     -0.16506135576160
  N   -0.93517003394375     -0.44912141358702      1.14357748948815
  H   -0.84223208077984      0.33442289722988      1.78168724132483
  H   -1.90195944572885     -0.74958344252102      1.17335305966117
