14
Coordinates from ORCA-job run
  C   0.60968057382181     -0.60702836113599     -0.57704387221260
  C   -0.49047863849657     -0.08529686458852      0.34519592574345
  Br  0.61266121476343     -2.52039505283170     -0.75685449661813
  H   -0.35035912605178     -0.57497755939277      1.31164534748197
  H   0.55338041230383     -0.17590859513368     -1.57706552725952
  N   1.93541129825923     -0.16677152505590     -0.02180025630444
  O   2.62915750825434      0.52544680011003     -0.75925480810351
  O   2.20403651100844     -0.51668059617099      1.11899233693980
  N   -1.77798584177306     -0.48828794438418     -0.18238568565255
  H   -2.50661831047072     -0.31070969364758      0.49697440413689
  H   -1.99871697270358      0.03174850072965     -1.02427880169926
  N   -0.21302955886766      1.33282643734403      0.53150527648076
  H   -0.67586763746287      1.68473237282973      1.35941349672531
  H   -0.53127143258483      1.87130208132787     -0.26604333965818
