14
Coordinates from ORCA-job run
  C   0.74828457704601     -0.32279678287971     -0.65011417226945
  C   -0.33696074394176      0.44011216815778      0.12036922700556
  Br  0.06982311430291     -1.81048898004525     -1.64873590413990
  H   0.20683829762204      1.23266213105233      0.65191745636589
  H   1.27872901421789      0.32980595361624     -1.34383502685339
  N   1.78809501022050     -0.74872540658367      0.36448146818946
  O   2.41928076699656      0.20099880409256      0.82470221188089
  O   1.91139077500288     -1.92087160808347      0.67207508555413
  N   -0.90164713081245     -0.42777036759083      1.11818325599691
  H   -1.36318151177977      0.10231567937495      1.84479684004722
  H   -1.57020945909512     -1.05660009271766      0.68892880015191
  N   -1.32233284907620      0.94213069710200     -0.82958198161224
  H   -2.03113922027019      1.45726040687079     -0.32040272371763
  H   -0.89697064043331      1.58096739763394     -1.49378453659935
