14
Coordinates from ORCA-job run
  C   0.72784486108772     -0.30861485963366     -0.57870681316886
  C   -0.42350754002256      0.46223812159400      0.11715826608994
  Br  0.16435485584846     -1.93330216061443     -1.42821082149414
  H   0.09018681494182      1.21214033890349      0.74353417078579
  H   1.22397252015048      0.30476996346787     -1.32909838669990
  N   1.77902538073327     -0.59091995943821      0.45394937129183
  O   1.52289545783711     -1.41513779879385      1.32552499947507
  O   2.79087903913555      0.10471542229006      0.38927516894477
  N   -1.28726149508100     -0.29326195710134      0.98085550032629
  H   -1.73833427648096     -1.02516477673088      0.44349899117263
  H   -0.76409577679990     -0.72253135287311      1.73316954214626
  N   -1.25014315765328      1.02494629353767     -0.92934999583113
  H   -2.07292446302715      1.42172574628240     -0.49175935727813
  H   -0.76389222066955      1.75939697911000     -1.42884063576043
