14
Coordinates from ORCA-job run
  C   0.58497402435614     -0.46799545496848     -0.74297202558740
  C   -0.79196068710809      0.11562492149709     -0.33307905926667
  Br  0.51211047136302     -2.36596197772342     -1.03306369230933
  H   -1.44637756885674     -0.11400410536932     -1.18401831729962
  H   0.94809784763853     -0.00524158487406     -1.65941585125923
  N   1.60697424007152     -0.13485109371014      0.30229489457721
  O   1.50805181768956     -0.67760981457166      1.39830290317859
  O   2.42887840457272      0.72731316987239     -0.00498765836453
  N   -0.65758397083902      1.55147276858250     -0.16485521994565
  H   0.25431558978219      1.93079604359010     -0.37283505789932
  H   -0.96296043562710      1.82263483667574      0.75697574702581
  N   -1.40691087481367     -0.44967341037255      0.83951234046451
  H   -0.72318822056143     -0.60263311889956      1.57133987494494
  H   -1.85342063766763     -1.33087117972863      0.62680112174069
