14
Coordinates from ORCA-job run
  C   0.80317941917636     -0.24932590071354     -0.63327986807671
  C   -0.27262565558754      0.52275879622660      0.12751276102093
  Br  0.06387620187324     -1.62063770340848     -1.76770697580627
  H   0.27674274333071      1.28114049156698      0.69297324904477
  H   1.38253056344136      0.42250446948580     -1.26260503151198
  N   1.76726261407763     -0.82443317841914      0.38097802293553
  O   2.42013809397802      0.04465446816060      0.95327216699296
  O   1.82022607292801     -2.02570172716245      0.58029595733291
  N   -0.88352045125746     -0.36734539858455      1.09423724146142
  H   -1.45851873438729     -1.06412344519612      0.63533096559756
  H   -1.46095399315802      0.15217077821278      1.74252307494111
  N   -1.09041379575495      1.22848989315799     -0.84470968366108
  H   -1.66372784212612      1.91795837064614     -0.37438437164263
  H   -1.70519523653395      0.58189008602737     -1.32543750862853
