14
Coordinates from ORCA-job run
  C   0.83278103614636     -0.16893581272089     -0.50986697427052
  C   -0.65277101661703      0.10988035153366     -0.23786134592295
  Br  1.18661613549949     -0.74569967680505     -2.30937547155357
  H   -1.21402858671695     -0.75517244151416     -0.59942377128440
  H   1.45649952253153      0.70153144452407     -0.30430827150004
  N   1.29409265043253     -1.22879445833713      0.44573776706998
  O   0.71368928984298     -2.30791866437573      0.40655547310703
  O   2.17637528935210     -0.90637168531641      1.23823423792384
  N   -1.02152285343657      1.26309162523225     -1.02387612439381
  H   -2.02058770576361      1.40302412541546     -0.93190276666037
  H   -0.57080662314268      2.09230343816811     -0.65061574064162
  N   -0.95028965011981      0.25376135447044      1.17860839362130
  H   -0.89640405998780     -0.62931029625256      1.67089331958928
  H   -0.33364342802055      0.92061069597795      1.62920127491584
