14
Coordinates from ORCA-job run
  C   0.60253723799954     -0.42050641507789     -0.73586048801416
  C   -0.79900839320897      0.13329740873193     -0.30751127017452
  Br  0.48874130026078     -2.21537389471704     -1.42084820837433
  H   -1.43634378321358     -0.04206321404071     -1.18107730354290
  H   1.05146821823613      0.20361873676142     -1.50631231153796
  N   1.51832745955850     -0.34997558352261      0.44783117808315
  O   1.59646919744923     -1.30269600855826      1.21187481863755
  O   2.04744356913309      0.75295704017653      0.61021761097718
  N   -0.77326397656342      1.55371277188327     -0.05176973568195
  H   0.03959014485989      1.82231022696921      0.49022351754491
  H   -0.76447721810183      2.07851682422919     -0.91536175041318
  N   -1.36670145414660     -0.54654110803401      0.83078571748909
  H   -1.04557546968862     -0.13272529982903      1.69558301114464
  H   -1.15920683257416     -1.53653148497199      0.83122521386249
