14
Coordinates from ORCA-job run
  C   0.84970829663181      0.11607248087172     -0.28920096081067
  C   -0.69643437573247      0.05074349529777     -0.27769589468114
  Br  1.58596428757639      0.28189607515705     -2.06648632975698
  H   -0.97989877482107     -0.77723483569106     -0.93357002035428
  H   1.22035753612720      0.95038476809893      0.30593066835366
  N   1.38450292649712     -1.12708915937387      0.35216124120161
  O   1.10396689032230     -2.19611699418833     -0.17906119438075
  O   1.99129613804284     -0.97663814960516      1.41123037280740
  N   -1.31380541313082      1.26683803076175     -0.75812370038184
  H   -0.87026103383883      1.60440674171749     -1.60257244128137
  H   -1.27792050330058      1.98655524966158     -0.04718639734662
  N   -1.18178186225332     -0.23773468937489      1.05263282626253
  H   -1.13243942216046     -1.22389070653335      1.26453485203770
  H   -0.68325468996012      0.27880769320035      1.76740697833074
