14
Coordinates from ORCA-job run
  C   0.71712503512976     -0.31315340708093     -0.58923650654102
  C   -0.41815879994362      0.46513171205804      0.12410901723556
  Br  0.12928910556088     -1.93243745191585     -1.43258562611146
  H   0.11021688507456      1.21128157834852      0.74274361448086
  H   1.20674415997167      0.29788072439748     -1.34583999514423
  N   1.78128790976615     -0.60474789028730      0.42735926446434
  O   1.53157255035100     -1.42760646205986      1.30221309539174
  O   2.79791835547249      0.08245412200284      0.34808332254465
  N   -1.27443302249436     -0.28473366773778      1.00016877976991
  H   -1.74100264991919     -1.01048354882046      0.46764650832444
  H   -0.74276600078378     -0.72190591275706      1.74194083301027
  N   -1.25675959065008      1.03438969220579     -0.90948999675786
  H   -0.77184102497040      1.76446762510812     -1.41674751364024
  H   -2.06819291256508      1.43946288653845     -0.45836479702696
