14
Coordinates from ORCA-job run
  C   0.62541043230050     -0.43252183342588     -0.74119515369650
  C   -0.73203114484645      0.13175180163808     -0.24845211196781
  Br  0.45083157249596     -2.23114096595552     -1.41159272307394
  H   -1.44231295484181     -0.09142384116683     -1.05947447131380
  H   1.03404009505145      0.17947703683078     -1.54336165448146
  N   1.62074926988168     -0.35950464418844      0.38670110862647
  O   2.04957457663083      0.77903447777803      0.57793118374336
  O   1.88006286264791     -1.35128957455020      1.04662774609456
  N   -0.75775017124309      1.55675602203967     -0.03830456822309
  H   -0.02627011057536      1.82533845763320      0.60927026321718
  H   -0.63050233860537      2.06086145646243     -0.90644592256226
  N   -1.03555369986070     -0.48535210860953      1.02233318072846
  H   -1.90123278612582     -0.09172557089535      1.36793653799999
  H   -1.13501560290974     -1.48926071359044      0.93702658490885
