14
Coordinates from ORCA-job run
  C   0.63554869076073     -0.44782622418302     -0.75407437462196
  C   -0.77513200748111      0.00079264006767     -0.33276339115139
  Br  0.79028937675616     -2.31828417839909     -1.17171067302364
  H   -1.37668664398433     -0.07381184844265     -1.24607732091056
  H   0.96111469825944      0.10828805679742     -1.63100675573078
  N   1.62745115714907     -0.08173444566404      0.31296719348726
  O   1.46271999187290     -0.55816521635405      1.43320985521717
  O   2.50060604648473      0.72204455096951     -0.00410344097071
  N   -0.79243237539911      1.40293148147114      0.07022228693225
  H   -0.26484194270973      1.54615278778254      0.92370559436611
  H   -0.43222991406820      2.01932690768914     -0.64956851733345
  N   -1.34974238605791     -0.87688336127291      0.65013221749539
  H   -0.74719646457696     -0.95409211400971      1.45966647535737
  H   -2.23946822700568     -0.48973903645195      0.93840085088695
