14
Coordinates from ORCA-job run
  C   0.57246496931217     -0.42433646964204     -0.79420016705781
  C   -0.75593897873044      0.13477333001275     -0.25185520318649
  Br  0.53074268558321     -2.33551309388910     -1.07114948419327
  H   -1.44454665545689      0.04971619181478     -1.09913484268273
  H   0.82246117904788      0.04122353249744     -1.74450606837342
  N   1.72627670846569     -0.11048074862932      0.11374828298444
  O   2.79087934476875      0.17323375584774     -0.42115398824252
  O   1.51964633683234     -0.15867104387259      1.32648663710363
  N   -0.49935010949777      1.54844260883662     -0.03641706751186
  H   -1.39017915554580      2.02834297042476      0.00969865174860
  H   -0.05852054171680      1.66975887427846      0.86931464387346
  N   -1.37859696308529     -0.52755713551412      0.87201553248285
  H   -1.73052134748422     -1.43931078544144      0.60872673664303
  H   -0.70581747249283     -0.64962198672393      1.61842633641208
