15

C	-0.286511	0.083985	-1.491119
C	0.0	0.0	0.0
F	-1.629334	0.434563	-1.742161
H	1.0977	0.0	0.0
H	-0.180663	-0.907638	-1.95113
N	0.570647	1.087121	-2.048064
H	1.492335	0.981641	-1.610119
H	0.675157	0.944567	-3.044207
C	-0.528022	-1.222027	0.579192
N	-0.96163	-2.20276	1.061838
C	-0.471226	1.238477	0.758405
H	-0.059351	2.124009	0.273549
H	-0.100836	1.202149	1.785756
H	-1.561111	1.314802	0.769375
H	2.787568	0.0	0.0
