15

C	-0.420143	-0.059795	-1.45553
C	0.0	0.0	0.0
F	-0.214812	-1.336032	-1.957028
H	1.096031	0.0	0.0
H	0.260777	0.59415	-2.021058
N	-1.824581	0.230968	-1.651005
H	-2.030107	1.142998	-1.266578
H	-2.013576	0.261795	-2.64599
C	-0.533442	-1.11766	0.757344
N	-0.942173	-2.012104	1.399198
C	-0.363944	1.337079	0.650656
H	0.154687	1.412418	1.60829
H	-1.436345	1.457366	0.821743
H	0.004165	2.155376	0.025681
H	2.783112	0.0	0.0
