15

C	-0.442024	-0.055007	-1.44975
C	0.0	0.0	0.0
F	-1.815864	-0.453932	-1.51833
H	1.095045	0.0	0.0
H	0.110305	-0.839467	-1.971858
N	-0.254132	1.178124	-2.121915
H	-0.835074	1.895051	-1.707155
H	-0.502501	1.08047	-3.097496
C	-0.453259	-1.200253	0.691275
N	-0.803394	-2.15673	1.277713
C	-0.454415	1.256337	0.741123
H	-0.173848	1.176636	1.792939
H	0.077219	2.118792	0.332824
H	-1.5364	1.413927	0.679955
H	2.804981	0.0	0.0
