13

C	0.0	0.0	0.0
C	-0.516016	0.01774	-1.415418
Br	1.92542	0.0	0.0
H	-0.115102	-0.797953	-2.009637
H	-0.366178	0.82773	0.598434
H	-1.617194	-0.008383	-1.346513
N	-0.408327	-1.273108	0.69253
O	-0.51769	-1.212467	1.909487
O	-0.518194	-2.277151	-0.001887
N	-0.128194	1.282202	-2.086023
O	-0.126673	2.313863	-1.416739
O	0.128173	1.219112	-3.288553
Cl	-3.350016	0.0	0.0
