16

C	-0.468118	0.064754	-1.445012
C	0.0	0.0	0.0
F	-1.820453	0.348064	-1.480405
H	1.090898	0.0	0.0
H	-0.330784	0.94363	0.449566
C	0.290044	1.049717	-2.294345
H	0.125061	2.049285	-1.887207
H	1.355867	0.822922	-2.251774
H	-0.071022	1.023856	-3.325501
N	-0.332274	-1.323201	-2.043331
O	-1.350537	-1.992462	-2.205431
O	0.813636	-1.691712	-2.27308
N	-0.510609	-1.120499	0.769945
H	-1.45975	-1.345469	0.496736
H	0.076763	-1.930427	0.618289
Br	3.677649	0.0	0.0
