16

C	-0.415001	0.02572	-1.448852
C	0.0	0.0	0.0
F	-0.159638	1.263997	-1.97443
H	1.093597	0.0	0.0
H	-0.348378	-0.940939	0.429752
C	0.260512	-1.023161	-2.29293
H	-0.008719	-2.019153	-1.942296
H	-0.038309	-0.905532	-3.337392
H	1.33941	-0.885196	-2.1934
N	-1.927028	-0.157108	-1.537437
O	-2.355061	-1.219692	-1.092731
O	-2.603615	0.725998	-2.047729
N	-0.630669	1.11701	0.705969
H	-0.434969	1.00376	1.695832
H	-0.151351	1.96471	0.418755
Br	3.65105	0.0	0.0
