16

C	-0.591795	-0.020519	-1.390858
C	0.0	0.0	0.0
F	0.050638	-0.960388	-2.162505
H	1.09154	0.0	0.0
H	-0.315729	-0.942777	0.460102
C	-2.073479	-0.288429	-1.430303
H	-2.428143	-0.286932	-2.458762
H	-2.250077	-1.270129	-0.986528
H	-2.594997	0.46935	-0.847679
N	-0.314651	1.308183	-2.09992
O	-0.986501	1.553599	-3.103349
O	0.583478	2.01983	-1.66109
N	-0.587142	1.121141	0.750357
H	0.048804	1.90307	0.645535
H	-0.58156	0.881865	1.73241
Br	3.687594	0.0	0.0
