16

C	-0.337775	-0.047813	-1.491276
C	0.0	0.0	0.0
F	0.011102	1.152759	-2.043271
H	1.09386	0.0	0.0
H	-0.382048	0.948638	0.390338
C	0.336148	-1.162526	-2.243942
H	1.412547	-1.036303	-2.101816
H	0.030013	-2.130774	-1.854056
H	0.088039	-1.104757	-3.306279
N	-1.849471	-0.14151	-1.657666
O	-2.348537	-1.259114	-1.499182
O	-2.481377	0.886309	-1.874088
N	-0.437713	-1.127542	0.805584
H	-1.317524	-1.511561	0.488074
H	0.26607	-1.852111	0.774025
Br	3.602425	0.0	0.0
