16

C	-0.522546	0.034193	-1.400801
C	0.0	0.0	0.0
F	-1.87576	-0.203509	-1.476276
H	1.097781	0.0	0.0
H	-0.003621	-0.734405	-1.977387
N	-0.251426	1.311601	-2.171704
O	-1.208032	1.945864	-2.597948
O	0.931901	1.557344	-2.35974
C	-0.346447	-1.326166	0.656585
H	-1.41712	-1.455687	0.835699
H	0.192595	-1.397227	1.599007
H	0.015104	-2.130317	0.010613
N	-0.487017	1.127191	0.805563
O	-0.650366	0.950729	2.015952
O	-0.651688	2.215454	0.24582
F	2.496374	0.0	0.0
