16

C	-0.478298	-0.061335	-1.418169
C	0.0	0.0	0.0
F	-1.82134	-0.342311	-1.52283
H	1.09372	0.0	0.0
H	0.082875	-0.844881	-1.93092
N	-0.222509	1.179892	-2.250301
O	-1.189599	1.812835	-2.655397
O	0.953337	1.407308	-2.491951
C	-0.377823	-1.275073	0.730844
H	0.116735	-1.281443	1.700515
H	-1.45503	-1.392124	0.871985
H	0.010523	-2.12178	0.158562
N	-0.49438	1.188846	0.710577
O	-0.834946	1.07001	1.891661
O	-0.486386	2.265877	0.107044
F	2.500922	0.0	0.0
