13

C	-0.410674	-0.041886	-1.469829
C	0.0	0.0	0.0
Br	-2.34815	-0.326285	-1.673634
H	1.096569	0.0	0.0
H	0.06164	-0.920654	-1.909924
C	-0.05484	1.160785	-2.21076
N	0.202752	2.13302	-2.818603
N	-0.386248	-1.243956	0.649767
H	-1.291132	-1.164716	1.09589
H	0.314035	-1.463385	1.347487
C	-0.508367	1.204857	0.665554
N	-0.926244	2.13353	1.252569
Cl	3.224164	0.0	0.0
