13

C	-0.479231	-0.013647	-1.460566
C	0.0	0.0	0.0
Br	0.232031	-1.547182	-2.420875
H	1.094014	0.0	0.0
H	-0.092727	0.866975	-1.978634
C	-1.936042	-0.042443	-1.541688
N	-3.110958	-0.062401	-1.575015
N	-0.466753	-1.166643	0.721463
H	0.235899	-1.438498	1.397696
H	-1.345376	-0.994232	1.195895
C	-0.45095	1.269331	0.597272
N	-0.846617	2.248339	1.114537
Cl	3.26747	0.0	0.0
