13

C	-0.317385	-0.075923	-1.50502
C	0.0	0.0	0.0
Br	-2.223328	-0.462196	-1.853491
H	1.10502	0.0	0.0
H	0.229778	-0.92559	-1.918706
C	0.026995	1.136208	-2.233534
N	0.274765	2.115105	-2.8345
N	-0.38722	-1.164281	0.768396
H	-1.28593	-1.529115	0.478616
H	0.330567	-1.871731	0.675474
C	-0.56129	1.218976	0.582636
N	-1.043314	2.186593	1.041763
Cl	3.215565	0.0	0.0
