13

C	-0.467299	0.39982	-1.40647
C	0.0	0.0	0.0
Br	0.138203	-0.907476	-2.724466
H	1.105936	0.0	0.0
H	0.012758	1.339609	-1.689116
C	-1.918304	0.523516	-1.502666
N	-3.081381	0.671282	-1.578644
N	-0.576951	-1.295514	0.379492
H	0.033963	-2.005362	-0.01285
H	-0.499688	-1.38896	1.386777
C	-0.463328	1.038707	0.922828
N	-0.839823	1.873225	1.659195
Cl	3.294688	0.0	0.0
