18

C	0.0	0.0	0.0
C	-0.537544	-0.09561	-1.445994
Cl	1.79044	0.0	0.0
H	-1.618893	-0.278967	-1.363039
C	-0.474061	1.298012	0.638862
H	-0.010968	2.1632	0.171329
H	-1.562577	1.350325	0.566651
H	-0.186144	1.254205	1.689992
N	-0.462745	-1.093316	0.811087
H	-1.477508	-0.987061	0.890798
H	-0.282264	-1.976547	0.348577
N	0.091519	-1.220963	-2.208703
O	-0.180481	-2.353301	-1.815449
O	0.844828	-0.95016	-3.139306
N	-0.381971	1.109832	-2.322392
O	-1.19698	1.183675	-3.239454
O	0.530432	1.901409	-2.108426
Cl	-3.611888	0.0	0.0
