18

C	0.0	0.0	0.0
C	-0.578595	0.103098	-1.413104
Cl	1.8299	0.0	0.0
H	-1.665672	-0.085907	-1.303766
C	-0.450551	1.216304	0.798186
H	0.013541	2.125558	0.419385
H	-1.54272	1.268351	0.751106
H	-0.13761	1.082826	1.836673
N	-0.512285	-1.168667	0.597294
H	-0.406203	-1.161403	1.599645
H	-0.178183	-2.018792	0.17302
N	0.005837	-0.883556	-2.384973
O	0.156146	-2.030984	-1.975873
O	0.257233	-0.495986	-3.520557
N	-0.423561	1.446845	-2.055214
O	-1.408708	1.872206	-2.651782
O	0.664633	2.008977	-1.970673
Cl	-3.713001	0.0	0.0
