18

C	0.0	0.0	0.0
C	-0.15665	-0.02405	-1.566509
Cl	1.810354	0.0	0.0
H	0.395733	0.814289	-1.98077
C	-0.481226	1.341122	0.5182
H	-0.195514	1.413855	1.569057
H	-1.571427	1.368841	0.435375
H	-0.038709	2.167932	-0.038215
N	-0.560509	-1.047547	0.759228
H	-0.415572	-1.941625	0.309924
H	-1.570399	-0.868111	0.81839
N	-1.525652	0.102558	-2.189862
O	-1.9046	1.258254	-2.32968
O	-2.075646	-0.917171	-2.578535
N	0.449559	-1.234707	-2.215725
O	0.99717	-1.032015	-3.297893
O	0.34209	-2.32612	-1.66732
Cl	-3.706008	0.0	0.0
