18

C	0.0	0.0	0.0
C	-0.555537	0.073483	-1.430355
Cl	1.825062	0.0	0.0
H	-1.63487	0.273504	-1.326869
C	-0.46744	1.207031	0.795168
H	-1.562097	1.203611	0.793482
H	-0.092925	2.13534	0.372029
H	-0.090953	1.104347	1.815302
N	-0.524225	-1.184436	0.561803
H	-0.863769	-1.083899	1.503658
H	0.018331	-2.014353	0.392945
N	-0.44039	-1.189107	-2.225017
O	0.357572	-2.056632	-1.883435
O	-1.166537	-1.231329	-3.213337
N	0.085164	1.134808	-2.266249
O	0.9141	0.792693	-3.104701
O	-0.252502	2.289068	-2.020894
Cl	-3.696292	0.0	0.0
