18

C	0.0	0.0	0.0
C	-0.128268	-0.033649	-1.564156
Cl	1.861459	0.0	0.0
H	0.427303	0.802331	-1.97698
C	-0.47203	1.343268	0.50938
H	-1.563062	1.369587	0.426867
H	-0.183893	1.427252	1.558647
H	-0.031501	2.16378	-0.057277
N	-0.548129	-1.047247	0.758323
H	-1.552115	-0.857632	0.85884
H	-0.423985	-1.938367	0.29748
N	-1.494932	0.085294	-2.196524
O	-1.871363	1.237774	-2.365538
O	-2.050305	-0.943137	-2.553833
N	0.479282	-1.248394	-2.204697
O	1.010428	-1.053582	-3.29676
O	0.383546	-2.334457	-1.644115
Cl	-3.68893	0.0	0.0
