18

C	0.0	0.0	0.0
C	-0.560242	-0.04865	-1.42436
Cl	1.794981	0.0	0.0
H	-1.651354	0.070502	-1.344173
C	-0.417674	1.293813	0.697939
H	0.031518	2.176702	0.245541
H	-1.506217	1.367227	0.672158
H	-0.083188	1.225596	1.736566
N	-0.505862	-1.194514	0.634424
H	-0.191618	-1.199183	1.598928
H	-1.528016	-1.096632	0.639859
N	-0.322706	-1.328557	-2.169076
O	0.675188	-1.996206	-1.938671
O	-1.175285	-1.571818	-3.023307
N	-0.032453	1.040018	-2.304475
O	0.830537	0.751338	-3.129853
O	-0.509298	2.156376	-2.123039
Cl	-3.597443	0.0	0.0
