13

C	0.0	0.0	0.0
C	-0.58081	0.089559	-1.40061
Cl	1.784283	0.0	0.0
H	-1.710789	0.059999	-1.052318
H	-0.348763	-0.916771	0.471433
C	-0.432191	1.143255	0.810607
N	-0.608499	2.065933	1.514688
C	-0.235728	-1.092561	-2.182575
N	0.038655	-2.009544	-2.868779
N	-0.216404	1.346085	-2.035121
H	-0.925771	1.604264	-2.70765
H	0.67495	1.276579	-2.513133
F	-2.670478	0.0	0.0
