13

C	0.0	0.0	0.0
C	-0.574794	-0.061118	-1.404165
Cl	1.788058	0.0	0.0
H	-1.703904	-0.053678	-1.058919
H	-0.34295	-0.866569	0.561921
C	-0.43428	1.216327	0.692035
N	-0.604292	2.202889	1.30493
C	-0.228413	-1.324691	-2.047452
N	0.023404	-2.325148	-2.616439
N	-0.208342	1.119048	-2.169608
H	0.691868	1.005736	-2.622059
H	-0.909299	1.296447	-2.875962
F	-2.662466	0.0	0.0
