13

C	0.0	0.0	0.0
C	-0.556744	-0.104629	-1.436802
Cl	1.780754	0.0	0.0
H	-1.640078	-0.29771	-1.156569
H	-0.345766	-0.858162	0.572374
C	-0.463738	1.227423	0.644259
N	-0.637423	2.266876	1.163365
C	0.05305	-1.224868	-2.143793
N	0.508694	-2.144477	-2.717901
N	-0.491034	1.113804	-2.221103
H	-1.211442	1.728072	-1.858855
H	0.408698	1.570325	-2.110571
F	-2.611934	0.0	0.0
