12
Coordinates from ORCA-job run
  C   0.48952703167623      0.50389427904471     -0.25475002549164
  C   -0.44220949476646     -0.54838394028612      0.31219435002691
  Br  -0.56274015656080      2.05083338245963     -0.86056292873853
  H   0.19164749957462     -1.35365586249589      0.70414213257231
  H   0.94093436886369      0.12715704653749     -1.17829906623734
  H   -0.97688021724579     -0.10182748846962      1.16120654423782
  N   1.40412157334333      0.96490691930390      0.76161636829340
  H   1.94691561844494      0.17732260117504      1.09956343275860
  H   2.04367317328152      1.65118907446621      0.38086244065241
  N   -1.28176405281808     -1.11425820291074     -0.73516149245539
  H   -1.97803412831064     -0.43297391223595     -1.01204781528965
  H   -1.77419121548256     -1.92320389658865     -0.37876394032890
