12
Coordinates from ORCA-job run
  C   0.50124006529105      0.53688107190932     -0.36924357828070
  C   -0.35864073711832     -0.53387614474420      0.28619735502362
  Br  -0.67151605711594      2.05390694942196     -0.84437505858932
  H   -0.79108332189199     -0.11092679062337      1.20747062396468
  H   0.87445266997566      0.16505542622890     -1.32402324494583
  H   0.32850889446890     -1.33526825902751      0.58172586634844
  N   1.59380399857404      1.03434438616387      0.41539378936479
  H   2.35775872602750      0.37016962405456      0.41420615886162
  H   1.30590119128005      1.21826636528030      1.36848121011602
  N   -1.32443561112649     -1.08747470641738     -0.65093992724924
  H   -1.76589986364093     -1.90558165837293     -0.25121195581075
  H   -2.04908995472354     -0.40449626387349     -0.83368123880332
