13
Coordinates from ORCA-job run
  C   -0.41309511089325     -0.15510572157032      0.13025066966212
  C   0.86269631632557      0.63488653706073      0.36507382861085
  F   -1.10678755900265     -0.28928045610389      1.29978596016751
  H   1.31439794617995      0.90569903478172     -0.59380295129057
  H   0.60159424000932      1.56319587533994      0.87345377953001
  N   -0.20335643461376     -1.40788455170959     -0.43417902007536
  H   -1.06947658974991     -1.84501274273488     -0.71978009152733
  H   0.46598984082270     -1.40165087380538     -1.18957830421362
  N   -1.38049662502275      0.74290189912799     -0.71337860221740
  O   -1.32680478442328      1.95483840239310     -0.53381092247177
  O   -2.15767788273179      0.14990198069839     -1.45336944023512
  C   1.81357020169379     -0.12931025081925      1.16643839655930
  N   2.59944644140605     -0.72217913265856      1.80389669750138
