13
Coordinates from ORCA-job run
  C   -0.54077864503921     -0.28986675084902      0.19989942146758
  C   0.61584436113590      0.18852189354891      1.05904025742939
  F   -1.62909640786926     -0.49168543253851      1.00319969786663
  H   0.83516219074923     -0.60650731675107      1.77531266973569
  H   0.30760833040667      1.08302938329227      1.59924984940631
  N   -0.26364210696582     -1.44944400550000     -0.51934156610408
  H   0.62682576336612     -1.40490589357011     -0.99652657843754
  H   -1.00202453002757     -1.65649557381984     -1.18014004912880
  N   -1.02224178955299      0.89171952706687     -0.70454968011312
  O   -1.52656909508318      0.57798574002982     -1.77732882654113
  O   -0.91344204784529      2.02579703538497     -0.25242221501457
  C   1.79125077308097      0.47000668549117      0.24288658998385
  N   2.72010320364443      0.66084470821455     -0.44827957055021
