13
Coordinates from ORCA-job run
  C   -0.41282146927189     -0.02364401738800      0.05247945043760
  C   0.95499553333368      0.59874809667630      0.27679693142805
  F   -1.09196154721832     -0.02019103133168      1.26358737186248
  H   1.43258249220736      0.78427996833308     -0.68613273104394
  H   0.83370111910591      1.55244833261066      0.79114461358308
  N   -0.36351031342939     -1.26613216467747     -0.57798694552299
  H   -1.29338984889698     -1.63109476310369     -0.74050917545391
  H   0.20341476749291     -1.92878667340651     -0.06509050610062
  N   -1.26710455241269      0.88707201034496     -0.82840634390454
  O   -2.33797421952804      0.41249282394521     -1.18688793526358
  O   -0.84547724779636      2.01152313411733     -1.07534854189370
  C   1.77483727270193     -0.30772753136293      1.07576393003464
  N   2.41370801371189     -1.06898818475726      1.69958988183744
