14

C	0.0	0.0	0.0
C	-0.550391	0.225988	-1.413
Cl	1.793841	0.0	0.0
H	-0.225525	-0.577558	-2.079172
H	-1.65025	0.193912	-1.311729
C	-0.493071	1.059606	0.973876
H	-0.135646	2.040088	0.651474
H	-1.585834	1.030877	0.971828
H	-0.112366	0.853057	1.975614
C	-0.386353	-1.345051	0.444223
N	-0.60654	-2.436014	0.819863
C	-0.128689	1.508697	-1.964379
N	0.205468	2.53535	-2.425566
Cl	-3.658556	0.0	0.0
