14

C	0.0	0.0	0.0
C	-0.550846	0.233324	-1.41059
Cl	1.799374	0.0	0.0
H	-1.650061	0.18323	-1.304451
H	-0.213958	-0.557006	-2.085788
C	-0.491862	1.047821	0.98616
H	-0.094356	0.839621	1.980853
H	-1.584471	1.007967	0.998327
H	-0.149592	2.034058	0.665396
C	-0.377644	-1.352091	0.432898
N	-0.572015	-2.455056	0.786967
C	-0.15583	1.531871	-1.943978
N	0.150689	2.579581	-2.377306
Cl	-3.656749	0.0	0.0
