13
Coordinates from ORCA-job run
  C   -0.64308823886793      0.37541695518672     -0.34152052755749
  C   0.79716562172595     -0.03629722551457     -0.63996183245970
  Cl  -1.51904016399571      0.75192974303579     -1.83632947219589
  H   1.29202912767495      0.82509717995910     -1.09666975663296
  H   0.75968776564142     -0.83885265167628     -1.37838196412613
  N   -1.35770080402501     -0.81594191072566      0.31147372423088
  O   -2.17160427641710     -0.56528428799039      1.18758155443651
  O   -1.06849238378540     -1.91616683940737     -0.13694021869863
  C   -0.69322052487311      1.50659612776169      0.57368735108827
  N   -0.65092557439478      2.44854879870836      1.27441259167772
  N   1.40234578215443     -0.43755735469384      0.61110236586648
  H   2.20856932308579      0.11807384603028      0.85079223709792
  H   1.64427434607650     -1.41656238067383      0.62175394727302
