13
Coordinates from ORCA-job run
  C   -0.64919003916765      0.37505759076263     -0.32275159854668
  C   0.78472905478398     -0.02839163984453     -0.65771629963909
  Cl  -1.56412741260559      0.75108035964683     -1.79473870593060
  H   0.73556957457463     -0.82444634756034     -1.40290415654476
  H   1.26550519747200      0.83940011184769     -1.11660946268355
  N   -1.34423963061704     -0.82030681691162      0.34356156550603
  O   -2.16338186002588     -0.57178579965280      1.21536568457620
  O   -1.03954218736743     -1.92150050985057     -0.09282742210442
  C   -0.68473576638488      1.50383476411101      0.59627226145558
  N   -0.64587611733907      2.45450850045981      1.28532584656843
  N   1.42174648687020     -0.43025750280242      0.57776658594265
  H   1.62106731237080     -1.41887808979630      0.59769858167308
  H   2.26147538743595      0.09268537959067      0.77155711972713
