13
Coordinates from ORCA-job run
  C   -0.63923401429902      0.27126109816874     -0.30158867505675
  C   0.88985792798369      0.26709001088441     -0.18011403707907
  Cl  -1.14913156560665     -0.40722499555437     -1.84309036057508
  H   1.28001926621118      0.86437047890108     -1.01350911135289
  H   1.13051893513800      0.77825309129526      0.75343160779377
  N   -1.16516593875021     -0.59149093918772      0.86874614980446
  O   -0.88706913493182     -0.12212175433730      1.96427106458601
  O   -1.75697493351692     -1.62394230066162      0.62733698459958
  C   -1.18623427954920      1.61158913954990     -0.13709596284782
  N   -1.58467976210553      2.71100521506218     -0.02035849919996
  N   1.34983858939572     -1.10183508595240     -0.11842802467532
  H   1.53216894531999     -1.47893935530472     -1.03754945125879
  H   2.18708596471078     -1.17901460286341      0.43994831526185
