13
Coordinates from ORCA-job run
  C   -0.61936390877547      0.28623383712463     -0.45358573884268
  C   0.86257066541956     -0.07307775759877     -0.54066427277471
  Cl  -1.32624546973947      0.46000968263391     -2.06938783103742
  H   0.93734545643888     -0.97469459875522     -1.14925848527614
  H   1.36752362204684      0.74089628386496     -1.07035790797138
  N   -1.34931849907904     -0.87066041013432      0.24326365721438
  O   -2.20296822071165     -0.57660447999499      1.06663387816819
  O   -1.01793392058314     -1.99168717072865     -0.11206735264121
  C   -0.82156386471057      1.50251221543839      0.32094675410199
  N   -0.90100983317173      2.51940856663865      0.90399307624405
  N   1.33485137195064     -0.29045548453120      0.80954471638587
  H   1.94087387684600      0.44790108082778      1.13383584070998
  H   1.79623872406914     -1.18078176478517      0.91510366571904
