13
Coordinates from ORCA-job run
  C   -0.59650658359612      0.35998161847957     -0.35312743471564
  C   0.83871324133303     -0.04938183907887     -0.72395698312137
  Cl  -1.52515171288670      0.77347853934147     -1.80377248056282
  H   1.29203913089183      0.81338095743670     -1.21881776079865
  H   0.76488087116483     -0.85643942683764     -1.45357365754959
  N   -1.30391691529431     -0.83343546928680      0.30729204635412
  O   -1.07282797059456     -1.92619561255056     -0.19220071490125
  O   -2.04456100161070     -0.59498173346614      1.25141342684372
  C   -0.60081969033984      1.47168313276188      0.58748947216724
  N   -0.51281685089746      2.37942732192089      1.32878985863890
  N   1.65543825163909     -0.46582774963084      0.38200584339135
  H   1.77391660061947      0.25174792418341      1.08363998428145
  H   1.33261262957143     -1.32443766327304      0.80381839997255
