13
Coordinates from ORCA-job run
  C   -0.60015587358457      0.14817605199886     -0.28216286319653
  C   0.75486215883154     -0.50128232237778      0.02779379226671
  Cl  -0.82683713610460      0.35474346910556     -2.02173912649342
  H   0.81502399947576     -1.40969935254587     -0.57109871221181
  H   0.73289186068610     -0.79629974598236      1.08611299899982
  N   -1.71531169464825     -0.78207167062308      0.21045329717254
  O   -2.65608880837503     -0.27605364292752      0.80723103085128
  O   -1.55863755184961     -1.96679371070910     -0.05384773312817
  C   -0.72215506049674      1.43165333254650      0.39587228510725
  N   -0.74260068877036      2.45659927492865      0.96999445851539
  N   1.80726614218738      0.42437778092780     -0.32247031384114
  H   2.10891927221715      0.96886102615501      0.47291592632769
  H   2.60382338043116     -0.05021049049661     -0.71905504036962
