13
Coordinates from ORCA-job run
  C   -0.58431056661708      0.16601083583650     -0.19193430051418
  C   0.77816608275840     -0.56773145868226     -0.05881791025664
  Cl  -0.87628524490302      0.64115070935620     -1.86245172763807
  H   0.73155241782086     -1.42440415356815     -0.73692626683218
  H   0.82915109502241     -0.93832285376885      0.96933927599300
  N   -1.65028301902476     -0.83744259780141      0.26864585332092
  O   -2.10636596912016     -1.59827478356167     -0.56871033432102
  O   -1.85802526328633     -0.84373307413400      1.47635046642313
  C   -0.63190123457325      1.33503810739275      0.67315797178048
  N   -0.56884908963081      2.29096022362659      1.35410710802638
  N   1.94198359329949      0.21857917419972     -0.34200136751644
  H   1.94015412644490      0.57450798365826     -1.28766584801543
  H   2.05301307180935      0.98466188744634      0.30890707955006
