13
Coordinates from ORCA-job run
  C   -0.56998028195427      0.46210350190600     -0.18538176739630
  C   0.92883583334975      0.17265099965950     -0.03869744139700
  Cl  -1.03737306597649      0.51688883693931     -1.88124485351099
  H   1.15679239298991      0.24053536348438      1.02633600652059
  H   1.46425337866336      0.97562078316750     -0.56047476175339
  N   -1.30282307242427     -0.69024027312744      0.54003151286515
  O   -1.05919942268748     -0.72533063576432      1.73870444702237
  O   -2.00142743244962     -1.44743158141472     -0.10270029819534
  C   -0.94290422993583      1.70454507692009      0.47822321815256
  N   -1.19190481745181      2.72512188137953      1.00505971363188
  N   1.19374653000949     -1.16912872331930     -0.50713436641004
  H   1.97355612828569     -1.57776209047272     -0.01330450785793
  H   1.38742805958162     -1.18857313935777     -1.49841690167161
