13
Coordinates from ORCA-job run
  C   -0.61985149016813      0.23226050408090     -0.21033541018741
  C   0.71733969096927     -0.51923065494538     -0.11808020168257
  Cl  -0.94246259829343      0.75882200850164     -1.86200931253586
  H   0.74626208351579     -0.99387766068134      0.87294115150061
  H   0.68191022746945     -1.30851226625525     -0.86979639106898
  N   -1.72223450872921     -0.75150711057274      0.20163981490112
  O   -1.76768211629959     -1.78267330084152     -0.45423103145780
  O   -2.42544763546001     -0.45015035100089      1.15740222255069
  C   -0.63419198606000      1.37567461674337      0.69137963373076
  N   -0.55196403639971      2.29110588668548      1.42337647759306
  N   1.79755720007249      0.40160504676513     -0.37780751322516
  H   2.52793999669328     -0.02227086620479     -0.92875315392641
  H   2.19382517268978      0.76875414772542      0.47527371380794
