13
Coordinates from ORCA-job run
  C   -0.61658796938945      0.23709737543225     -0.21597751788904
  C   0.70844948027970     -0.53379061011288     -0.10443217199289
  Cl  -0.93245100682911      0.72403444007314     -1.88074429083972
  H   0.73014767262541     -0.98161245055574      0.89918517474686
  H   0.65871683471126     -1.34231144265405     -0.83463077932658
  N   -1.73253647016293     -0.71871564788328      0.22449223572328
  O   -2.41593805254746     -0.39015797913401      1.18573503676815
  O   -1.80537427982890     -1.75920915342632     -0.41377295719771
  C   -0.61174242888541      1.40478401813193      0.65412207953983
  N   -0.52162774807090      2.34385007993588      1.35459550495469
  N   1.80348186093657      0.36131928595817     -0.39003221544598
  H   2.20846772900535      0.74334631726717      0.45232250977443
  H   2.52499437815589     -0.08863423303225     -0.93186260881528
