13
Coordinates from ORCA-job run
  C   -0.61111305909098      0.22406852764157     -0.21109701205180
  C   0.74237619936239     -0.47406809871346     -0.00618643059304
  Cl  -0.82687391455489      0.67140418979392     -1.89800447602934
  H   0.72592222512250     -1.37961984222520     -0.62762703318258
  H   0.78122678726768     -0.77272568044991      1.04399913138712
  N   -1.68385885496355     -0.80187319894623      0.21306175418069
  O   -2.26928772034154     -1.42837233751806     -0.65330108135276
  O   -1.77674207526932     -0.94254920396615      1.42663842583879
  C   -0.74767550686494      1.39633708187224      0.64102378874687
  N   -0.84140170999707      2.34399524230347      1.32888753638137
  N   1.80642941616034      0.45716410222794     -0.29609983058163
  H   2.09722362757735      0.40502837011340     -1.26161380268362
  H   2.60577458559201      0.30021084786647      0.29931902993986
