13
Coordinates from ORCA-job run
  C   -0.59074536522880      0.39074028929117     -0.26776547644842
  C   0.91087590856614      0.25329666807397      0.01191186057459
  Cl  -0.92462341636409      0.25810971897197     -1.99066493290797
  H   1.04698157498636      0.43287688677258      1.07965686274069
  H   1.41557757383599      1.05474536622955     -0.54192435027189
  N   -1.27836383003427     -0.75812678588227      0.50564136999135
  O   -1.85684136924693     -1.62825170319849     -0.11301430409676
  O   -1.12922240873508     -0.66838863572743      1.71695425096240
  C   -1.11941058145410      1.64561551310327      0.25094206963304
  N   -1.49368499740967      2.67952815668353      0.66579220781728
  N   1.32544097122580     -1.09305410937852     -0.31119254158058
  H   2.09353969933297     -1.38648705835593      0.27424851924968
  H   1.59947624052565     -1.17960430658339     -1.27958553566339
