13
Coordinates from ORCA-job run
  C   -0.56965961308651      0.38843841564285     -0.30919903830739
  C   0.91392446886071      0.24194748199630      0.04926912863760
  Cl  -0.82068197660882      0.19831375303029     -2.04092985377757
  H   0.99937178528016      0.45567209504222      1.11603752180993
  H   1.45730122611033      1.01743368192172     -0.50508625753004
  N   -1.31114595243480     -0.72324501266265      0.46926909850306
  O   -1.86882858983809     -1.60876419093784     -0.14644470973013
  O   -1.22303106338427     -0.59027775446537      1.68247571438562
  C   -1.10559426456013      1.66767315617214      0.13764310923272
  N   -1.49539384124609      2.71710885729781      0.49522050488464
  N   1.32371435100950     -1.12084659508423     -0.20499773346588
  H   2.07173610212664     -1.39517905810450      0.41491530290207
  H   1.62728736777136     -1.24827482984874     -1.16017278754462
