13
Coordinates from ORCA-job run
  C   -0.60960828570873      0.35372376842903     -0.34061326545306
  C   0.82650765926260     -0.02847362402182     -0.73730252955714
  Cl  -1.56790698945417      0.76345388023074     -1.77257587627810
  H   1.25837247731458      0.84597167422827     -1.23078872967735
  H   0.75404361973019     -0.82991640331580     -1.47329438766733
  N   -1.28417820058761     -0.85760351046630      0.32060659390797
  O   -1.05479555342274     -1.93950457815081     -0.20258877111666
  O   -1.99820320392417     -0.64318545790974      1.29078978418871
  C   -0.61624083300414      1.45734192892290      0.60954315197673
  N   -0.52236661591496      2.36262110882592      1.35314915782997
  N   1.66644738682674     -0.44228287387651      0.35204545603270
  H   1.36518659612095     -1.31090342264797      0.76934537962627
  H   1.78274194276149      0.26975750975207      1.05968403618731
