13
Coordinates from ORCA-job run
  C   -0.56678876124113      0.33044158173524     -0.31980410943080
  C   0.98015495162518      0.25716617704532     -0.19138460111587
  Cl  -1.10150109721301     -0.32112932457866     -1.86340205692099
  H   1.38325078426303      0.82892446104931     -1.03084964185611
  H   1.24088724159159      0.77614178905344      0.73405606038012
  N   -1.11777251999992     -0.51580471484529      0.84002299784167
  O   -1.55630278018012     -1.62775285585899      0.60060398726859
  O   -0.96466781180218      0.00426468534620      1.93883043386650
  C   -1.05152423607039      1.69166944102309     -0.15182844108711
  N   -1.39562207486888      2.80970234559723     -0.03662629378693
  N   1.54560982111290     -1.05964168612993     -0.17831220709096
  H   1.30849911942082     -1.57918260338975      0.65529694235865
  H   1.29477736336207     -1.59679929604726     -0.99660307042675
