13
Coordinates from ORCA-job run
  C   -0.54419960586850      0.31810304745982     -0.19129246127936
  C   0.99605852609731      0.19613178686690     -0.22650504002499
  Cl  -1.27228756746733     -0.36095128160676     -1.65689176329373
  H   1.35968041321498      0.58014455449500      0.72971945711942
  H   1.32561336995587      0.88800650193917     -1.00646180747668
  N   -1.14856230163153     -0.44388278691287      1.00772036212485
  O   -0.36635574319469     -1.05634790941258      1.72587022902447
  O   -2.35881063165706     -0.35939615792445      1.14365381316308
  C   -0.95297278762116      1.70777652001774     -0.03599743261416
  N   -1.20179800178519      2.84964010019171      0.09198268981132
  N   1.56260910815922     -1.09912774876596     -0.47001816782565
  H   1.29043829826958     -1.46808062383481     -1.37004004575327
  H   1.31058692352850     -1.75101600251295      0.25826016702470
