13
Coordinates from ORCA-job run
  C   -0.63103986630354      0.29554141315049     -0.42539945893710
  C   0.85517551743281     -0.02576837546180     -0.56314792438625
  Cl  -1.39325620273764      0.47170946951242     -2.01698939707176
  H   1.32747066853836      0.83311719779360     -1.04691750912345
  H   0.94426108158436     -0.88466842593227     -1.23079325410210
  N   -1.31836014312287     -0.88649307054546      0.27194431352818
  O   -2.24711082890282     -0.62585846369592      1.02184891921957
  O   -0.89375471116911     -1.99519904965929     -0.02209186605383
  C   -0.84576986495088      1.49394028396869      0.37310757425433
  N   -0.94658569723916      2.50016310125925      0.97093827170317
  N   1.37112509003254     -0.26972110612406      0.76653517535309
  H   2.14764669943901      0.32942522802925      0.99932804990011
  H   1.63019825739893     -1.23518820229491      0.90163710571600
