13
Coordinates from ORCA-job run
  C   -0.63101291774735      0.36218236676437     -0.33019195357041
  C   0.80050592467669     -0.02217249848708     -0.75435585465680
  Cl  -1.61505052440383      0.76483460417172     -1.74255168245753
  H   0.70673830533339     -0.82051812051659     -1.49233371217593
  H   1.22834419925746      0.85212492343109     -1.25128694331852
  N   -1.25182768387757     -0.86515510254493      0.35004677186024
  O   -1.23242512035690     -1.89320160776002     -0.31113709614546
  O   -1.67093657277016     -0.72796588879140      1.49219107893929
  C   -0.62174208901046      1.46905337634849      0.61539661450544
  N   -0.51667865913728      2.38726501285881      1.34151554209443
  N   1.65575396556869     -0.44683366158170      0.31797711233772
  H   1.78171109654476      0.25798465496990      1.03125187470665
  H   1.36462007592255     -1.31959805886263      0.73447824788088
