13
Coordinates from ORCA-job run
  C   -0.65467922265267      0.36917716276239     -0.32889422391665
  C   0.77892933364162     -0.04334413240990     -0.65539282642496
  Cl  -1.54218264146479      0.79941046494501     -1.80011926049086
  H   0.71782558616953     -0.86555593473885     -1.36875033490426
  H   1.26374810095105      0.80584647387804     -1.14863415306336
  N   -1.36105548967018     -0.84037765880691      0.30090977288015
  O   -1.19567031058033     -1.90285108314531     -0.27831396120160
  O   -2.03526832003139     -0.63674129806999      1.29924849248677
  C   -0.67932424374301      1.47456880637625      0.61895278786989
  N   -0.61039997006476      2.40484068758252      1.33333452521012
  N   1.39959678508719     -0.46389425908571      0.58294368493292
  H   2.02259326045599      0.23565904985873      0.95898005624331
  H   1.89488713190174     -1.33673827914628      0.48273544037852
