14
Coordinates from ORCA-job run
  C   -0.55590405879376      0.34905510230838      0.33286102227528
  C   0.92948721048948      0.04500520516412      0.59283575428835
  Br  -1.33565913220377      0.98249041099570      2.02287762958394
  H   1.38645765257227      0.92136072067455      1.06924833760337
  H   0.96886393833860     -0.78147084937602      1.30735965255916
  C   -1.32524910142256     -0.87278241088297     -0.14878125155168
  H   -0.86037855934580     -1.23274176335762     -1.06730308250280
  H   -1.27528833066090     -1.65495436537397      0.61164168767281
  H   -2.37135845341185     -0.62666738133159     -0.33344010746296
  C   -0.65368705496435      1.44257290542683     -0.63111320590824
  N   -0.67899094442658      2.29888134941335     -1.43605298598862
  N   1.55151003143100     -0.36135532946851     -0.65850376966930
  H   2.35007824368002     -0.95609705590539     -0.48401906585552
  H   1.87011855871821      0.44770346171314     -1.17661061504379
