14
Coordinates from ORCA-job run
  C   -0.57792695407190      0.32814554162122      0.31551204479114
  C   0.91187507274379      0.08931772453617      0.61481216318442
  Br  -1.42541127172645      0.94316145150754      1.97962310512676
  H   1.31974424860407      0.98851686744187      1.09328395567064
  H   0.96843210495881     -0.72817881196827      1.33851672354794
  C   -1.28345871550762     -0.92893324928568     -0.17290004880159
  H   -0.78065185633416     -1.27756661680178     -1.07567663071531
  H   -2.33369711195503     -0.72807133924369     -0.38648635237127
  H   -1.22086173850577     -1.70150350766908      0.59631709988049
  C   -0.69734308259901      1.40818564768835     -0.66121299853960
  N   -0.73847669973132      2.25570715659902     -1.47474306197447
  N   1.58141394268456     -0.30196465879191     -0.61675532944920
  H   2.39895009426181     -0.86174528689763     -0.41645138634693
  H   1.87941196717822      0.51492908126389     -1.13483928400302
