14
Coordinates from ORCA-job run
  C   -0.55462879099914      0.35329565437287      0.33013920376221
  C   0.92516083514348      0.03144740033472      0.59999554610170
  Br  -1.34031876928150      0.98598562711629      2.01774096703009
  H   0.95012635122588     -0.79837826886614      1.31137751595836
  H   1.38826765724926      0.90066946969966      1.08370739783321
  C   -1.33395081491261     -0.85685775909394     -0.16460716284162
  H   -1.29999880353759     -1.64365341572411      0.59187588163830
  H   -0.86504284542940     -1.21746402128170     -1.08081081655909
  H   -2.37528885502478     -0.59695172985303     -0.35703520565057
  C   -0.63257936327048      1.45365356165213     -0.62774087679240
  N   -0.64182380576287      2.31562927843996     -1.42697119406694
  N   1.55257737446548     -0.37666346256295     -0.64813065660816
  H   1.88500926849001      0.43095996649250     -1.15993869685156
  H   2.34249056164425     -0.98167230072626     -0.46960190295352
