14
Coordinates from ORCA-job run
  C   -0.49214434785762      0.23526137053597      0.08196020249593
  C   0.91953268422316     -0.35550666367234      0.10769898553584
  Br  -0.74314121209033      1.30656503174019      1.72004432614619
  H   1.01149904939980     -0.97501377393294     -0.79142353486944
  H   0.97481249632506     -1.02235534022973      0.98100052891992
  C   -1.56024921537216     -0.85134759200885      0.05505518279473
  H   -2.55924316411136     -0.41542722324391      0.06984786241400
  H   -1.44844329336562     -1.44319776263296     -0.85806678347515
  H   -1.44762743220371     -1.50434952807277      0.92242648080333
  C   -0.64438183914605      1.13785584071982     -1.05559703081737
  N   -0.81166693151658      1.80371081113214     -2.00909517400205
  N   1.92936861733673      0.68262820091537      0.05527784471924
  H   2.81507090310082      0.30028553362620     -0.24690811375790
  H   2.05761368527786      1.09989109512381      0.96777922309274
