14
Coordinates from ORCA-job run
  C   -0.49023225014602      0.24832151375029      0.04874626607185
  C   0.92135731579822     -0.33467725570646      0.15011822278742
  Br  -0.70547657895419      1.59555228078793      1.47471064996212
  H   0.99445066733083     -0.83536464182688      1.12703393073083
  H   0.99356310835741     -1.10499337560886     -0.62581832543073
  C   -1.55949439277782     -0.82077374545157      0.23833654322605
  H   -1.42893300691940     -1.30939784254642      1.20560046379124
  H   -1.46769614795094     -1.56619967585383     -0.55697006561073
  H   -2.55755730465034     -0.38451773936381      0.19604838709574
  C   -0.66598125448840      0.93452827721735     -1.22800445288179
  N   -0.85311327982149      1.42085000410609     -2.28109469742941
  N   1.93044495574576      0.67299307185267     -0.10756759340036
  H   2.80929952608063      0.23912237858632     -0.35524684607945
  H   2.07836864239575      1.24555675005719      0.71310751716722
