14
Coordinates from ORCA-job run
  C   -0.51030193503095      0.40289462654449      0.14526790747857
  C   0.99600580935442      0.31427524892046     -0.14661103651421
  Br  -0.74727944434583      0.71133064530766      2.08064840729552
  H   1.09160893075503      0.20130146779370     -1.23217659648198
  H   1.45564141507522      1.27259860100301      0.12907302515483
  C   -1.26016695629942     -0.86195377135839     -0.24680672450728
  H   -2.31906729637304     -0.77722090276181     -0.00174500406436
  H   -1.15737428315236     -1.01346764940578     -1.32564881460654
  H   -0.82020687937170     -1.71071645761241      0.27324309716175
  C   -1.05761793427187      1.57213209616529     -0.53675646392468
  N   -1.47849424325130      2.49092440430079     -1.13711332609060
  N   1.57795935520001     -0.85152412382054      0.49522936655333
  H   2.44430942935782     -1.10126160010083      0.03734551692759
  H   1.78398403235396     -0.64931258497565      1.46505064561806
