12
Coordinates from ORCA-job run
  C   0.59466436376726     -0.60098336890526      0.44958030181443
  C   -0.84993877672202     -0.30740779260672      0.09721927123339
  H   0.90599616122767     -0.12006066062026      1.37599750668720
  H   -1.06816614899241     -0.77746011425444     -0.86241526961347
  H   0.78890380404894     -1.67466692957945      0.49759915869388
  H   -1.48993081004085     -0.78359048932359      0.85479962089212
  N   1.48399923353368     -0.05753255317439     -0.62043175916718
  O   2.37419225728787      0.71690479732240     -0.28418788951924
  O   1.26070665266625     -0.44149701025597     -1.76471865850013
  N   -1.02491426358792      1.13249707731449     -0.03801020745868
  H   -1.85482954455683      1.34363800744095     -0.57458068494825
  H   -1.12168292863165      1.57015903664225      0.86914860988590
