12
Coordinates from ORCA-job run
  C   0.45619916415457     -0.84180635741016     -0.01468298505054
  C   -0.70668291067049     -0.06359695287053      0.56782902343042
  H   0.20285723612957     -1.33424433442413     -0.95265084286990
  H   -1.48486030003827     -0.78265897981602      0.86389296044293
  H   0.85405397484082     -1.56784865290352      0.69764244195165
  H   -0.36057731423870      0.43943494961137      1.47150985126777
  N   1.57288292021701      0.09963674544619     -0.32756189632239
  O   1.97614467580378      0.79707134926531      0.59852689309987
  O   2.01351947496520      0.10223085715009     -1.47258960508410
  N   -1.13488376503329      0.94464855153936     -0.39254495566124
  H   -1.66464976178960      1.67331550513623      0.06531648011407
  H   -1.72300339434059      0.53481731927580     -1.10668736531855
