12
Coordinates from ORCA-job run
  C   0.52532858751495     -0.73713107914930      0.30422360724083
  C   -0.86097773501782     -0.33635924899386     -0.14364293930962
  H   0.80803667280078     -1.73765223707620     -0.03221082329954
  H   -1.54975214437496     -1.07514585376159      0.27688207732340
  H   0.62429711540122     -0.67362593439484      1.38688479020041
  H   -0.92799855020972     -0.40538399789290     -1.23606865953835
  N   1.58194098994961      0.17616391848046     -0.24509282306623
  O   2.69182398375755      0.09634121835747      0.26950366116969
  O   1.28378310817188      0.91411040614276     -1.18343511289738
  N   -1.19497624666078      0.97593413827604      0.40016003598650
  H   -0.78452451080758      1.69094341616983     -0.18636497237043
  H   -2.19698127052511      1.11180525384212      0.39116115856072
