15
Coordinates from ORCA-job run
  C   0.78408038226683      0.22852966122750     -0.12861628162342
  C   -0.55198099428667     -0.12450204619569     -0.10260562813182
  N   1.52631032605927      0.04043903683051      1.00407886604514
  H   2.52288133387440      0.13452904612052      0.92477496240806
  H   1.21217351151862     -0.65529736097900      1.65560124694914
  N   1.44158557003584      0.86276477907727     -1.14845315239878
  H   2.41404147025705      0.62137372446666     -1.25628746815889
  H   0.91399735641986      0.87403605469811     -2.00964110834273
  N   -1.40460609910484      0.20503946296383     -1.20441951288089
  O   -2.62720225884277      0.12857160544211     -1.04593748709669
  O   -0.90040829128369      0.54303574880620     -2.29363074973962
  C   -1.19750373545472     -0.61259240646563      1.15865800570086
  H   -2.23322961813626     -0.86973555332146      0.95352465558130
  H   -0.70966344482592     -1.51713330118180      1.53977001655156
  H   -1.18847550849701      0.14194154851089      1.95218363513678
