15
Coordinates from ORCA-job run
  C   0.82093661181465      0.14102168798207     -0.07579159983795
  C   -0.53445797380801     -0.09715516012768     -0.17021498075137
  N   1.77816509272690     -0.32323436333009     -0.93319661005300
  H   1.42102463371477     -0.99322399092690     -1.60188399528869
  H   2.66809018726471     -0.55128006545893     -0.51851899965699
  N   1.27787885728240      1.02648848613471      0.88104228052200
  H   0.82765586936590      0.99612876229527      1.77947572876170
  H   2.27261822423401      1.17515243307753      0.91445937705326
  N   -1.03456088822401     -1.14614852406285     -0.99451410242092
  O   -0.30690987552309     -1.67097530468190     -1.86172617099552
  O   -2.20682435927030     -1.49658280145659     -0.81502723118273
  C   -1.54286425468441      0.59733151282699      0.68957725582722
  H   -2.47581460447940      0.71843265351978      0.13918763927982
  H   -1.78463395972665      0.03646369537237      1.59911013553730
  H   -1.17930356068747      1.58858097883622      0.96702127320585
