15
Coordinates from ORCA-job run
  C   0.83662396415759      0.13852882922675     -0.06801237042696
  C   -0.47853585454008     -0.26669760394097     -0.00740008853900
  N   1.86547254606216     -0.53042669719104     -0.67137373844265
  H   1.56568152471632     -1.32415601128594     -1.22012090665060
  H   2.55377523432228      0.06842429848355     -1.10083269622680
  N   1.24881324801002      1.31828719338216      0.52771051131853
  H   0.54949065657702      1.82501571471590      1.04212585209915
  H   2.13045725661362      1.24798973040450      1.01326813594911
  N   -0.96373727499245     -1.28072445842075     -0.89267322575006
  O   -0.16659964781545     -2.03438556136666     -1.48233672919230
  O   -2.18873090503536     -1.37501665860943     -1.02743250795377
  C   -1.52754424959035      0.42753835548182      0.80664660404580
  H   -2.02837117008009      1.23217447969400      0.25878197758385
  H   -1.10083582515223      0.83786876230761      1.72490892328230
  H   -2.29795950325299     -0.28642037288151      1.09574025890340
