15
Coordinates from ORCA-job run
  C   0.84580053653962      0.08642570948202     -0.03971575263735
  C   -0.51336009462226     -0.10278646584343     -0.16052040659163
  N   1.80733811079131     -0.35846717127204     -0.90443301135716
  H   2.66981777045873     -0.63228004053498     -0.45944973212259
  H   1.45482478733476     -0.98900430227960     -1.61103315942537
  N   1.37578797991167      0.80116202850126      1.02045814086547
  H   2.12250878198604      1.42908426865441      0.76367534869809
  H   0.71438294802527      1.20667318346926      1.65955924317012
  N   -1.02790563503932     -1.10785232221089     -1.03943559263603
  O   -2.20114429579827     -1.45877456469636     -0.87213224896704
  O   -0.30874067051897     -1.58649777037564     -1.93659931973548
  C   -1.52766502130191      0.54711883101148      0.73058064073792
  H   -1.19954766436796      1.54408309933033      1.03384056187339
  H   -1.74611744455388     -0.04178159527282      1.62720062674380
  H   -2.46698008884482      0.66289711203700      0.19100466138387
