15
Coordinates from ORCA-job run
  C   0.80342616648304      0.22758924843301     -0.18190098867526
  C   -0.43644317859035     -0.31563317221336      0.06969112230932
  N   1.60734955396158     -0.04788211527605     -1.25317571578349
  H   2.59345640831413     -0.01836353744040     -1.04741108124144
  H   1.29939294797818     -0.83300877945329     -1.80709558011469
  N   1.39033434994276      1.14181773799167      0.68510510621753
  H   1.85779502261094      1.89322909338908      0.19847665443756
  H   0.80274227392369      1.47706214145683      1.42850645623106
  N   -0.98524217064630     -1.29934884781820     -0.82175632108960
  O   -0.27607462335110     -1.82238390038600     -1.70077384875506
  O   -2.18757774279006     -1.55981631595890     -0.70119269587928
  C   -1.41627122103885      0.19679209500510      1.08367761046293
  H   -1.87608505154339     -0.63416698649570      1.61973040820882
  H   -2.22541767828842      0.75003374632905      0.59936749964221
  H   -0.95038505696586      0.84407959243715      1.82775137402940
