15
Coordinates from ORCA-job run
  C   0.83374663934446      0.11766386094660     -0.12283992451389
  C   -0.52951478145228     -0.08004292420802     -0.11525674969804
  N   1.59010100800439     -0.08584221987029      1.01839094557971
  H   1.09666258956230     -0.42905326628585      1.82407722916214
  H   2.46768745704796     -0.55581063889091      0.85470808351400
  N   1.59328429962903      0.50161142894952     -1.19336583504838
  H   2.36701371953526      1.10385624412125     -0.95757741907212
  H   1.04756282622757      0.77873542937454     -1.99743356866487
  N   -1.34233043432868      0.44861008791265     -1.16753015235510
  O   -0.82642861475429      0.79195682025456     -2.24785012919331
  O   -2.55741061609873      0.53092278023871     -0.95703566619313
  C   -1.28017286224106     -0.65887836549349      1.04513499822492
  H   -1.60049914309509      0.09983999797150      1.76648805726651
  H   -0.67772763493468     -1.40794498940481      1.56444290074985
  H   -2.18097445244615     -1.15562424561597      0.68664723024169
