15
Coordinates from ORCA-job run
  C   0.84851184754187      0.05857963807380     -0.02581410180131
  C   -0.51366621889702     -0.08771997701553     -0.16864982997762
  N   1.38316890382466      0.76392818393138      1.03874715606273
  H   2.15306283557766      1.36612133828434      0.78847671975639
  H   0.72341380194219      1.19779996716226      1.66080585241865
  N   1.81050556313687     -0.42388699042028     -0.86988702977212
  H   1.45006353447421     -1.04869495783195     -1.57761235516142
  H   2.65449773859800     -0.72375361085523     -0.40649303133598
  N   -1.04509660444865     -1.08192254810656     -1.05000492336643
  O   -2.23169406723542     -1.39404300895909     -0.90121213593318
  O   -0.32624020585483     -1.58929583219780     -1.93141958218208
  C   -1.52105376039495      0.60200671214372      0.70004885968164
  H   -2.44844596431107      0.74019301293358      0.14546274613039
  H   -1.16705146463663      1.59177500391504      0.99791211244309
  H   -1.76997593931688      0.02991306894232      1.59963954303726
