15
Coordinates from ORCA-job run
  C   0.81932402476669      0.15613011870533     -0.06064318969306
  C   -0.52894479171758     -0.10917072248652     -0.17900344093297
  N   1.80201073870346     -0.29845414839575     -0.89368458558576
  H   1.47164877830112     -0.98113338640870     -1.56321097720201
  H   2.68854499422175     -0.50384741803242     -0.46046973570097
  N   1.23988288903411      1.06110910224991      0.89566352850541
  H   0.77400994528821      1.02583974958037      1.78609307188425
  H   2.23194592762892      1.22228621780531      0.94946556667050
  N   -0.99288400141010     -1.17453500566638     -1.00354038270960
  O   -0.23813736354021     -1.69315327613811     -1.85109532552044
  O   -2.16150043832052     -1.54585054161444     -0.84351780305772
  C   -1.56791710426128      0.57482824237287      0.65230673250106
  H   -1.22824375082519      1.57519221405649      0.92732885545886
  H   -1.81873258164234      0.01838128293842      1.56209989254298
  H   -2.49100726622703      0.67337757103363      0.08120779283947
