15
Coordinates from ORCA-job run
  C   0.82971317395011      0.07551197595640     -0.04463357961816
  C   -0.51436877832990     -0.22923267159838     -0.04930490718478
  N   1.29982688100516      1.10160589073324      0.75492943232647
  H   2.12009450863117      1.55808761475846      0.38407462530524
  H   0.60750094503369      1.76924559393946      1.05286900745511
  N   1.80994541850117     -0.54897340251429     -0.76898518450947
  H   1.49967559697269     -1.41828906368375     -1.18135844553734
  H   2.71187748411542     -0.58202683096690     -0.31831546099450
  N   -1.02694197022144     -1.30344268594071     -0.83525597699809
  O   -0.24316936116532     -2.04893423781329     -1.45625280091872
  O   -2.25152760778189     -1.46381993222962     -0.88501720891849
  C   -1.50492490771520      0.61874281160483      0.69063421500515
  H   -1.20210873252363      0.77440763223076      1.73027275226075
  H   -2.46294782611833      0.10520633816436      0.71489943632903
  H   -1.67164482435369      1.58991096735943      0.21044409599779
