15
Coordinates from ORCA-job run
  C   0.84002703313267      0.12930669647726     -0.08616999477016
  C   -0.51808709795140     -0.10649524205768     -0.13591568504521
  N   1.80200286659400     -0.58078117922147     -0.75349610266542
  H   1.45160816388095     -1.05086075584582     -1.57742767995284
  H   2.64574836518118     -0.04762854056063     -0.90625039969490
  N   1.35863577944824      1.17800612815685      0.66682016330930
  H   2.16967212070893      0.92981258119654      1.22019623913780
  H   0.67681316081197      1.66303390816863      1.22684203211104
  N   -1.05783373037905     -1.00627744463445     -1.11267341195716
  O   -2.25839079707852     -1.28527726580287     -1.02204994114055
  O   -0.35136944939300     -1.41724482724332     -2.05036668253510
  C   -1.49184611428393      0.32057686257632      0.92533826633153
  H   -2.47311559542188      0.50624429397149      0.49196101030361
  H   -1.17935230961835      1.23196105528281      1.43650560764191
  H   -1.61551239563180     -0.46537627046366      1.67668657892612
