15
Coordinates from ORCA-job run
  C   0.81956484098570      0.15213995961131     -0.06824671035810
  C   -0.53107930697013     -0.10737367528513     -0.17365626870682
  N   1.79249232288862     -0.30762347315659     -0.91037417220188
  H   1.45224826774319     -0.98979486690361     -1.57553329885522
  H   2.68115413090799     -0.51800889744327     -0.48384146786602
  N   1.25372392352271      1.05482036236769      0.88310412207754
  H   0.79441890898535      1.02855253758211      1.77705610364855
  H   2.24579180980215      1.21839555884274      0.92504314238320
  N   -1.00726532728526     -1.17208287519311     -0.99206505180178
  O   -0.26293362185406     -1.69553951537202     -1.84583627974999
  O   -2.17625357095982     -1.53737559626910     -0.82098181982762
  C   -1.55902510249991      0.58221047422481      0.66666406041738
  H   -2.48695054970340      0.68479878086212      0.10406828293641
  H   -1.21253865704986      1.58135137602884      0.93759095413320
  H   -1.80434806851328      0.02752985010322      1.57900840377116
