15
Coordinates from ORCA-job run
  C   0.80862094326455      0.20746378300953     -0.16478923949994
  C   -0.45387585495160     -0.30425712304321      0.03973924830529
  N   1.79874594918501     -0.35278020339313     -0.92374204733113
  H   1.49024380652953     -1.14486913884502     -1.47009490039878
  H   2.37970495247784      0.31645504740352     -1.40484421692936
  N   1.20487846692694      1.39187289081888      0.43271296609707
  H   0.54117045919243      1.81816072404814      1.05588593231850
  H   2.14390990679465      1.37266571294978      0.80140400560410
  N   -0.97207180259828     -1.31741469879543     -0.82767134337307
  O   -2.19364199214705     -1.50482790180769     -0.81273905410780
  O   -0.20326920316891     -1.97986553742020     -1.54971992400341
  C   -1.43902042438885      0.27252789682725      1.01045171393664
  H   -2.06208474776186      1.05702631685680      0.56908531250983
  H   -0.93037455400176      0.67745391911943      1.88848359218243
  H   -2.11293590535265     -0.51061168772864      1.35583795468963
