15
Coordinates from ORCA-job run
  C   0.83399718219934      0.06078452240550      0.00780547068916
  C   -0.50873284582929     -0.25336479060369     -0.02856932039950
  N   1.82979383578030     -0.59503610106931     -0.65933021367963
  H   2.59168656863766     -0.02277710593664     -0.98779590034436
  H   1.48274660636340     -1.28326406238433     -1.31457251029181
  N   1.26721443019471      1.03882176286188      0.88192972479468
  H   0.67821035150248      1.84638394890866      0.98956494762796
  H   2.25415912862890      1.23533142370723      0.88035363892335
  N   -1.03170646568377     -1.10246007948985     -1.04614417775025
  O   -0.26746420191582     -1.80537883314739     -1.73815098547256
  O   -2.25876553721068     -1.11260830414352     -1.19892494813849
  C   -1.51692348614771      0.38373673334832      0.87471546047518
  H   -2.31466170644044     -0.32546399714496      1.09538315771364
  H   -1.99279181067002      1.26354672393437      0.42781458054198
  H   -1.04676204940905      0.67174815875373      1.81692107531064
