15
Coordinates from ORCA-job run
  C   0.82232096763895      0.12917241464801     -0.07756627158945
  C   -0.48490177983648     -0.29617204271154      0.03651684038025
  N   1.24782806578370      1.19270419212134      0.69466017145136
  H   0.60314875874688      1.95507881243154      0.81278871217437
  H   2.20933661228826      1.46868261578184      0.58478334775821
  N   1.80476319113220     -0.48418177541871     -0.80243851148085
  H   1.45980631118385     -1.23844271836205     -1.38166695960760
  H   2.48008720740155      0.12611028597461     -1.23523277882595
  N   -1.02450774483217     -1.24728542858383     -0.87690286782674
  O   -0.26981842752197     -1.92740336524670     -1.60136818823876
  O   -2.25489215394086     -1.36735115380479     -0.90746372439608
  C   -1.45619517153727      0.31306194303428      0.99770202081402
  H   -2.04533870223036      1.12198945486873      0.55177814386064
  H   -2.16587167397958     -0.44289510186203      1.33357631409067
  H   -0.92676546029669      0.69693186712930      1.87183375143593
