15
Coordinates from ORCA-job run
  C   0.83479322957248      0.02837945183919      0.03930323078154
  C   -0.51704355947850     -0.23482807240048     -0.03827941473106
  N   1.82800966212704     -0.69451779418516     -0.55881696037216
  H   2.62574271189306     -0.16794212355729     -0.87850233786554
  H   1.47886326078644     -1.39564147413558     -1.19916401551055
  N   1.27299849027379      1.02494486003687      0.89015629600568
  H   0.71315738650272      1.85878563948838      0.93724476972530
  H   2.26625071705764      1.18499422589261      0.91611698925564
  N   -1.03405278790503     -1.10523880429769     -1.04064090362700
  O   -0.27280461495525     -1.86676388683975     -1.67120211211672
  O   -2.25355564236541     -1.07321749389926     -1.24320665975212
  C   -1.53281975438587      0.47989454062765      0.79590762076944
  H   -1.08813349894698      0.78997633994809      1.74344293705283
  H   -1.95448778219347      1.35746104315654      0.29355935295580
  H   -2.36691781798267     -0.18728645167411      1.01308120742892
