15
Coordinates from ORCA-job run
  C   0.75716545651940      0.11761133913352      0.02685162001621
  C   -0.56876272670380     -0.16258288423827     -0.05964756735947
  N   1.72164501339880     -0.47406969658509     -0.79213636512200
  H   1.45913200949456     -0.57409906934641     -1.75992699938382
  H   2.63948467207945     -0.07875428543218     -0.66810898424439
  N   1.19136542315915      1.04358918720635      1.02135437700650
  H   2.03771787658638      0.70343839756912      1.46504619577908
  H   1.40804730647247      1.92782238483159      0.57400059109942
  N   -1.00917251205737     -1.11725608662525     -1.06489456573390
  O   -1.84935135202921     -1.94765929210736     -0.71702985008722
  O   -0.44584701408350     -1.12026488702681     -2.16595224875337
  C   -1.63617952751573      0.33049127181099      0.85911143211326
  H   -2.48517834090101      0.73347355624062      0.30086057422962
  H   -2.00591256778137     -0.48657543102414      1.48269603341431
  H   -1.21315371663821      1.10383549559329      1.49677575702578
