15
Coordinates from ORCA-job run
  C   0.81664981437057      0.16778706458948     -0.06808889692553
  C   -0.47056938005532     -0.31852691728497      0.02852794181005
  N   1.83105306926315     -0.38922801611478     -0.79429148648702
  H   2.48178514435612      0.25724617160069     -1.21194465714297
  H   1.52548545839274     -1.14994710225567     -1.38709323668302
  N   1.18784382338897      1.23748216668915      0.72287130717074
  H   2.13642333967312      1.55903375295148      0.62595454216197
  H   0.50765925923653      1.96657726743927      0.85112894038243
  N   -0.95896616454088     -1.27830473817968     -0.90426162960415
  O   -2.18245692022975     -1.45303478064525     -0.94778285615792
  O   -0.16848661679853     -1.91277533261140     -1.63214588465942
  C   -1.47777967747814      0.23134328430256      0.98863883291720
  H   -0.97527255587584      0.63029988856347      1.87188891657172
  H   -2.10221894910591      1.01529730335596      0.54628968367597
  H   -2.15214964459684     -0.56225001240030      1.31030848296995
