15
Coordinates from ORCA-job run
  C   0.82636195518886      0.11661920399117     -0.05036450145758
  C   -0.53192799482991     -0.08279068953893     -0.18497443149080
  N   1.79479951029110     -0.37292964869291     -0.88048580893762
  H   1.43924709365451     -1.02871008201284     -1.56382555851828
  H   2.66580291469750     -0.62661066252986     -0.44142076454884
  N   1.28016821766566      0.98540778531160      0.92297559983588
  H   0.80297738320361      0.96720142453877      1.80764580632791
  H   2.27705450398733      1.10795652314976      0.98481039606072
  N   -1.03741859456565     -1.11298870321496     -1.02941425641860
  O   -2.22411995169690     -1.43009698464123     -0.88633546769692
  O   -0.29966535314590     -1.65494472865731     -1.87735285628965
  C   -1.54539978462331      0.63933731117748      0.64564378901678
  H   -1.83102108751828      0.08404103428838      1.54584737856068
  H   -1.16167982930529      1.61898196760494      0.93686830022092
  H   -2.45717898300332      0.78852624922594      0.06738237533540
