15
Coordinates from ORCA-job run
  C   0.82681069727626      0.16071136821015     -0.12100144644306
  C   -0.50900751982038     -0.17511705613731     -0.10126142155822
  N   1.77095585077816     -0.31473141606425     -0.98873569815611
  H   2.68514996507780     -0.43505547034781     -0.58050081520605
  H   1.44184021390364     -1.07505737612663     -1.56726856849405
  N   1.34682216749013      1.07458535460614      0.77921170875270
  H   0.68977580212113      1.50701443153530      1.40503633776497
  H   2.00330998057880      1.72498312919779      0.37443108160767
  N   -0.97015436296015     -1.34517757942462     -0.78381088626491
  O   -0.26547244115351     -1.88048271603962     -1.66023024895399
  O   -2.08515162696164     -1.77867408807521     -0.47325686213269
  C   -1.52553168155436      0.50068133826567      0.76769140478008
  H   -1.28693651723483      1.55900978207630      0.89667462294486
  H   -1.61828021415947      0.03567558738845      1.75439645589274
  H   -2.50613031338161      0.44263471093565      0.29662433546605
