15
Coordinates from ORCA-job run
  C   0.83596181441246      0.07311327728578     -0.04482479310798
  C   -0.52325982257101     -0.13700570989398     -0.14127098805876
  N   1.81761682544085     -0.57774490111243     -0.73567531866323
  H   1.47550692069453     -1.13219280710207     -1.50673903206523
  H   2.64549565501321     -0.03089207403961     -0.91330509650939
  N   1.32745496263908      1.02779228402065      0.83302791579022
  H   2.21474122704888      0.77514901701544      1.24177836649163
  H   0.67254919124339      1.34841107371098      1.52577268897003
  N   -1.05597324795933     -1.08967876175618     -1.06667683123908
  O   -0.29663930629172     -1.67329225789236     -1.86322890331239
  O   -2.27223138695103     -1.30439568183550     -1.04208643668608
  C   -1.50776409397632      0.54705949713598      0.76011225520895
  H   -1.28016300958750      1.61051734520473      0.87107452323171
  H   -1.55237381027848      0.09075004338070      1.75544576748952
  H   -2.50192191887701      0.47340965587786      0.32659588246009
