15
Coordinates from ORCA-job run
  C   0.83852130757697      0.12810279524837     -0.06644662854092
  C   -0.48128057557428     -0.26125016750374     -0.00563554372189
  N   1.86219397858485     -0.55998330589262     -0.65670266496226
  H   1.55578696819872     -1.35656196383517     -1.19760326040226
  H   2.55916957135782      0.02589612020569     -1.09001474952562
  N   1.26306249570769      1.31049004838098      0.51666519800987
  H   2.13817923102597      1.23197306184484      1.01283740613225
  H   0.56590421515524      1.83157508001603      1.01972258238007
  N   -0.97471805694585     -1.28079759617115     -0.88031998439059
  O   -0.18385769863251     -2.05042785062637     -1.45746422535786
  O   -2.20011852116259     -1.36270388283037     -1.01912572582631
  C   -1.52571209153302      0.45618537056961      0.79411452975359
  H   -2.01450967479789      1.25898688359467      0.23287489599058
  H   -2.30572651505823     -0.24453014406033      1.08965657015284
  H   -1.09789463390290      0.87404555105955      1.70844160030850
