15
Coordinates from ORCA-job run
  C   0.80864351482709      0.17575344812416     -0.12043552514952
  C   -0.53439887672057     -0.13785367781382     -0.13902338755593
  N   1.25296395485103      1.15815788812555      0.74276765393773
  H   2.23714566065671      1.36623928856921      0.71821181604176
  H   0.83962812498699      1.18154908044518      1.65884940071179
  N   1.75787045705939     -0.30946990174837     -0.97558919835138
  H   1.41205913684443     -1.04729674419439     -1.57525474968862
  H   2.67159734175868     -0.46081845773451     -0.57791617169843
  N   -1.00667986697647     -1.27612563911057     -0.85445491614460
  O   -2.14936092738131     -1.67218955785450     -0.59604371306547
  O   -0.28577864997797     -1.83067152929558     -1.70863776947922
  C   -1.54749061036907      0.57362086096453      0.70106624112542
  H   -2.50461408236111      0.60126359185963      0.18035301001044
  H   -1.22743595967337      1.60131566806592      0.88317905204256
  H   -1.72614921752447      0.07852568159755      1.66192825726346
