15
Coordinates from ORCA-job run
  C   0.82840435949028      0.13054751573778     -0.02673915030446
  C   -0.48065994317542     -0.28924582733186      0.06134264047308
  N   1.94008489097418     -0.53468275998436      0.40943268827764
  H   2.67533501463577      0.06772813220606      0.74514060765043
  H   1.72618486814060     -1.34540053919197      0.97309529317397
  N   1.12515885944872      1.34201059441338     -0.63220953701210
  H   0.35288417569671      1.81173107772687     -1.07318950005094
  H   1.95117045744046      1.31387973484313     -1.21138886736944
  N   -0.83754394812871     -1.36515172567763      0.93565568649492
  O   -2.02981544947131     -1.51890098339613      1.21732172901175
  O   0.05168641347309     -2.11970134399636      1.37154799284032
  C   -1.60134624048692      0.48290528087650     -0.56781965500491
  H   -1.36228510051904      0.74426480284047     -1.60332596123675
  H   -1.83804770856677      1.40651296051801     -0.02662112715464
  H   -2.50121064895164     -0.12649691958389     -0.57124283978889
