15
Coordinates from ORCA-job run
  C   0.82175264383874      0.13793387728124     -0.07034214324575
  C   -0.53402926371046     -0.09528532696872     -0.16998661307025
  N   1.27961207607663      1.00645137003427      0.90216524999618
  H   0.82491639499595      0.96101361322898      1.79791011483257
  H   2.27618164332069      1.14038659553529      0.94631791345177
  N   1.77835333509932     -0.31527056234084     -0.93402493403585
  H   1.42064579057367     -0.97288636891477     -1.61450768743569
  H   2.66967015330846     -0.54755241759260     -0.52498717387239
  N   -1.03768272069169     -1.12286222611462     -1.01885472647156
  O   -0.30872123626835     -1.63553791448854     -1.89226578520566
  O   -2.21328398891503     -1.46857999149418     -0.85257935134583
  C   -1.54217101435555      0.59109714076205      0.69669108141185
  H   -2.47296193975701      0.72289458544159      0.14520746813670
  H   -1.78871318825167      0.01890463689855      1.59792633755951
  H   -1.17656868526369      1.57729298873230      0.98933024929439
