15
Coordinates from ORCA-job run
  C   0.84485055548183      0.09232364282144     -0.04466055675769
  C   -0.49113553403962     -0.24200695189892     -0.01271559102940
  N   1.29968611104168      1.27199386721207      0.51913393966614
  H   0.61187990984358      1.83462864466929      0.98901189671847
  H   2.16051406323272      1.17654202025045      1.03663923422034
  N   1.85565042218458     -0.65285336259194     -0.58633310709764
  H   2.58702248680021     -0.10788912065021     -1.01647779930057
  H   1.53068649285947     -1.45065131554406     -1.11462580127091
  N   -1.00126668193651     -1.26342152498515     -0.87520885732105
  O   -0.22704940871789     -2.07932135002549     -1.41001866642655
  O   -2.22467936998111     -1.29968405984548     -1.04713064725306
  C   -1.52740072751088      0.53733569805367      0.73817265714574
  H   -1.10892809540895      0.96244670300658      1.65347969960926
  H   -2.34288620056099     -0.12393256070392      1.02894530260040
  H   -1.96794402328811      1.34348967023167      0.14278829649652
