15
Coordinates from ORCA-job run
  C   0.84624923058645      0.07817770959872     -0.04933471412544
  C   -0.51268968311589     -0.12704435763615     -0.14478340990303
  N   1.37137341030363      0.95452028851725      0.88439793818308
  H   0.70691395163166      1.46004641318559      1.44408411106818
  H   2.12238095160259      1.53036632763208      0.53483375018811
  N   1.81164090020651     -0.50282565212071     -0.82429789119112
  H   1.46059767798626     -1.23905416818319     -1.42103345178977
  H   2.67083802031445     -0.70119950932002     -0.33521782418295
  N   -1.02428842685582     -1.26071805304589     -0.85195188258666
  O   -2.19906258694924     -1.57902975224498     -0.63682128646429
  O   -0.30146087576443     -1.87882545423375     -1.65622294313416
  C   -1.52999272658793      0.66036459026256      0.62346732784997
  H   -1.20236264503710      1.69361247325130      0.76024840356793
  H   -2.46723444494653      0.68599149840777      0.06877786475551
  H   -1.75190275337463      0.22661764592943      1.60385400776466
