15
Coordinates from ORCA-job run
  C   0.83237378222528      0.12474954100072     -0.12396955297152
  C   -0.51167182223432     -0.17458874069141     -0.08903721741240
  N   1.35960408358769      1.13446524938005      0.66250090844161
  H   2.04046854935644      1.71127986530378      0.19178589443294
  H   0.70271884704743      1.65999362251179      1.21270354432482
  N   1.77953242510184     -0.48006403121264     -0.90374962197202
  H   2.68222479268510     -0.56922939578235     -0.46312381147767
  H   1.44129007646220     -1.30102119893976     -1.38620101084408
  N   -0.99032164691279     -1.41228248021779     -0.62463420711177
  O   -2.12078950539392     -1.77689445525462     -0.28303022988306
  O   -0.28451919396600     -2.07185565504280     -1.41067272102256
  C   -1.52510360280641      0.63065283002048      0.66562818140415
  H   -1.26312405328064      1.69130970423846      0.65997192386565
  H   -2.49940575483999      0.53274812564865      0.18817544145725
  H   -1.64427697703190      0.30073701903743      1.70265247876867
