15
Coordinates from ORCA-job run
  C   0.84489765569465      0.08535222483135     -0.05226999444711
  C   -0.49314118965776     -0.23846147148487     -0.00613593011734
  N   1.31196988214274      1.26971951107983      0.49169523990189
  H   0.63146599487737      1.84215640141518      0.96045703828427
  H   2.17588599806229      1.17454431057902      1.00416890777263
  N   1.84655702589972     -0.67393358581271     -0.59141386160884
  H   2.57791372712843     -0.13947965402239     -1.03454941759219
  H   1.51247996339755     -1.47673756982362     -1.10616251619235
  N   -1.01690851299128     -1.26875397932084     -0.84993750413312
  O   -2.24154835825825     -1.29828121152570     -1.01368061841897
  O   -0.25212538706983     -2.09797469401580     -1.37776465291527
  C   -1.51736233582019      0.55957873530957      0.74174071293158
  H   -2.33984429148761     -0.08915327909483      1.04058863158167
  H   -1.94994488410690      1.36633053153654      0.14125254579549
  H   -1.09029528781091      0.98709373034927      1.65201141915765
