15
Coordinates from ORCA-job run
  C   0.82858575076577      0.11049155769429     -0.01498920577433
  C   -0.49246477725701     -0.28624178784529      0.00662451530618
  N   1.85181691804825     -0.54282647852813     -0.64192676463547
  H   1.53794157361146     -1.30942610246099     -1.22270025321783
  H   2.57084106073139      0.04114523813050     -1.03914003062542
  N   1.21476009893558      1.18871953046344      0.75628603669730
  H   2.18930564890100      1.43712411500705      0.72660985464651
  H   0.58095173962767      1.96737047822115      0.80500531567267
  N   -0.97849181364851     -1.25171842202833     -0.92158371664121
  O   -0.18414188305082     -1.96956074261008     -1.56242277560338
  O   -2.20494958414346     -1.34553655644951     -1.04961489413078
  C   -1.52373438925832      0.37132436326127      0.86824478639484
  H   -1.05770962859198      0.76989240168252      1.77146423788723
  H   -2.27545048807973     -0.35924813173555      1.16687430892724
  H   -2.05626022659129      1.17849053719766      0.35326858509644
