15
Coordinates from ORCA-job run
  C   0.84473775206800      0.08484573140879     -0.05867515342715
  C   -0.51304004897340     -0.13362872516478     -0.13738220217008
  N   1.37239401616140      0.97842701262207      0.85769815913171
  H   0.70873672353378      1.48571154902484      1.41684950650136
  H   2.11162553486652      1.55786511184439      0.48925914549386
  N   1.80768609991457     -0.49711568097272     -0.83624299089861
  H   1.45856982082670     -1.24464625510712     -1.41970375883132
  H   2.67301676182519     -0.68291781665925     -0.35292273823260
  N   -1.02148155529520     -1.28111833103752     -0.82468569373561
  O   -2.19087421636946     -1.60733113952411     -0.59289735155040
  O   -0.30112685940141     -1.90275534257776     -1.62827405966388
  C   -1.52961320414936      0.65478264928282      0.63086729177861
  H   -2.47267539122653      0.66489083298029      0.08561249148222
  H   -1.73750322398781      0.23247725133884      1.61924585148398
  H   -1.20945220979299      1.69251315254122      0.75025150263791
