16

C	0.0	0.0	0.0
C	-0.227654	-0.050643	-1.576643
Cl	1.758146	0.0	0.0
H	0.386986	0.79901	-1.901601
C	-0.537834	1.218507	0.581207
N	-0.639422	2.313228	1.004038
N	-0.464642	-1.215136	0.764206
O	-0.616943	-2.250595	0.135116
O	-0.508096	-1.086386	1.979208
C	-1.574816	0.110902	-2.281252
H	-2.07261	1.014678	-1.945697
H	-1.350402	0.163423	-3.356458
H	-2.23129	-0.722589	-2.064554
C	0.442986	-1.226366	-2.155908
N	0.943761	-2.104615	-2.754624
F	-2.296973	0.0	0.0
