16

C	0.0	0.0	0.0
C	-0.382708	-0.115591	-1.505314
Cl	1.769181	0.0	0.0
H	0.47383	-0.583253	-2.003287
C	-0.492882	1.187321	0.680901
N	-0.583095	2.236635	1.207793
N	-0.374385	-1.24256	0.794554
O	-0.545327	-1.103623	1.994692
O	-0.340157	-2.299399	0.180114
C	-0.598968	1.281649	-2.087272
H	-0.733258	1.207937	-3.168938
H	-1.499648	1.690119	-1.631214
H	0.25294	1.934966	-1.880672
C	-1.531843	-0.962331	-1.843318
N	-2.249803	-1.65468	-2.470474
F	-2.276425	0.0	0.0
