16

C	0.0	0.0	0.0
C	-0.227869	0.08688	-1.575596
Cl	1.757895	0.0	0.0
H	0.37833	0.967801	-1.821063
C	-0.536322	1.161613	0.688863
N	-0.641846	2.211734	1.21214
N	-0.463357	-1.277938	0.653399
O	-0.508773	-1.256421	1.875348
O	-0.615274	-2.253969	-0.064797
C	-1.574172	0.288307	-2.270892
H	-2.088885	1.149841	-1.859131
H	-1.350114	0.440167	-3.336248
H	-2.21736	-0.571491	-2.129543
C	0.458529	-1.025381	-2.254961
N	0.960413	-1.849411	-2.925498
F	-2.290627	0.0	0.0
