16

C	0.0	0.0	0.0
C	-0.608617	0.08258	-1.387529
Cl	1.790339	0.0	0.0
H	-1.694291	0.252363	-1.153017
H	-0.287549	0.908074	0.528834
C	-0.527755	-1.21347	0.728887
H	-1.62432	-1.131927	0.697028
H	-0.19008	-2.132925	0.248261
H	-0.182597	-1.214432	1.764709
N	-0.462705	-1.040172	-2.254838
H	-1.173649	-1.720496	-2.021526
H	0.463232	-1.446935	-2.194806
N	-0.080574	1.323754	-2.053628
O	-0.360537	2.386483	-1.498486
O	0.6082	1.223336	-3.063079
H	-3.225246	0.0	0.0
