16

C	0.0	0.0	0.0
C	-0.640167	0.135179	-1.368685
Cl	1.790217	0.0	0.0
H	-1.713428	0.333253	-1.090588
H	-0.28246	0.889712	0.563284
C	-0.51763	-1.233199	0.704516
H	-0.162095	-1.258292	1.737267
H	-0.185292	-2.143363	0.199357
H	-1.615006	-1.155357	0.684997
N	-0.586073	-0.972108	-2.259067
H	-1.370779	-1.576244	-2.05281
H	0.283564	-1.483858	-2.192989
N	-0.096942	1.376546	-2.020332
O	0.4699	1.295267	-3.107963
O	-0.247484	2.423905	-1.387469
H	-3.181434	0.0	0.0
