16

C	0.0	0.0	0.0
C	-0.41156	0.034806	-1.489163
Cl	1.790796	0.0	0.0
H	0.219241	0.778779	-1.979178
H	-0.302097	0.97311	0.393177
C	-0.573399	-1.098777	0.862973
H	-0.241317	-2.08085	0.530835
H	-0.261378	-0.945369	1.899974
H	-1.666331	-1.032727	0.801083
N	-1.77646	0.226953	-1.792613
H	-2.48897	0.023498	-1.02159
H	-1.931306	1.18267	-2.084927
N	0.059506	-1.260032	-2.161393
O	-0.505055	-2.303556	-1.845447
O	0.944875	-1.172691	-3.015301
H	-3.584846	0.0	0.0
