17

C	-0.349912	0.128233	-1.495786
C	0.0	0.0	0.0
F	-1.631243	0.751183	-1.608764
H	1.090625	0.0	0.0
C	0.672525	0.971172	-2.227283
H	0.590177	0.803418	-3.305875
H	0.505808	2.023223	-2.011077
H	1.654909	0.680199	-1.84693
N	-0.396281	-1.178209	-2.053697
H	-0.546708	-1.115698	-3.052045
H	-1.137733	-1.725437	-1.634481
C	-0.578259	-1.177243	0.613936
N	-1.014191	-2.177461	1.051846
N	-0.414051	1.206259	0.761218
O	-0.082273	2.295865	0.301999
O	-1.01465	1.055637	1.826982
F	2.516245	0.0	0.0
