17

C	-0.103142	-0.036091	-1.545792
C	0.0	0.0	0.0
F	-1.426589	-0.238657	-1.939528
H	1.091705	0.0	0.0
C	0.436198	1.217499	-2.192515
H	-0.20432	2.076178	-2.002725
H	0.499932	1.022118	-3.264197
H	1.428328	1.398319	-1.776807
N	0.680703	-1.160614	-2.004437
H	1.602588	-1.022294	-1.574008
H	0.292043	-2.010742	-1.606636
C	-0.547019	-1.212137	0.575586
N	-0.932717	-2.242229	0.989949
N	-0.554835	1.187915	0.684674
O	-0.095714	2.285179	0.370783
O	-1.417225	1.020271	1.550316
F	2.543912	0.0	0.0
