17

C	-0.360074	-0.059856	-1.495053
C	0.0	0.0	0.0
F	-0.078804	1.251801	-1.970595
H	1.090824	0.0	0.0
C	0.613132	-0.986218	-2.187839
H	0.525973	-0.863968	-3.272382
H	1.615904	-0.728915	-1.832947
H	0.386302	-2.021274	-1.92388
N	-1.721049	-0.387428	-1.739562
H	-2.322618	0.236832	-1.214565
H	-1.917574	-0.296319	-2.729212
C	-0.536827	-1.129028	0.732533
N	-0.922343	-2.060358	1.337299
N	-0.561024	1.262137	0.578355
O	0.219877	2.133798	0.935325
O	-1.793861	1.358374	0.636664
F	2.551662	0.0	0.0
