17

C	-0.339646	-0.051451	-1.493122
C	0.0	0.0	0.0
F	0.060664	1.213787	-1.996533
H	1.092312	0.0	0.0
C	0.57897	-1.067075	-2.140045
H	0.526204	-0.956474	-3.227415
H	0.27732	-2.079335	-1.864769
H	1.589732	-0.864901	-1.773997
N	-1.713112	-0.289113	-1.77815
H	-1.848562	-0.30088	-2.782211
H	-2.262235	0.460564	-1.376017
C	-0.497901	-1.153808	0.720862
N	-0.87327	-2.09559	1.316248
N	-0.519555	1.222419	0.683768
O	0.07525	1.583453	1.693544
O	-1.520237	1.784021	0.226063
F	2.534196	0.0	0.0
