17

C	-0.368925	-0.049673	-1.513146
C	0.0	0.0	0.0
F	-0.127521	1.246478	-1.966595
H	1.091001	0.0	0.0
C	0.612054	-0.98266	-2.186413
H	1.609867	-0.722115	-1.819647
H	0.40178	-2.021334	-1.913622
H	0.521464	-0.868637	-3.268308
N	-1.735555	-0.341496	-1.850747
H	-1.910755	-1.326521	-1.694296
H	-2.34669	0.181173	-1.230405
C	-0.540705	-1.165809	0.667262
N	-0.945723	-2.154783	1.157912
N	-0.595393	1.229496	0.589015
O	-1.823057	1.237494	0.75964
O	0.144568	2.176267	0.823716
F	2.549244	0.0	0.0
