17

C	-0.388141	-0.045238	-1.506578
C	0.0	0.0	0.0
F	-0.131288	1.244723	-1.967378
H	1.090967	0.0	0.0
C	0.566657	-0.998377	-2.18915
H	0.339886	-2.032199	-1.912357
H	1.573558	-0.75494	-1.836509
H	0.465607	-0.88478	-3.270174
N	-1.76487	-0.313675	-1.824322
H	-1.958786	-1.292274	-1.651587
H	-2.357226	0.228556	-1.202514
C	-0.53902	-1.165109	0.670065
N	-0.946647	-2.152519	1.161706
N	-0.586113	1.230852	0.597967
O	-1.808907	1.235644	0.801441
O	0.156219	2.18174	0.80658
F	2.54507	0.0	0.0
