12

C	0.0	0.0	0.0
C	-0.496559	0.314251	-1.379234
F	1.367249	0.0	0.0
H	-1.583175	0.210771	-1.390268
H	-0.218406	1.344913	-1.606467
H	-0.021661	-0.369541	-2.082444
C	-0.465981	0.942664	1.027978
N	-0.694101	1.779239	1.819521
N	-0.352038	-1.425768	0.428376
O	-0.415981	-1.639199	1.632379
O	-0.405421	-2.260082	-0.465289
Cl	-3.437233	0.0	0.0
