12

C	0.0	0.0	0.0
C	-0.509486	0.346164	-1.364972
F	1.367362	0.0	0.0
H	-1.601533	0.313281	-1.343874
H	-0.105671	-0.372653	-2.077716
H	-0.159206	1.35169	-1.608144
C	-0.435479	0.917277	1.062079
N	-0.602958	1.732099	1.890557
N	-0.358098	-1.433763	0.403913
O	-0.432579	-1.664632	1.60417
O	-0.409722	-2.254517	-0.502521
Cl	-3.50519	0.0	0.0
