12

C	0.0	0.0	0.0
C	-0.519396	0.039553	-1.404931
F	1.353995	0.0	0.0
H	-1.61106	-1.6e-05	-1.370537
H	-0.18499	0.974037	-1.860543
H	-0.109225	-0.809979	-1.950091
C	-0.438463	1.12821	0.83575
N	-0.611627	2.11752	1.443539
N	-0.364673	-1.310108	0.705766
O	-0.490834	-1.267328	1.923033
O	-0.368575	-2.314182	0.004875
Cl	-3.526602	0.0	0.0
