13

C	0.0	0.0	0.0
C	-0.453517	0.203972	-1.465952
Br	1.942689	0.0	0.0
H	0.422831	0.47832	-2.068418
H	-0.334337	0.800571	0.647759
H	-0.351494	-0.943827	0.397059
C	-1.369107	1.343422	-1.59967
N	-1.89038	2.347801	-1.921528
C	-1.063022	-1.074386	-2.041412
H	-0.345199	-1.896676	-1.952616
H	-1.316131	-0.946365	-3.098325
H	-1.95568	-1.246352	-1.439302
F	-2.474194	0.0	0.0
