13

C	0.0	0.0	0.0
C	-0.424526	-0.021059	-1.514324
Br	1.940617	0.0	0.0
H	-1.530308	-0.068618	-1.501956
H	-0.257559	-0.892504	0.530196
H	-0.26394	0.907921	0.500594
C	-0.0702	-1.237815	-2.193056
N	0.079339	-2.267014	-2.743162
C	-0.111688	1.248754	-2.274036
H	-0.684671	1.248285	-3.20823
H	-0.469768	2.101438	-1.682626
H	0.948721	1.368284	-2.487933
F	-2.071993	0.0	0.0
