16

C	-0.598666	0.001962	-1.374911
C	0.0	0.0	0.0
F	-0.272047	1.171123	-2.019637
H	1.0898	0.0	0.0
H	-1.684932	-0.10782	-1.403771
N	-0.091676	-1.098998	-2.286724
O	-0.717896	-1.205464	-3.343614
O	0.881299	-1.758478	-1.956577
N	-0.513229	-1.164833	0.726521
O	-0.3082	-1.234299	1.937764
O	-1.125157	-2.034565	0.086095
C	-0.34672	1.271431	0.759061
H	0.121762	1.212788	1.739585
H	-1.427012	1.429824	0.876858
H	0.09247	2.11432	0.226663
F	2.501052	0.0	0.0
