16

C	-0.492708	-0.016474	-1.412185
C	0.0	0.0	0.0
F	-1.862274	0.114214	-1.509633
H	1.09288	0.0	0.0
H	-0.185736	-0.910564	-1.94612
N	0.106337	1.13915	-2.174768
O	1.135811	0.900366	-2.796814
O	-0.478359	2.219662	-2.125336
N	-0.400728	-1.280991	0.621956
O	-0.621175	-1.294332	1.83457
O	-0.434486	-2.293771	-0.084774
C	-0.459879	1.17933	0.827684
H	0.013015	1.120321	1.805895
H	-0.122893	2.096968	0.346043
H	-1.545041	1.219367	0.95177
F	2.496434	0.0	0.0
