16

C	-0.599777	0.006931	-1.374333
C	0.0	0.0	0.0
F	-0.277357	1.178807	-2.014058
H	1.089745	0.0	0.0
H	-1.685419	-0.107144	-1.403628
N	-0.089553	-1.089158	-2.289671
O	-0.702847	-1.178641	-3.355671
O	0.872761	-1.76227	-1.952392
N	-0.518602	-1.162964	0.726138
O	-1.140423	-2.024728	0.085705
O	-0.309607	-1.239211	1.936623
C	-0.335023	1.273832	0.761804
H	0.117984	2.112171	0.232479
H	-1.41354	1.4465	0.878013
H	0.130478	1.20679	1.742981
F	2.501186	0.0	0.0
