16

C	-0.497536	-0.086842	-1.425443
C	0.0	0.0	0.0
F	-0.900149	1.127567	-1.913654
H	1.090891	0.0	0.0
H	-1.305364	-0.802906	-1.569877
N	0.622334	-0.581985	-2.324629
O	1.0635	0.17284	-3.181115
O	0.961794	-1.737267	-2.119752
N	-0.462843	-1.158431	0.784007
O	-0.976718	-2.122195	0.206923
O	-0.268705	-1.130779	1.999149
C	-0.342782	1.301845	0.696284
H	0.110976	2.112502	0.12755
H	-1.417363	1.487138	0.795975
H	0.1217	1.283921	1.679377
F	2.496274	0.0	0.0
