16

C	-0.321319	0.000148	-1.471034
C	0.0	0.0	0.0
F	-0.035236	-1.208695	-2.029418
H	1.091883	0.0	0.0
H	0.247782	0.79237	-1.964887
N	-1.77603	0.293314	-1.795199
O	-2.085186	1.486408	-1.769429
O	-2.533418	-0.643144	-2.021137
N	-0.599519	-1.226092	0.605693
O	0.127	-2.192504	0.813831
O	-1.808782	-1.195108	0.861225
C	-0.462113	1.231959	0.748875
H	-1.545712	1.372987	0.775584
H	-0.077305	1.174169	1.768833
H	0.006597	2.100939	0.28747
F	2.539298	0.0	0.0
