16

C	-0.533452	0.050974	-1.41124
C	0.0	0.0	0.0
F	-0.351915	1.285904	-1.952203
H	1.090924	0.0	0.0
H	-1.588089	-0.220987	-1.495521
N	0.199593	-0.950154	-2.275765
O	0.848764	-0.557054	-3.230781
O	0.025276	-2.116853	-1.938781
N	-0.574232	-1.20397	0.665154
O	0.180531	-1.957074	1.268627
O	-1.803355	-1.348131	0.619679
C	-0.450483	1.215912	0.793473
H	-1.534296	1.372817	0.777149
H	0.062405	2.089169	0.390558
H	-0.116331	1.088591	1.825806
F	2.547951	0.0	0.0
