16

C	-0.406878	-0.00024	-1.443912
C	0.0	0.0	0.0
F	0.0939	-1.085164	-2.088999
H	1.091888	0.0	0.0
H	-0.055457	0.911708	-1.929483
N	-1.910341	-0.015784	-1.683715
O	-2.486244	1.042009	-1.433461
O	-2.436912	-1.040108	-2.09681
N	-0.470801	-1.29197	0.605882
O	0.367355	-2.095416	1.004039
O	-1.694243	-1.465797	0.690321
C	-0.54336	1.138964	0.834382
H	-1.629473	1.112547	0.934351
H	-0.248521	2.092764	0.392197
H	-0.080219	1.07648	1.822058
F	2.549598	0.0	0.0
