16

C	-0.319983	0.034216	-1.467299
C	0.0	0.0	0.0
F	-0.017493	-1.153186	-2.053778
H	1.09186	0.0	0.0
H	0.262137	0.830707	-1.933455
N	-1.765897	0.337768	-1.820398
O	-2.484168	-0.562439	-2.233835
O	-2.103067	1.509576	-1.653662
N	-0.604072	-1.223601	0.591796
O	-1.840128	-1.297105	0.573288
O	0.132906	-2.07497	1.082342
C	-0.453154	1.209983	0.790137
H	0.020419	2.096644	0.366911
H	-0.079295	1.101516	1.810779
H	-1.53444	1.348608	0.805986
F	2.551312	0.0	0.0
