18

C	-0.451945	0.186923	-1.437199
C	0.0	0.0	0.0
F	-1.797781	0.486961	-1.492948
H	1.090268	0.0	0.0
C	0.377173	1.284322	-2.059786
H	0.081924	2.223312	-1.593932
H	1.421368	1.073893	-1.817514
H	0.213228	1.329886	-3.139036
N	-0.278215	-1.063449	-2.291544
O	-1.290484	-1.649279	-2.660356
O	0.872508	-1.357883	-2.582709
N	-0.500389	-1.28137	0.604953
O	-0.997821	-1.233662	1.732962
O	-0.336971	-2.320642	-0.030455
N	-0.399634	1.152746	0.746366
H	0.248419	1.263313	1.515433
H	-1.335358	1.045987	1.118014
F	2.547748	0.0	0.0
