18

C	-0.491285	0.004639	-1.45625
C	0.0	0.0	0.0
F	0.268719	-0.820346	-2.225784
H	1.090479	0.0	0.0
C	-1.944799	-0.350287	-1.6828
H	-2.070689	-1.407389	-1.447076
H	-2.605732	0.240007	-1.05131
H	-2.206599	-0.190444	-2.730993
N	-0.255134	1.411821	-1.998983
O	-1.131893	2.244858	-1.757788
O	0.771053	1.621186	-2.629694
N	-0.554167	-1.277783	0.571225
O	-0.047235	-2.327531	0.174443
O	-1.51419	-1.220203	1.344815
N	-0.3878	1.106381	0.805458
H	0.413057	1.715416	0.890597
H	-1.203107	1.614734	0.500203
F	2.530646	0.0	0.0
