18

C	-0.350201	0.230766	-1.474841
C	0.0	0.0	0.0
F	-1.63846	0.72005	-1.616705
H	1.08984	0.0	0.0
C	0.651336	1.190816	-2.064589
H	0.571688	1.221058	-3.15246
H	0.437963	2.183662	-1.663696
H	1.644751	0.87768	-1.724506
N	-0.342642	-1.066405	-2.269402
O	0.728965	-1.419196	-2.744735
O	-1.408367	-1.664264	-2.369851
N	-0.595141	-1.282969	0.495768
O	-1.547675	-1.240956	1.27229
O	-0.078448	-2.318831	0.075556
N	-0.39843	1.092131	0.825068
H	0.383013	1.723416	0.934047
H	-1.234801	1.561583	0.517096
F	2.587802	0.0	0.0
