15

C	-0.229938	0.024833	-1.498177
C	0.0	0.0	0.0
Br	-2.188046	0.421546	-1.935512
H	1.097241	0.0	0.0
H	-0.329336	0.939141	0.449241
N	0.559219	1.114478	-1.989574
H	1.488414	1.023482	-1.551069
H	0.664407	1.040477	-2.995616
C	0.078311	-1.320072	-2.132649
H	-0.015331	-1.256623	-3.220354
H	1.116944	-1.554333	-1.868045
H	-0.579771	-2.110253	-1.766737
C	-0.563345	-1.136892	0.69343
N	-1.00393	-2.065888	1.263433
H	2.739002	0.0	0.0
