16

C	-0.436922	-0.001475	-1.452257
C	0.0	0.0	0.0
Cl	-2.294703	0.368979	-1.519996
H	1.093724	0.0	0.0
H	-0.007897	0.853551	-1.966369
N	-0.110168	-1.199825	-2.098053
H	-0.275892	-1.158894	-3.09266
H	-0.570361	-2.003973	-1.698345
C	-0.508109	-1.156332	0.827649
H	-0.057712	-2.076076	0.449573
H	-0.180985	-1.038619	1.859277
H	-1.596844	-1.230564	0.809601
N	-0.39645	1.317441	0.5973
O	-0.95521	1.324867	1.693218
O	-0.117385	2.321965	-0.053416
Cl	3.342033	0.0	0.0
