16

C	-0.474323	-0.04757	-1.444359
C	0.0	0.0	0.0
Cl	0.002139	1.527827	-2.265493
H	1.089848	0.0	0.0
H	0.154315	-0.78578	-1.944035
N	-1.846221	-0.379863	-1.615349
H	-2.075824	-0.423637	-2.599436
H	-2.417166	0.324246	-1.165174
C	-0.46993	-1.212236	0.791958
H	-0.022351	-1.178539	1.78756
H	-0.111718	-2.115519	0.294535
H	-1.556967	-1.254497	0.861316
N	-0.508909	1.215391	0.699763
O	0.247364	1.816374	1.451872
O	-1.6995	1.508519	0.52518
Cl	3.385011	0.0	0.0
