16

C	-0.473808	-0.06162	-1.443982
C	0.0	0.0	0.0
Cl	0.001883	1.506319	-2.281777
H	1.089835	0.0	0.0
H	0.155766	-0.803949	-1.936161
N	-1.844921	-0.39679	-1.612362
H	-2.07403	-0.451765	-2.595805
H	-2.417284	0.310595	-1.169681
C	-0.469164	-1.204824	0.803249
H	-1.555922	-1.247911	0.872454
H	-0.109691	-2.11202	0.314358
H	-0.022034	-1.161341	1.79871
N	-0.510827	1.220543	0.688685
O	0.241393	1.823342	1.443823
O	-1.699734	1.515535	0.503626
Cl	3.382891	0.0	0.0
