20

C	-0.173677	0.01521	-1.516697
C	0.0	0.0	0.0
Br	-2.107864	-0.031729	-2.057874
H	1.094031	0.0	0.0
C	0.47222	1.236147	-2.153756
H	-0.039511	2.161824	-1.903531
H	0.486034	1.116703	-3.239128
H	1.48956	1.265272	-1.752406
C	0.51414	-1.232218	-2.060872
H	0.004455	-2.151428	-1.769652
H	1.525085	-1.205293	-1.631172
H	0.559914	-1.193088	-3.152554
C	-0.525487	-1.220963	0.722091
H	-1.589212	-1.396087	0.545448
H	0.053495	-2.090786	0.410905
H	-0.370366	-1.097695	1.795016
N	-0.526095	1.232206	0.637294
O	0.043973	2.299895	0.411101
O	-1.508261	1.135258	1.380663
F	2.627175	0.0	0.0
