20

C	-0.414345	-0.034707	-1.476824
C	0.0	0.0	0.0
Br	0.12441	1.691731	-2.306192
H	1.091568	0.0	0.0
C	0.454067	-1.106162	-2.133846
H	1.479506	-0.969583	-1.76916
H	0.405935	-1.034519	-3.222994
H	0.08941	-2.098148	-1.842734
C	-1.899223	-0.196369	-1.767094
H	-2.072387	-0.208055	-2.846375
H	-2.25515	-1.144073	-1.348582
H	-2.479148	0.613567	-1.322355
C	-0.458702	-1.220938	0.786078
H	-0.119341	-1.10249	1.818633
H	-1.540715	-1.366837	0.791585
H	0.041906	-2.106343	0.392875
N	-0.551285	1.204413	0.683965
O	-1.762215	1.208322	0.953986
O	0.207334	2.129031	0.959469
F	2.630585	0.0	0.0
