20

C	-0.394107	0.045553	-1.493656
C	0.0	0.0	0.0
Br	0.091488	-1.7259	-2.258769
H	1.090682	0.0	0.0
C	-1.8814	0.221447	-1.75314
H	-2.085473	0.209467	-2.827422
H	-2.465116	-0.572465	-1.283905
H	-2.214962	1.180898	-1.344902
C	0.479917	1.058665	-2.2216
H	0.151087	2.068728	-1.969046
H	1.504579	0.925677	-1.864686
H	0.407953	0.925295	-3.303722
C	-0.533623	-1.157198	0.819217
H	-1.612679	-1.30584	0.736815
H	-0.29624	-0.980936	1.869975
H	-0.011852	-2.061618	0.511255
N	-0.484117	1.280939	0.601581
O	0.152546	2.310482	0.378644
O	-1.513439	1.261644	1.288863
F	2.613174	0.0	0.0
