20

C	-0.355957	-0.089552	-1.497368
C	0.0	0.0	0.0
Br	-0.066243	1.707336	-2.301735
H	1.091573	0.0	0.0
C	0.695118	-1.004644	-2.12605
H	0.665836	-0.940706	-3.216561
H	0.482052	-2.041737	-1.839646
H	1.676982	-0.724931	-1.720548
C	-1.780608	-0.489379	-1.843743
H	-2.502402	0.193386	-1.396565
H	-1.972666	-1.499663	-1.467249
H	-1.916493	-0.498225	-2.928173
C	-0.468405	-1.210833	0.795722
H	-1.554579	-1.321532	0.818436
H	-0.00806	-2.110787	0.385233
H	-0.101419	-1.107412	1.820668
N	-0.589947	1.203537	0.642913
O	0.160001	2.073579	1.075701
O	-1.825207	1.254993	0.728821
F	2.657124	0.0	0.0
