20

C	-0.18193	0.005771	-1.515658
C	0.0	0.0	0.0
Br	-2.116701	-0.09319	-2.053026
H	1.094049	0.0	0.0
C	0.422792	1.245513	-2.155784
H	-0.107881	2.157383	-1.890104
H	0.418778	1.135879	-3.24366
H	1.447802	1.299169	-1.773043
C	0.538685	-1.22306	-2.060474
H	0.589632	-1.179526	-3.1509
H	0.049028	-2.154666	-1.776853
H	1.545004	-1.175355	-1.624401
C	-0.529398	-1.208507	0.739275
H	0.000565	-2.097038	0.394534
H	-1.606059	-1.344178	0.617162
H	-0.312793	-1.09675	1.803682
N	-0.521863	1.239975	0.626735
O	0.089734	2.293487	0.438307
O	-1.543288	1.163146	1.320125
F	2.626618	0.0	0.0
