12

C	-0.491817	0.057933	-1.426669
C	0.0	0.0	0.0
F	-0.037429	-1.000042	-2.178096
H	1.089197	0.0	0.0
H	-0.070236	0.971599	-1.860193
H	-0.3252	0.887421	0.547271
C	-1.961571	0.13814	-1.53456
N	-3.122389	0.28428	-1.625435
N	-0.513786	-1.1675	0.758178
O	-0.260692	-1.184803	1.95844
O	-1.146924	-2.03129	0.1498
Br	3.440403	0.0	0.0
