12

C	-0.554451	0.00053	-1.406008
C	0.0	0.0	0.0
F	0.092697	0.920956	-2.198614
H	1.088259	0.0	0.0
H	-1.616108	0.262633	-1.408541
H	-0.334116	-0.874137	0.562192
C	-0.410834	-1.339816	-2.002907
N	-0.384853	-2.410096	-2.483681
N	-0.47428	1.186506	0.765417
O	-1.140682	2.042057	0.179795
O	-0.163111	1.223706	1.950696
Br	3.439628	0.0	0.0
