12

C	-0.5571	-0.043078	-1.405838
C	0.0	0.0	0.0
F	0.156106	0.761531	-2.263217
H	1.088258	0.0	0.0
H	-1.594047	0.306385	-1.423485
H	-0.338819	-0.848228	0.596423
C	-0.530092	-1.428748	-1.911241
N	-0.565225	-2.526161	-2.326598
N	-0.458019	1.219009	0.720175
O	-0.946013	2.141083	0.065037
O	-0.301208	1.22383	1.93667
Br	3.430288	0.0	0.0
