12

C	-0.504509	-0.057605	-1.415052
C	0.0	0.0	0.0
F	-1.891718	-0.205823	-1.432816
H	1.092114	0.0	0.0
H	-0.073105	-0.958029	-1.86382
H	-0.346463	-0.879433	0.541897
C	-0.15761	1.077298	-2.283412
N	0.078097	1.903488	-3.082204
N	-0.503764	1.17095	0.757637
O	-0.713611	2.215459	0.145015
O	-0.653583	1.016954	1.967402
Br	3.414086	0.0	0.0
