12

C	-0.595639	-0.02714	-1.39694
C	0.0	0.0	0.0
F	-0.427192	1.23836	-1.942927
H	1.088269	0.0	0.0
H	-1.67079	-0.222021	-1.355182
H	-0.345646	0.894833	0.518332
C	0.003677	-1.015355	-2.304499
N	0.40214	-1.792934	-3.087493
N	-0.466977	-1.161386	0.789937
O	-0.946124	-2.118082	0.174889
O	-0.332543	-1.10247	2.006952
Br	3.41958	0.0	0.0
