15

C	0.0	0.0	0.0
C	-0.628475	-0.026141	-1.372919
F	1.41257	0.0	0.0
H	-1.704769	-0.140648	-1.151223
H	-0.287232	0.91404	0.528591
N	-0.443833	-1.135769	0.721498
H	0.089383	-1.242511	1.571756
H	-0.337134	-1.948851	0.129636
N	-0.160506	-1.195142	-2.097912
H	-0.823843	-1.425458	-2.827113
H	0.724249	-0.952548	-2.530066
N	-0.324093	1.218315	-2.100108
H	-0.990849	1.270514	-2.86588
H	-0.571282	1.99279	-1.490035
H	-3.809716	0.0	0.0
