15

C	0.0	0.0	0.0
C	-0.463307	-0.056558	-1.480865
F	1.384397	0.0	0.0
H	0.44124	-0.058238	-2.09934
H	-0.310282	0.963298	0.409303
N	-0.483396	-1.031027	0.863576
H	-0.482517	-1.890773	0.321777
H	-1.473162	-0.806191	1.003275
N	-1.210797	1.172706	-1.758536
H	-2.063337	1.087913	-1.190046
H	-1.516546	1.141423	-2.727701
N	-1.179688	-1.313929	-1.721319
H	-1.378149	-1.372075	-2.715582
H	-2.080914	-1.189958	-1.243931
H	-3.239163	0.0	0.0
