15

C	0.0	0.0	0.0
C	-0.398554	0.034015	-1.478485
F	1.414588	0.0	0.0
H	-0.165707	-0.979348	-1.864855
H	-0.319387	0.915665	0.502112
N	-0.519855	-1.123864	0.660478
H	-0.446063	-1.084801	1.664325
H	-0.150342	-1.986847	0.290667
N	0.416658	0.970787	-2.270124
H	1.360196	1.000222	-1.901936
H	-0.021958	1.874283	-2.126856
N	-1.76583	0.442828	-1.618457
H	-2.148963	0.083385	-2.483811
H	-2.440636	0.170042	-0.867602
H	-3.973458	0.0	0.0
