15

C	0.0	0.0	0.0
C	-0.475507	-0.004008	-1.455193
F	1.382522	0.0	0.0
H	-1.5396	-0.257123	-1.419117
H	-0.290479	0.937984	0.491692
N	-0.506103	-1.177838	0.643536
H	-0.295539	-1.1213	1.63638
H	-1.532552	-1.054633	0.562196
N	0.224732	-0.984839	-2.274269
H	1.216864	-0.830903	-2.129874
H	0.019076	-1.890615	-1.868922
N	-0.237093	1.3162	-2.042335
H	-0.91931	1.944647	-1.627848
H	-0.488041	1.227808	-3.021795
H	-3.140299	0.0	0.0
