18

C	-0.598451	0.015105	-1.407601
C	0.0	0.0	0.0
Cl	0.363446	1.104559	-2.440077
H	1.08629	0.0	0.0
N	-0.378193	-1.369693	-2.030833
O	0.621974	-1.980401	-1.689453
O	-1.191202	-1.726641	-2.878151
C	-2.055432	0.40272	-1.50233
H	-2.172188	1.422795	-1.134664
H	-2.382813	0.361779	-2.538855
H	-2.656514	-0.277559	-0.900225
N	-0.482898	-1.152013	0.800492
O	-1.349776	-1.897803	0.332218
O	0.040204	-1.286422	1.901104
N	-0.476167	1.218128	0.71157
O	-1.371186	1.107153	1.553202
O	0.0414	2.277679	0.371063
F	2.446874	0.0	0.0
