18

C	-0.378767	-0.043471	-1.476941
C	0.0	0.0	0.0
Cl	-2.040023	-0.599873	-1.769606
H	1.087137	0.0	0.0
N	-0.224271	1.374613	-2.04643
O	-0.939932	1.704063	-2.982049
O	0.702786	2.023356	-1.578128
C	0.638407	-0.873514	-2.245377
H	1.622315	-0.59229	-1.854643
H	0.530761	-0.67806	-3.31311
H	0.473224	-1.929128	-2.044167
N	-0.46296	-1.235634	0.680517
O	-1.290159	-1.144194	1.585407
O	0.030298	-2.285063	0.27652
N	-0.559314	1.149683	0.743667
O	-0.060024	1.359889	1.845112
O	-1.470997	1.804189	0.234037
F	2.501091	0.0	0.0
