18

C	-0.297638	0.0101	-1.491079
C	0.0	0.0	0.0
Cl	0.263239	-1.54465	-2.133374
H	1.089265	0.0	0.0
N	-1.782978	0.179139	-1.820162
O	-2.350954	1.034254	-1.147286
O	-2.276072	-0.44557	-2.746825
C	0.476162	1.112111	-2.194035
H	1.50176	1.032617	-1.819339
H	0.430639	0.949581	-3.273199
H	0.065676	2.085669	-1.936383
N	-0.593949	-1.170593	0.685596
O	-1.642452	-1.634354	0.232229
O	-0.006378	-1.579703	1.681048
N	-0.449348	1.20586	0.745884
O	0.033311	2.275906	0.391033
O	-1.214768	1.053522	1.695342
F	2.491899	0.0	0.0
