18

C	-0.532029	-0.072882	-1.420324
C	0.0	0.0	0.0
Cl	-2.327693	-0.044692	-1.541336
H	1.089188	0.0	0.0
N	0.017414	1.139493	-2.224382
O	1.248091	1.126391	-2.337572
O	-0.751146	1.826682	-2.868741
C	0.044393	-1.320839	-2.1033
H	-0.141668	-1.271161	-3.179834
H	-0.445771	-2.220159	-1.714175
H	1.127878	-1.351045	-1.884226
N	-0.455258	-1.228038	0.715067
O	0.338564	-2.172228	0.726626
O	-1.56753	-1.193381	1.323212
N	-0.420207	1.185793	0.758852
O	-0.428549	1.111205	1.992696
O	-0.608475	2.215271	0.098352
F	2.442861	0.0	0.0
