18

C	-0.509916	0.028905	-1.444497
C	0.0	0.0	0.0
Cl	0.376942	1.287296	-2.307738
H	1.117165	0.0	0.0
N	-0.145145	-1.321238	-2.103028
O	-0.470421	-2.314425	-1.459774
O	0.318258	-1.329915	-3.233699
C	-2.001092	0.179779	-1.693461
H	-2.541217	-0.617048	-1.18376
H	-2.326843	1.144559	-1.312575
H	-2.185062	0.13528	-2.769245
N	-0.543285	-1.138632	0.808997
O	-1.761458	-1.152181	1.005729
O	0.253251	-1.9539	1.253179
N	-0.41812	1.193304	0.78352
O	-0.20506	1.120366	1.992366
O	-0.881328	2.181726	0.21499
F	2.453277	0.0	0.0
