18

C	-0.512167	0.017322	-1.430797
C	0.0	0.0	0.0
Cl	-2.240834	0.322314	-1.563879
H	1.089155	0.0	0.0
N	0.230623	1.109002	-2.255867
O	1.446879	1.102359	-2.129282
O	-0.427829	1.814857	-3.008448
C	-0.171508	-1.2928	-2.121621
H	0.893281	-1.497462	-1.990219
H	-0.760238	-2.105834	-1.694545
H	-0.420061	-1.210096	-3.182503
N	-0.455725	-1.243299	0.691389
O	-1.638191	-1.324757	1.019368
O	0.405852	-2.10185	0.868313
N	-0.435271	1.190885	0.78115
O	-0.46443	2.245488	0.154165
O	-0.566758	1.055825	1.991677
F	2.501735	0.0	0.0
