18

C	-0.474926	-0.005025	-1.438225
C	0.0	0.0	0.0
Cl	0.134646	-1.436516	-2.299881
H	1.089527	0.0	0.0
N	-1.998017	-0.102244	-1.550277
O	-2.538626	-0.943685	-0.842955
O	-2.562061	0.631312	-2.353807
C	0.062267	1.226614	-2.132982
H	1.133947	1.245241	-1.920343
H	-0.421901	2.122069	-1.746864
H	-0.120464	1.16378	-3.204223
N	-0.441984	-1.149878	0.844618
O	-1.172153	-0.920832	1.807645
O	0.000976	-2.248512	0.534387
N	-0.496737	1.216871	0.700562
O	-1.57109	1.707102	0.335635
O	0.199726	1.647451	1.61313
F	2.473948	0.0	0.0
