18

C	-0.594639	0.001469	-1.411263
C	0.0	0.0	0.0
Cl	0.447978	0.95618	-2.497164
H	1.087239	0.0	0.0
N	-0.481925	-1.425559	-1.964688
O	0.479548	-2.086896	-1.602066
O	-1.329095	-1.770166	-2.782502
C	-2.018595	0.491367	-1.533368
H	-2.345524	0.427312	-2.568844
H	-2.669391	-0.1163	-0.905408
H	-2.055967	1.533507	-1.215264
N	-0.498873	-1.141676	0.810799
O	0.123857	-1.383558	1.837527
O	-1.493636	-1.762622	0.423465
N	-0.444544	1.226894	0.709893
O	-1.141476	1.121492	1.720334
O	-0.074238	2.289535	0.219488
F	2.445115	0.0	0.0
