16

C	0.0	0.0	0.0
C	-0.496116	0.027729	-1.461732
Br	1.966484	0.0	0.0
H	-1.607717	0.032356	-1.258275
N	-0.515546	1.058225	0.808632
H	-1.552857	0.886249	0.737215
H	-0.305546	1.938584	0.344762
C	-0.359541	-1.290359	0.614997
N	-0.504121	-2.333953	1.138309
C	-0.095711	-1.16198	-2.327123
H	-0.447761	-2.085181	-1.862242
H	0.987508	-1.218556	-2.45611
H	-0.560422	-1.076726	-3.312604
C	-0.108627	1.287379	-2.078041
N	0.221033	2.291231	-2.595415
H	-2.854014	0.0	0.0
