16

C	0.0	0.0	0.0
C	-0.444168	-0.041996	-1.467042
Br	1.962787	0.0	0.0
H	0.112599	-0.861349	-1.945302
N	-0.390779	1.229108	0.65323
H	-0.071045	1.191074	1.618673
H	-1.420785	1.143142	0.65368
C	-0.414261	-1.222107	0.738795
N	-0.471598	-2.139128	1.481037
C	-0.148401	1.259981	-2.209332
H	0.905614	1.53878	-2.139557
H	-0.413973	1.109917	-3.258851
H	-0.743646	2.078868	-1.803055
C	-1.902701	-0.375187	-1.604439
N	-2.653811	-0.767323	-2.453581
H	-2.431985	0.0	0.0
