16

C	0.0	0.0	0.0
C	-0.553057	-0.034488	-1.417635
Br	2.025642	0.0	0.0
H	-1.666402	-0.030268	-1.162953
N	-0.553849	1.122814	0.660055
H	-0.33372	1.0813	1.651442
H	-1.598308	0.936779	0.551937
C	-0.274794	-1.294248	0.66672
N	-0.445617	-2.305278	1.245284
C	-0.207494	-1.273424	-2.234674
H	-0.575326	-2.166312	-1.72456
H	0.870286	-1.367009	-2.389248
H	-0.696266	-1.21389	-3.209759
C	-0.220505	1.188062	-2.130824
N	0.024709	2.128463	-2.794165
H	-2.880893	0.0	0.0
