16

C	0.0	0.0	0.0
C	-0.537072	0.006109	-1.446677
Br	1.966182	0.0	0.0
H	-1.64721	0.002993	-1.196774
N	-0.523757	1.055513	0.811188
H	-1.560884	0.866932	0.749449
H	-0.34048	1.936148	0.333535
C	-0.352498	-1.293419	0.618762
N	-0.522728	-2.352849	1.099161
C	-0.168558	-1.193508	-2.310513
H	-0.512502	-2.110061	-1.825868
H	0.909772	-1.258958	-2.473776
H	-0.666382	-1.115265	-3.280338
C	-0.203314	1.264379	-2.089298
N	0.053272	2.279105	-2.626903
H	-2.880718	0.0	0.0
