14
Coordinates from ORCA-job run
  C   0.85677888106353      0.35283411839717     -0.22589879833284
  C   -0.45332129589363      0.18320896377070      0.04109647436042
  H   1.20973525490276      1.35690769211650     -0.43569742222325
  C   1.83879495457444     -0.78424005598062     -0.28313066263262
  H   1.88456966551772     -1.33740271197720      0.66338893331593
  H   2.84737511563063     -0.42340601417268     -0.48839260336677
  H   1.58392031848212     -1.50544709203756     -1.06808681912638
  N   -1.03448316603372     -1.08272176858990      0.21565265377280
  H   -0.37466667565352     -1.80205412485877      0.47422114423582
  H   -1.82211693921388     -1.07518199505516      0.84754037134373
  C   -1.43882758463904      1.31325509921119      0.05953816203679
  H   -0.94828832878717      2.26386454113821     -0.14972316935315
  H   -1.92979014789961      1.39123918682765      1.03632196000914
  H   -2.22068005205063      1.14914416121046     -0.68783022403961
