14
Coordinates from ORCA-job run
  C   0.89962709171978      0.31719322878947     -0.01770191443022
  C   -0.44288141082557      0.20830114099908      0.03070831577914
  H   1.33612678152238      1.30469711289892      0.08760122427005
  C   1.81210290712342     -0.85579469856469     -0.24518658241358
  H   1.69160972007424     -1.62708746492501      0.52602875150168
  H   1.62825194023322     -1.33484079734092     -1.21366557948165
  H   2.85884393854401     -0.54987958587051     -0.22679936518515
  N   -1.11434064138192     -1.00178088110841     -0.20356097368075
  H   -1.98609702004178     -1.07883848699555      0.30008474689308
  H   -0.54212186522942     -1.82094882453547     -0.05827881045820
  C   -1.35381624387502      1.38446039349508      0.21867203476554
  H   -1.97642141551023      1.26060491444376      1.11217501556690
  H   -2.02688252254943      1.48675714839307     -0.63770724731345
  H   -0.78400125980368      2.30715680032117      0.32863038418661
