14
Coordinates from ORCA-job run
  C   0.87400124411163      0.36077160444280     -0.12578962340909
  C   -0.44346838427092      0.18516008181753      0.09774831734836
  H   1.25388512166589      1.37607298445721     -0.16712397477534
  C   1.84139659329604     -0.77947154594874     -0.28174748148854
  H   1.88709315000239     -1.40214008482069      0.61905420352256
  H   1.57233250292252     -1.43737446022995     -1.11772692595499
  H   2.85077242387879     -0.41527684207043     -0.47710896263543
  N   -1.01946530937323     -1.08190273212492      0.27958993517425
  H   -0.47397805873647     -1.83772794033134     -0.10871019453154
  H   -1.97800557449779     -1.13312542070696     -0.03375766870131
  C   -1.40066673848180      1.32309199066723      0.29103959132345
  H   -1.87546809433322      1.25929508515919      1.27458754602937
  H   -2.19794304382802      1.29815775295385     -0.46062910488268
  H   -0.88948583235580      2.28246952673521      0.21057434298093
