14
Coordinates from ORCA-job run
  C   0.76117892406497      0.19323026822236     -0.46147638270183
  C   -0.45481741316442      0.20252797711790      0.11516251669484
  H   0.99478816282070      1.01054427044525     -1.13894304128387
  C   1.82846274809938     -0.85420689032867     -0.31128809376655
  H   2.01787236636517     -1.36668935458697     -1.25951375118406
  H   2.77819226242585     -0.42066513997198      0.01395987739982
  H   1.56276068930527     -1.62836834672916      0.41146609411522
  N   -0.88613209806898     -0.70179150446691      1.11984716228715
  H   -1.81761876381951     -1.05032719173768      0.92700102327679
  H   -0.25586802897141     -1.48565027931706      1.21574561601939
  C   -1.43997079945003      1.31113993125261     -0.11720109615613
  H   -2.42051475557812      0.92291071113413     -0.41286187622780
  H   -1.57395191440242      1.88657391829311      0.80173164222477
  H   -1.09438137962646      1.98277163067308     -0.90462969069773
