14
Coordinates from ORCA-job run
  C   0.61102776693342     -0.71583367575451     -0.33733283213066
  C   -0.57047902262068     -0.23439781705870      0.09863631028360
  H   0.63596331712369     -1.76349142522948     -0.64106494750922
  C   1.91829833160422      0.01402857432970     -0.43136444731510
  H   2.25549278936139      0.09669818745658     -1.46991971399452
  H   1.86852966291366      1.02195698381431     -0.01968739251764
  H   2.70200786544374     -0.52095260892930      0.11408289275834
  N   -1.69458908994622     -1.06814036406415      0.28039377778441
  H   -1.58695755818856     -1.96815200179809     -0.16716146189956
  H   -2.55461788248935     -0.63064534970398     -0.02123008925730
  C   -0.83090349349644      1.17078688089896      0.55824324323770
  H   0.03122123763113      1.82225167465880      0.43485244895627
  H   -1.66059534819274      1.60655744741846     -0.00960739482754
  H   -1.12539857607727      1.16833349396139      1.61115960643123
