14
Coordinates from ORCA-job run
  C   0.87980650945429      0.35752554524375     -0.09118714420022
  C   -0.45086237498532      0.18866471243536      0.04046218865119
  H   1.26928924468410      1.36997317666450     -0.08230044041053
  C   1.83846858490570     -0.78403166402356     -0.28597729336167
  H   2.86750958746287     -0.42768659938988     -0.34710495412930
  H   1.79847969650885     -1.50203571638431      0.54290825716557
  H   1.62963266385978     -1.34038663441701     -1.20690282198169
  N   -1.07031400117654     -1.06611541023707     -0.06806387802158
  H   -1.90879296472221     -1.14719439962076      0.48863445850410
  H   -0.44970555863188     -1.84438160719745      0.10134873177265
  C   -1.41051082980592      1.33030018389995      0.19623367677254
  H   -1.97395976287264      1.24515204124394      1.13246683406971
  H   -0.88493901936384      2.28525276734196      0.20290085181538
  H   -2.13510177531724      1.33396360444057     -0.62341846664614
