14
Coordinates from ORCA-job run
  C   0.70568306990309     -0.69967846206666      0.10215311392141
  C   -0.55344282860733     -0.22450083122907      0.18317214480979
  H   0.85852495857142     -1.74194093239368      0.38690426721405
  C   1.94323229561826      0.04551802623519     -0.30161080630157
  H   1.74800293350020      1.09210329415776     -0.53515619837421
  H   2.40899262298477     -0.40837225156801     -1.18235553372566
  H   2.69038960679543      0.02414919808639      0.49835848573144
  N   -1.60633210752847     -0.99047711034989      0.72671288291896
  H   -1.37158247375335     -1.97006648030429      0.81211184421554
  H   -2.47079878235161     -0.88243690333391      0.21365977100652
  C   -0.98935665406040      1.17037422705607     -0.16068444694404
  H   -1.79704364516114      1.14364373808474     -0.90086596813722
  H   -1.38347158071775      1.66671747758595      0.73025546247187
  H   -0.18379741519311      1.77396701003942     -0.57265501880688
