14
Coordinates from ORCA-job run
  C   0.88751965680095      0.28799057044952      0.19917344272077
  C   -0.44100699107359      0.21384454537697     -0.01525250476504
  H   1.29734353592120      1.23209087904652      0.54203623859257
  C   1.82681149780838     -0.85842744377876     -0.05354619910974
  H   1.56718457059159     -1.74311716267253      0.54145077139851
  H   1.82512076842315     -1.16376720864087     -1.10617997585427
  H   2.85197171768325     -0.59137586185707      0.20603572771193
  N   -1.05869189755299     -0.92060388088383     -0.56435232440025
  H   -0.52166319995255     -1.76919474758097     -0.45886355784106
  H   -2.00703332432765     -1.05340523316273     -0.24403519539520
  C   -1.37146865851148      1.37027010848187      0.19839136882407
  H   -1.87763024303815      1.62977759087047     -0.73611691685452
  H   -2.14578364301265      1.12110807973216      0.93299997598614
  H   -0.83167378975946      2.24580976461926      0.55925914898609
