14
Coordinates from ORCA-job run
  C   0.74706306058754     -0.59749316402526      0.28970123325224
  C   -0.53952500222531     -0.19676568995240      0.24464268243525
  H   0.96290090486832     -1.50183733956574      0.86088041750672
  C   1.93849827345531      0.07657453643746     -0.32358034946946
  H   1.67924111318627      0.99858265243520     -0.84391780516711
  H   2.67981554949799      0.33178315146324      0.44061100306175
  H   2.43871173996473     -0.57953318724080     -1.04331046186393
  N   -1.54665240806609     -0.83740883048352      0.99693504574560
  H   -1.25132548545414     -1.73365576262957      1.35948966652963
  H   -2.41274880601494     -0.93591038284949      0.48483097421979
  C   -1.05882051724326      1.01180077701448     -0.47877474866164
  H   -1.48544447943250      1.71827574430223      0.23842268724469
  H   -1.86132092232606      0.72543375499724     -1.16794027637760
  H   -0.29139302079788      1.51915374009693     -1.05899006845594
