14
Coordinates from ORCA-job run
  C   0.89060962363309      0.28298289037784      0.19245802900221
  C   -0.44390798565451      0.20740778577662      0.02003809968607
  H   1.31405299849812      1.23683957810221      0.48864273139927
  C   1.80903311004564     -0.89634981682900      0.03123955585441
  H   1.57501315546516     -1.69636596585543      0.74287705350384
  H   2.84905189673742     -0.61034244109651      0.19299716619524
  H   1.75062543559797     -1.33001191018567     -0.97508601581205
  N   -1.10587152380624     -1.00000191197006     -0.25369696288325
  H   -0.50966559793098     -1.70996057009333     -0.65399542129370
  H   -1.94122940401046     -0.87918418661497     -0.80804829111765
  C   -1.36386338641375      1.37480081286200      0.21856835260101
  H   -1.92334825996533      1.59441550082426     -0.69791616910428
  H   -2.09347694593349      1.15558147595881      1.00374380069114
  H   -0.80702311626263      2.26918875874325      0.49817807127774
