15

C	-0.505948	0.062256	-1.452785
C	0.0	0.0	0.0
Br	0.079232	-1.480169	-2.514786
H	1.095196	0.0	0.0
H	-1.600253	-0.004287	-1.457297
C	-0.133352	1.278862	-2.165001
N	0.104427	2.27818	-2.735731
N	-0.430149	-1.208842	0.689849
H	0.2012	-1.962363	0.449825
H	-1.366697	-1.480174	0.410047
C	-0.507401	1.2281	0.748119
H	-0.142237	1.163329	1.773385
H	-1.604624	1.255454	0.773508
H	-0.138014	2.155085	0.304879
Cl	3.432181	0.0	0.0
