15

C	-0.320179	0.017891	-1.503387
C	0.0	0.0	0.0
Br	-2.247326	0.320793	-1.879812
H	1.098455	0.0	0.0
H	0.19699	0.845879	-1.992049
C	0.030025	-1.237764	-2.155019
N	0.307259	-2.255313	-2.673411
N	-0.473999	-1.171878	0.708568
H	0.095955	-1.973315	0.467664
H	-1.440511	-1.371834	0.473392
C	-0.465673	1.270556	0.690081
H	-0.156426	2.160511	0.134656
H	-0.005104	1.302083	1.677896
H	-1.552942	1.288852	0.807944
Cl	3.391322	0.0	0.0
