15

C	-0.562448	-0.134293	-1.41235
C	0.0	0.0	0.0
Br	0.088567	-1.748062	-2.322338
H	1.095348	0.0	0.0
H	-1.64363	-0.27991	-1.334513
C	-0.295955	1.012042	-2.271407
N	-0.154245	1.954495	-2.9584
N	-0.541079	-1.125415	0.782431
H	-0.261942	-0.963611	1.745595
H	-0.03132	-1.958064	0.500284
C	-0.494456	1.304045	0.610913
H	-0.108319	1.385165	1.630637
H	-0.122988	2.166716	0.055954
H	-1.589066	1.330611	0.649493
Cl	3.458968	0.0	0.0
