15

C	-0.507176	-0.00159	-1.456386
C	0.0	0.0	0.0
Br	0.090342	-1.58216	-2.451761
H	1.095316	0.0	0.0
H	-1.600763	-0.078216	-1.454875
C	-0.14714	1.187433	-2.219487
N	0.07941	2.166885	-2.828084
N	-0.436465	-1.172757	0.741364
H	-1.398916	-1.411297	0.517954
H	0.152272	-1.960207	0.496423
C	-0.504414	1.262114	0.689285
H	-0.146503	1.242002	1.71897
H	-0.126387	2.165784	0.207195
H	-1.60195	1.298593	0.705285
Cl	3.449493	0.0	0.0
