16

C	0.0	0.0	0.0
C	-0.531322	0.421353	-1.389088
Br	1.953502	0.0	0.0
H	-1.635939	0.376754	-1.267848
C	-0.428502	1.015499	1.055225
H	-0.081003	0.678313	2.035989
H	-1.520277	1.053691	1.053248
H	-0.012192	2.006688	0.865861
N	-0.470695	-1.34517	0.210462
H	-0.170021	-1.659963	1.127465
H	-1.495385	-1.289149	0.218112
C	-0.12581	-0.503554	-2.447935
N	0.177615	-1.215184	-3.331241
C	-0.155812	1.788	-1.748803
N	0.131338	2.888342	-2.039381
Cl	-3.58127	0.0	0.0
