16

C	0.0	0.0	0.0
C	-0.508723	-0.030415	-1.476667
Br	1.962036	0.0	0.0
H	-1.613118	0.007487	-1.357626
C	-0.440818	1.296835	0.658987
H	-1.532427	1.336315	0.642051
H	-0.092517	1.292543	1.692373
H	-0.02469	2.163787	0.143534
N	-0.472309	-1.115314	0.762202
H	-1.491506	-1.021734	0.812905
H	-0.247142	-1.990768	0.300281
C	-0.152054	-1.284331	-2.13935
N	0.099629	-2.307737	-2.658395
C	-0.068086	1.110196	-2.277698
N	0.258183	2.035706	-2.92361
Cl	-3.573551	0.0	0.0
