16

C	0.0	0.0	0.0
C	-0.305003	-0.023358	-1.566973
Br	2.035131	0.0	0.0
H	0.585386	0.359172	-2.077302
C	-0.403233	1.336197	0.590107
H	-1.494387	1.391176	0.57067
H	-0.049256	1.383288	1.620503
H	0.022253	2.164828	0.021712
N	-0.497622	-1.064971	0.777311
H	-0.324918	-1.96195	0.336697
H	-1.515795	-0.921513	0.840239
C	-1.374294	0.870344	-2.036637
N	-1.968854	1.712908	-2.601075
C	-0.490962	-1.395681	-2.032479
N	-0.588588	-2.507318	-2.3989
Cl	-3.489846	0.0	0.0
