16

C	0.0	0.0	0.0
C	-0.330923	-0.092265	-1.565487
Br	1.968974	0.0	0.0
H	0.552048	0.265964	-2.104053
C	-0.429677	1.357915	0.527785
H	-1.521161	1.396697	0.509422
H	-0.018666	2.164997	-0.08097
H	-0.073504	1.461021	1.55313
N	-0.5098	-1.029263	0.827984
H	-1.529745	-0.893716	0.854619
H	-0.317336	-1.946911	0.440102
C	-1.410156	0.766873	-2.070041
N	-2.027279	1.578207	-2.656478
C	-0.507581	-1.490941	-1.957895
N	-0.572718	-2.626598	-2.247092
Cl	-3.51877	0.0	0.0
