16

C	0.0	0.0	0.0
C	-0.25974	-0.153007	-1.572469
Br	1.951572	0.0	0.0
H	0.513025	-0.851342	-1.916992
C	-0.494966	1.315573	0.558508
H	-0.236143	1.356199	1.618111
H	-1.582929	1.338539	0.451093
H	-0.043277	2.163782	0.042886
N	-0.514014	-1.087769	0.75967
H	-1.534258	-0.958482	0.779377
H	-0.307291	-1.977049	0.317776
C	-0.018919	1.097341	-2.294628
N	0.198624	2.091186	-2.881528
C	-1.497528	-0.782343	-2.065271
N	-2.226978	-1.423167	-2.729268
Cl	-3.581122	0.0	0.0
