16

C	0.0	0.0	0.0
C	-0.438342	0.131305	-1.51501
Br	1.95927	0.0	0.0
H	0.475209	0.269797	-2.1041
C	-0.396038	1.231625	0.810533
H	-1.486861	1.279677	0.825285
H	-0.019504	1.114657	1.830297
H	0.017361	2.151376	0.391777
N	-0.468881	-1.251605	0.517117
H	-0.227134	-1.303825	1.501669
H	-1.495017	-1.207292	0.45262
C	-1.241824	1.324039	-1.812672
N	-1.689081	2.351654	-2.16538
C	-1.051298	-1.084756	-2.05869
N	-1.436328	-2.046733	-2.610225
Cl	-3.447894	0.0	0.0
