16

C	0.0	0.0	0.0
C	-0.282881	0.005264	-1.544357
Br	1.960364	0.0	0.0
H	0.225718	0.89746	-1.928819
C	-0.511998	1.256833	0.665396
H	-1.607379	1.215504	0.633511
H	-0.166287	1.28811	1.702712
H	-0.132713	2.14514	0.155854
N	-0.527176	-1.150944	0.59162
H	-0.182187	-2.021148	0.213542
H	-0.505455	-1.13915	1.600307
C	-1.646921	0.059642	-2.11048
N	-2.443981	0.10969	-2.976229
C	0.351037	-1.154335	-2.193923
N	0.821562	-2.078478	-2.745826
Cl	-3.789816	0.0	0.0
