16

C	0.0	0.0	0.0
C	-0.438863	-0.185633	-1.506277
Br	1.959977	0.0	0.0
H	0.471658	-0.137603	-2.112654
C	-0.38546	1.378781	0.531227
H	0.003859	1.483673	1.547295
H	-1.475637	1.43453	0.548746
H	0.022754	2.184172	-0.082426
N	-0.476607	-1.109683	0.768139
H	-0.24585	-0.949655	1.74391
H	-1.502978	-1.077136	0.685513
C	-1.272648	0.901534	-2.032881
N	-1.709584	1.843565	-2.581408
C	-1.005865	-1.506231	-1.796199
N	-1.355012	-2.565395	-2.162428
Cl	-3.442382	0.0	0.0
