16

C	-0.410682	0.006319	-1.466592
C	0.0	0.0	0.0
F	-1.814094	-0.07948	-1.586898
H	1.095913	0.0	0.0
C	-0.007178	1.231695	-2.177971
N	0.283505	2.201727	-2.772861
C	0.126716	-1.169111	-2.178106
N	0.51531	-2.097881	-2.783501
N	-0.41527	-1.232567	0.652822
H	0.321355	-1.921018	0.54436
H	-1.281436	-1.597207	0.27545
C	-0.524528	1.2243	0.727306
H	-1.618712	1.252039	0.75067
H	-0.154605	1.170925	1.752199
H	-0.14956	2.147888	0.277818
H	2.793954	0.0	0.0
