16

C	-0.49257	0.006534	-1.434464
C	0.0	0.0	0.0
F	-1.899512	0.022493	-1.475924
H	1.095744	0.0	0.0
C	-0.045924	1.198628	-2.181089
N	0.293498	2.136217	-2.800839
C	-0.063009	-1.203278	-2.157277
N	0.277714	-2.161015	-2.743986
N	-0.415066	-1.263629	0.597091
H	0.385102	-1.636827	1.098129
H	-1.180853	-1.131354	1.245863
C	-0.466112	1.236167	0.752567
H	-1.556734	1.269778	0.852454
H	-0.014666	1.209981	1.747586
H	-0.126798	2.15478	0.266031
H	2.777003	0.0	0.0
