18

C	-0.542503	0.041747	-1.608611
C	0.097732	-0.011105	-0.226155
Br	0.112208	-1.367605	-2.807152
H	1.184687	0.002441	-0.358763
C	-1.995852	-0.066085	-1.568375
N	-3.161532	-0.203162	-1.499611
N	-0.171064	1.369386	-2.278495
O	1.018118	1.556945	-2.48378
O	-1.081668	2.163161	-2.494357
C	-0.264694	-1.27217	0.548576
H	0.343897	-1.155625	1.46404
H	-1.335325	-1.300101	0.78037
H	0.010402	-2.183131	0.009941
C	-0.273262	1.223003	0.597209
H	0.318555	1.051224	1.518297
H	-1.349421	1.263771	0.799819
H	0.039651	2.157468	0.121008
F	1.5576	-0.037761	2.267837
