18

C	-0.0871	0.060735	-1.381028
C	0.053745	0.077357	0.153493
Br	0.755734	1.659155	-2.133261
H	1.106544	0.353701	0.293817
C	0.451952	-1.126899	-2.079502
N	0.211416	-1.966727	-2.885032
N	-1.600103	0.133846	-1.692937
O	-2.228695	-0.869951	-1.367835
O	-2.100155	1.155052	-2.149088
C	-0.111222	-1.313775	0.761174
H	0.047605	-1.245658	1.8436
H	0.651585	-1.961311	0.331307
H	-1.104743	-1.727151	0.580897
C	-0.871076	1.103477	0.804347
H	-1.916598	0.783323	0.753738
H	-0.787881	2.086658	0.335678
H	-0.608311	1.206646	1.861179
F	2.070922	-1.000083	-1.176612
