16

C	-0.514659	-0.010274	-1.437514
C	0.0	0.0	0.0
F	-0.466851	1.325421	-1.8841
H	1.096216	0.0	0.0
H	-1.569171	-0.297531	-1.459439
C	0.340789	-0.835206	-2.367723
H	1.385535	-0.536355	-2.261996
H	0.011688	-0.68349	-3.398628
H	0.253036	-1.891799	-2.117741
N	-0.405576	-1.262676	0.705463
O	-0.214696	-1.286078	1.917014
O	-0.884935	-2.194743	0.055432
N	-0.585799	1.090795	0.75866
H	-0.458671	1.923838	0.197892
H	-0.024084	1.207001	1.59428
Cl	3.379552	0.0	0.0
