16

C	-0.567781	0.020227	-1.41525
C	0.0	0.0	0.0
F	-0.209843	-1.137518	-2.097232
H	1.090533	0.0	0.0
H	-0.078421	0.861603	-1.913169
C	-2.075106	0.151388	-1.481607
H	-2.389732	0.168048	-2.527271
H	-2.55805	-0.694998	-0.988647
H	-2.398267	1.077556	-1.004176
N	-0.466681	-1.287204	0.664324
O	0.148696	-2.316046	0.418501
O	-1.48174	-1.224873	1.372193
N	-0.443547	1.166483	0.707014
H	0.243382	1.391495	1.415911
H	-1.332214	0.979911	1.155476
Cl	3.368772	0.0	0.0
