16

C	-0.50301	0.028907	-1.424182
C	0.0	0.0	0.0
F	-1.915374	0.042261	-1.38988
H	1.095781	0.0	0.0
H	-0.21399	-0.893403	-1.928277
C	-0.009579	1.248323	-2.158667
H	-0.366209	1.235	-3.191492
H	1.08304	1.253524	-2.146569
H	-0.369081	2.145895	-1.65632
N	-0.40547	-1.35383	0.599468
O	-0.125093	-2.361622	-0.042531
O	-0.974456	-1.356025	1.691734
N	-0.477069	1.100223	0.762393
H	-1.452386	0.976208	0.998771
H	0.061313	1.182464	1.614384
Cl	3.331624	0.0	0.0
