16

C	-0.499505	0.017169	-1.445952
C	0.0	0.0	0.0
F	0.037584	-1.056158	-2.145897
H	1.090566	0.0	0.0
H	-0.08695	0.930205	-1.888479
C	-2.00366	-0.048369	-1.624794
H	-2.521046	0.74778	-1.086256
H	-2.240319	0.044933	-2.686947
H	-2.382529	-1.00575	-1.265785
N	-0.527861	-1.260828	0.632054
O	-1.626296	-1.187576	1.190455
O	0.117526	-2.292712	0.481867
N	-0.409238	1.127201	0.782131
H	0.32836	1.816324	0.790843
H	-1.293506	1.529311	0.513384
Cl	3.373687	0.0	0.0
