16

C	-0.494871	0.033299	-1.432487
C	0.0	0.0	0.0
F	-1.854731	0.38154	-1.462999
H	1.091258	0.0	0.0
H	-0.421345	-0.965339	-1.86817
C	0.285274	1.041876	-2.240019
H	0.166261	2.030364	-1.795652
H	1.345472	0.780719	-2.225056
H	-0.081002	1.058427	-3.269632
N	-0.418545	-1.307047	0.669282
O	-1.439349	-1.873752	0.262046
O	0.242933	-1.669228	1.638702
N	-0.480307	1.119504	0.744302
H	-1.478776	1.058392	0.894459
H	0.018725	1.200987	1.618963
Cl	3.439494	0.0	0.0
