16

C	-0.434117	0.022906	-1.453274
C	0.0	0.0	0.0
F	-1.837113	0.195792	-1.498582
H	1.091507	0.0	0.0
H	-0.223973	-0.941722	-1.915859
C	0.224048	1.152046	-2.207007
H	-0.077909	1.133152	-3.256292
H	1.309454	1.046108	-2.130683
H	-0.065382	2.113235	-1.776892
N	-0.467112	-1.329787	0.585532
O	-1.202724	-1.33495	1.565071
O	-0.070236	-2.336031	0.000518
N	-0.468652	1.083525	0.788074
H	0.261952	1.759568	0.94133
H	-1.310438	1.502345	0.425931
Cl	3.334701	0.0	0.0
