17

C	-0.537438	-0.061275	-1.41215
C	0.0	0.0	0.0
Br	0.003714	1.818425	-2.281639
H	1.092467	0.0	0.0
H	-0.363206	0.908658	0.485847
N	0.068672	-1.141921	-2.04807
H	1.064673	-1.118105	-1.878881
H	-0.228884	-1.433357	-2.969581
C	-2.042126	-0.016654	-1.57085
H	-2.348532	0.113818	-2.611294
H	-2.461434	-0.944526	-1.187187
H	-2.442226	0.825641	-1.011174
C	-0.436372	-1.255895	0.762361
H	-0.038166	-2.134472	0.257595
H	0.004822	-1.207364	1.76078
H	-1.523486	-1.370786	0.87658
F	2.716102	0.0	0.0
