17

C	-0.041143	0.021537	-1.513408
C	0.0	0.0	0.0
Br	-1.918209	0.416336	-2.237147
H	1.099644	0.0	0.0
H	-0.353754	0.966112	0.369659
N	0.831237	1.092023	-1.921489
H	1.048205	0.995625	-2.908129
H	1.697575	0.934365	-1.372406
C	0.361121	-1.322354	-2.103157
H	0.436122	-1.25604	-3.192178
H	1.351386	-1.51834	-1.676178
H	-0.331516	-2.127214	-1.850428
C	-0.652139	-1.170073	0.703131
H	-1.711124	-1.273788	0.436467
H	-0.590495	-1.032162	1.787139
H	-0.143539	-2.109575	0.473284
F	2.745139	0.0	0.0
