13

C	0.0	0.0	0.0
C	-0.560324	-0.327809	-1.404136
Cl	1.780605	0.0	0.0
H	-1.679584	-0.286483	-1.223241
C	-0.433211	1.337973	0.421337
N	-0.601503	2.440732	0.791157
C	-0.437095	-1.011606	0.969206
N	-0.617529	-1.845793	1.777009
C	-0.16067	-1.662064	-1.834218
N	0.141686	-2.741909	-2.185867
C	-0.161601	0.685732	-2.374074
N	0.142866	1.504832	-3.15991
Cl	-3.252468	0.0	0.0
