13

C	0.0	0.0	0.0
C	-0.269729	0.087946	-1.556007
Cl	1.783921	0.0	0.0
H	0.435744	0.862004	-1.894916
C	-0.40269	1.218649	0.699699
N	-0.713529	2.178079	1.303886
C	-0.448686	-1.239235	0.625513
N	-0.551754	-2.291724	1.141951
C	-1.561175	0.499608	-2.127403
N	-2.233925	0.929461	-3.004465
C	0.155061	-1.175825	-2.180638
N	0.493347	-2.165278	-2.716901
Cl	-2.945861	0.0	0.0
