16

C	-0.834169	-0.026527	-1.40961
C	0.083047	0.069773	-0.209743
Br	-0.725457	1.490878	-2.65299
H	1.116516	0.118414	-0.561878
H	-1.883206	-0.111219	-1.131353
N	-0.530259	-1.265135	-2.204275
O	0.61649	-1.417441	-2.600204
O	-1.473558	-2.025585	-2.410928
N	-0.068044	-1.198403	0.48012
H	-0.850363	-1.114881	1.127042
H	0.806309	-1.252767	1.099499
C	-0.209507	1.293423	0.652902
H	0.449567	1.217185	1.5199
H	-1.251177	1.275149	0.997603
H	-0.02901	2.240248	0.136039
H	2.05709	-0.908267	1.942428
