16

C	-0.557945	0.020583	-1.611908
C	0.097282	0.049122	-0.234895
Br	-0.309352	-1.640418	-2.563317
H	1.179695	0.014387	-0.407113
H	-0.179208	0.813929	-2.254098
N	-2.031716	0.308385	-1.50316
O	-2.762101	-0.525537	-0.981699
O	-2.388291	1.423472	-1.891935
N	-0.193288	-1.103358	0.578957
H	0.617114	-1.108248	1.243201
H	-1.03832	-0.933942	1.115542
C	-0.200662	1.389573	0.443804
H	0.456035	1.418274	1.316884
H	-0.000246	2.255407	-0.198616
H	-1.244584	1.438742	0.773874
H	2.095397	-0.473146	1.859049
