12
Coordinates from ORCA-job run
  C   -1.09045961867628     -0.64341799688435      0.42214935331561
  C   0.05896799969928     -0.13602296168491     -0.44389117815979
  F   -2.13971691943646      0.25684215285251      0.33338997119546
  H   -0.30881550346251     -0.06871733831348     -1.47387200347620
  H   -0.78483639692466     -0.71131867436744      1.46934519533873
  H   -1.44577726126468     -1.61619156857145      0.07631251724489
  C   1.13662472545320     -1.12696181880546     -0.41459847169674
  N   1.99653363760636     -1.92414410850485     -0.35852881582935
  C   0.55529011102553      1.23802256334328      0.01191204213253
  H   0.94031741953290      1.18592975549082      1.03270813783358
  H   -0.26975824561799      1.94983729737293     -0.01542426233570
  H   1.35263005206530      1.59814269807242     -0.63950248556301
