12
Coordinates from ORCA-job run
  C   -1.09423157140813     -0.65629448363308      0.39492711160513
  C   0.05813775421553     -0.11859626705241     -0.44850590799858
  F   -2.13962844826669      0.25135401761086      0.34226073582591
  H   -0.30850013686391     -0.00781400132336     -1.47522788958532
  H   -1.45330146452455     -1.61253583806972      0.00901672141319
  H   -0.79009870180867     -0.76854152359347      1.43878730332561
  C   1.13194509720736     -1.11394368692037     -0.46082591818100
  N   1.99488211188637     -1.90950292799586     -0.43868670723377
  C   0.55992245352638      1.23332933350135      0.06355639798260
  H   1.36008645272533      1.61623072075938     -0.57115636622937
  H   0.94276516976959      1.13806095753940      1.08200446135383
  H   -0.26197871645860      1.94925369917727      0.06385005772178
