12
Coordinates from ORCA-job run
  C   -1.16063109865114     -0.60708347745439      0.31627524406930
  C   0.05348816144278     -0.11688376144774     -0.46219867276732
  F   -0.84141212886532     -0.71612284910769      1.65762219392873
  H   -0.25495861856183     -0.02099349435505     -1.51080543039942
  H   -1.48946939316568     -1.58743755182053     -0.03475836275812
  H   -1.97620108673132      0.11472685375620      0.21899568333386
  C   1.12543560722050     -1.11603867206908     -0.41054870821908
  N   1.98890181231322     -1.90938126896010     -0.36553907466816
  C   0.55068075765733      1.23765869085872      0.05169958720632
  H   -0.24712701150520      1.98009349386964     -0.02737613765133
  H   1.40575372300974      1.58388946557185     -0.53019593146098
  H   0.84853927583691      1.15657257115817      1.09682960938619
