17

C	0.0	0.0	0.0
C	-0.517542	-0.137102	-1.459853
Br	1.965617	0.0	0.0
H	-1.553415	-0.484604	-1.346527
N	-0.483729	1.153461	0.696613
H	-0.263571	1.989076	0.166828
H	-1.506069	1.049576	0.751053
C	-0.346596	-1.18919	0.796831
N	-0.575207	-2.128274	1.464854
N	0.216758	-1.225084	-2.178423
O	0.038937	-2.370479	-1.765134
O	0.952111	-0.92245	-3.119301
C	-0.484632	1.158213	-2.235301
H	0.493004	1.642417	-2.189003
H	-1.261448	1.811795	-1.838298
H	-0.717862	0.96414	-3.28218
Br	-3.629094	0.0	0.0
