17

C	0.0	0.0	0.0
C	-0.530211	0.017428	-1.444822
Br	2.015863	0.0	0.0
H	-1.583142	-0.29576	-1.321693
N	-0.511676	1.104613	0.695389
H	-0.703789	0.952038	1.671226
H	-0.045653	1.976677	0.503031
C	-0.341115	-1.234727	0.715359
N	-0.558723	-2.197043	1.352556
N	0.159225	-1.02775	-2.262062
O	0.803034	-0.676626	-3.251808
O	0.034283	-2.190398	-1.881556
C	-0.470338	1.377037	-2.095362
H	0.535518	1.80237	-2.070119
H	-0.777998	1.29552	-3.136509
H	-1.184057	2.017831	-1.577955
Br	-3.724733	0.0	0.0
