12

C	0.0	0.0	0.0
C	-0.556548	0.03016	-1.406972
Br	1.928524	0.0	0.0
H	-1.667317	-0.007973	-1.272222
H	-0.353716	0.879065	0.534001
H	-0.352215	-0.896893	0.501313
N	-0.18457	-1.21058	-2.169919
O	0.030154	-1.10621	-3.373998
O	-0.184143	-2.257612	-1.533437
C	-0.173471	1.212805	-2.162822
N	0.119634	2.198695	-2.728987
Br	-3.537461	0.0	0.0
