12

C	0.0	0.0	0.0
C	-0.436595	0.386933	-1.424823
Br	1.933209	0.0	0.0
H	0.460373	0.579021	-2.026477
H	-0.358868	-0.987338	0.269456
H	-0.351712	0.735412	0.714067
N	-1.114538	1.741962	-1.50417
O	-0.800758	2.56005	-0.649995
O	-1.78005	1.959271	-2.504612
C	-1.170498	-0.640789	-2.153813
N	-1.48551	-1.513467	-2.876813
Br	-3.206718	0.0	0.0
