13
Coordinates from ORCA-job run
  C   0.92755288802368     -0.04982717444720     -0.22741322083455
  C   -0.49364132583130     -0.45993977238689      0.29335106403298
  Br  1.64620455674403     -1.55343154198123     -1.25338688158131
  H   -0.34064653089531     -1.35358378770280      0.91049622709535
  C   0.81354257821809      1.11282889470009     -1.10139958645041
  N   0.69752995959505      2.06367631906378     -1.78290227322033
  C   1.82678562753744      0.21451151598145      0.89215402667088
  N   2.51476932847768      0.40514222531969      1.82681103356754
  N   -1.37167063587799     -0.69651842826595     -0.82739646071587
  H   -2.19910731979111     -0.11896886803940     -0.80708153427745
  H   -1.62655463783274     -1.66898109307814     -0.91028201735954
  C   -0.98649566538699      0.61788635642288      1.15926467984063
  N   -1.40826882298052      1.48720535441371      1.82778494323208
