13
Coordinates from ORCA-job run
  C   0.88810370208597      0.20919196175114      0.08599503908982
  C   -0.56144412739190     -0.12584162345579      0.61119874796782
  Br  1.86577291369482      1.24571426862069      1.42353404900000
  H   -0.41996997853867     -0.64804365572213      1.56397826327738
  C   1.58823179812238     -1.05243846712232     -0.13835217301962
  N   2.08483480191415     -2.10613960437601     -0.29987612518052
  C   0.79253725043007      0.97016956007897     -1.15533605837693
  N   0.64992611907625      1.56412601324433     -2.16045642067949
  N   -1.33446714604880     -0.95251815010850     -0.27052570796855
  H   -1.51345040989481     -0.51147804417647     -1.16390801545265
  H   -0.92415989742489     -1.86846979117053     -0.39769643436225
  C   -1.26873278403655      1.13439467121886      0.86550630488647
  N   -1.84618224198803      2.14233286121777      1.03593853081851
