13
Coordinates from ORCA-job run
  C   0.94698456707856      0.20215350985120      0.00416988862025
  C   -0.42319311999398     -0.29814926613920      0.55181547893282
  Br  1.99220415461736      0.99505102198721      1.45612898592017
  H   -0.19379392595038     -1.06366341613172      1.29970513495325
  C   1.68627396956125     -0.93540026392725     -0.53697253060331
  N   2.29036085259685     -1.86031891363295     -0.93810567440783
  C   0.71667470652003      1.20953016795647     -1.02801542527520
  N   0.47086260924936      2.01059766854002     -1.85295871661662
  N   -1.13694257805644     -0.90311217478242     -0.54927957757865
  H   -1.77217900656673     -1.62101700332004     -0.22724451128578
  H   -1.65724236990148     -0.21511957337749     -1.08037319260033
  C   -1.13778804026692      0.80819075302718      1.21226324029707
  N   -1.78222181888749      1.66825748994899      1.68786689964416
