13
Coordinates from ORCA-job run
  C   0.92503505939124     -0.14678347399212     -0.23299876881875
  C   -0.49870434643249     -0.45933895599639      0.32869030910878
  Br  1.61308085520695     -1.73541186268052     -1.13924619716337
  H   -0.39125707548196     -1.35317706655658      0.95095630196326
  C   0.82945350964337      0.94631307103267     -1.19702231815423
  N   0.68828436149175      1.82480077293825     -1.96578441029568
  C   1.83948698370102      0.19178699312294      0.85434358345155
  N   2.55214622912982      0.44848502149213      1.75390796473972
  N   -1.39952959435815     -0.74086088126475     -0.76134512037980
  H   -1.76993852089354      0.11162033525454     -1.16446528956711
  H   -2.16995732441766     -1.31842504954131     -0.45309909810970
  C   -0.91416927149635      0.66577169101551      1.18910566789199
  N   -1.30393086548399      1.56621940517564      1.83695737533333
