13
Coordinates from ORCA-job run
  C   0.92779806494258      0.23993714162174      0.13379157507141
  C   -0.48023320304308     -0.32582877982017      0.48676587040956
  Br  1.73605657258417      1.04623272999654      1.72328783398272
  H   -0.31982664487630     -1.09530007674216      1.24842068573875
  C   1.78126673989067     -0.85523858618276     -0.31961141674613
  N   2.47708819652321     -1.74261859202850     -0.65081710441198
  C   0.79390150647449      1.25637599616772     -0.90646157826638
  N   0.62647134941364      2.05983409983616     -1.74852369488805
  N   -1.01494031108787     -0.93823277112584     -0.70775570296035
  H   -1.48643191155385     -0.26119234789800     -1.29556799879344
  H   -1.65859548833589     -1.68511565033838     -0.48282412330856
  C   -1.32253025574850      0.73810750907752      1.06082686283686
  N   -2.05902461518329      1.56303932743613      1.45846879133559
