13
Coordinates from ORCA-job run
  C   0.93513658528780     -0.11026048395081     -0.21382713715025
  C   -0.48672928097315     -0.48119087954006      0.31585341581591
  Br  1.70499825668738     -1.66509946879238     -1.11256590998899
  H   -0.35820426100926     -1.37368156458399      0.93598116948468
  C   0.81612927171171      0.98333052623163     -1.17498718749220
  N   0.65259686673249      1.85957140559932     -1.94176370808285
  C   1.81227379929409      0.25900125551768      0.89417326892715
  N   2.49279116133230      0.53689962103596      1.81206618211955
  N   -1.35236152650143     -0.79152167417912     -0.79479523468469
  H   -1.74236127834629      0.04904254173961     -1.20460452232784
  H   -2.11032535594209     -1.39408230131588     -0.50319575722781
  C   -0.96326972499953      0.62266407646081      1.17226366221766
  N   -1.40067451327402      1.50432694577724      1.81540175838969
