13
Coordinates from ORCA-job run
  C   0.92321982317838     -0.07211097637439     -0.26925779793607
  C   -0.45782795015253     -0.51266885315929      0.31238715787426
  Br  1.67964543702042     -1.54904003078223     -1.30128534499389
  H   -0.27366883290911     -1.43631703345482      0.86960241018126
  C   0.72580867964733      1.07284094268007     -1.15475122630471
  N   0.50295590936933      1.98858722789926     -1.85789615489026
  C   1.85160783090491      0.25471756030773      0.80996496273835
  N   2.57725364329557      0.49887327996187      1.70253647249145
  N   -1.37566391586032     -0.78006998507460     -0.76692765070771
  H   -1.80842921638824      0.07212156721186     -1.10312489204185
  H   -2.10089050819342     -1.42066836305810     -0.47345594090817
  C   -0.91207219558224      0.52601495352310      1.25789690902225
  N   -1.33093870433010      1.35871971031953      1.97431109547509
