13
Coordinates from ORCA-job run
  C   0.81814158001942      0.13555358297289     -0.34517418052226
  C   -0.55025271469624     -0.00320105225779      0.38298520057472
  Br  0.63028041585667     -0.42568748199611     -2.21529355284630
  H   -0.36574121154012      0.32257527463175      1.41378241188575
  C   1.26612080014336      1.52574330212908     -0.32332996654149
  N   1.60346672771609      2.65126010095421     -0.27334420530694
  C   1.79824001631190     -0.72858154281582      0.30768792274609
  N   2.59753149281065     -1.39289712787688      0.85667188618248
  N   -0.94362202545862     -1.39063193584201      0.40904963178399
  H   -1.37051171049242     -1.66675294360903     -0.46651114068593
  H   -1.59891735850424     -1.56197350450961      1.16059186750145
  C   -1.52782651947665      0.92294720449945     -0.21819833209883
  N   -2.35790949268978      1.60964612371986     -0.68791754267270
