13
Coordinates from ORCA-job run
  C   0.92092794137503     -0.03201116740217     -0.28363398262220
  C   -0.44054876649370     -0.54165480963112      0.28789998135147
  Br  1.70127130127615     -1.42607369362905     -1.40793602120499
  H   -0.22579653032051     -1.49053350166170      0.78916043972339
  C   0.68170628948341      1.15617619503855     -1.09897683508508
  N   0.42632455463304      2.10426928581410     -1.74590691203366
  C   1.85467195188683      0.25723758022988      0.80169099690176
  N   2.58702846603394      0.46863216749495      1.69715838990745
  N   -1.36519565254716     -0.77188092183658     -0.79427060773924
  H   -2.06888423212374     -1.44822075246014     -0.52967684635369
  H   -1.82547278833516      0.08558120752708     -1.07601523114414
  C   -0.90886073428483      0.42898222544467      1.29668082329965
  N   -1.33817180058328      1.20949618507154      2.06382580499927
