13
Coordinates from ORCA-job run
  C   0.95087363044255      0.18002670222592      0.04197230052749
  C   -0.46777839205686     -0.20876888440518      0.55597823222502
  Br  1.92332506944723      1.14070930592595      1.44236881183378
  H   -0.31235345924718     -0.86896321274523      1.41500378585876
  C   1.68646720539522     -1.03830767751000     -0.28657562459906
  N   2.28462337936268     -2.02359338951810     -0.51613830470282
  C   0.82160479903372      1.04059447106814     -1.13093640752568
  N   0.65812293925271      1.72637002831678     -2.07205398453183
  N   -1.12700488470846     -0.94243757535219     -0.49979921916348
  H   -1.59265517004219     -0.32274998692600     -1.15194202825129
  H   -1.80057837694142     -1.59880950207206     -0.12860492044453
  C   -1.18896940609827      0.99310438156761      1.00982661520669
  N   -1.83667733383972      1.92282533942436      1.32190074356695
