13
Coordinates from ORCA-job run
  C   0.83279200549196      0.21029152512403     -0.26151498742784
  C   -0.57913180954790     -0.06654714882818      0.33199599921148
  Br  0.83964607521877     -0.22046224865399     -2.17502896026611
  H   -0.50380122614934      0.19229700015519      1.39506680113877
  C   1.18101797624748      1.62020280760345     -0.10434543481323
  N   1.43302161678659      2.75830970361789      0.05107509500506
  C   1.81259380301649     -0.63729576360785      0.41303038807094
  N   2.61067118045049     -1.28783053881568      0.98014277459829
  N   -0.87902681216702     -1.47325202226711      0.22712657509052
  H   -1.21414397857530     -1.70879176044196     -0.69872956052233
  H   -1.57897844039884     -1.74123479918042      0.90652976080516
  C   -1.56240106624542      0.84156943139555     -0.28728417266530
  N   -2.39225932412797      1.51374381389910     -0.77806427822542
