13
Coordinates from ORCA-job run
  C   0.91633223106033      0.26595985242267      0.16989781440594
  C   -0.45443731514079     -0.42986980550356      0.42393763319288
  Br  1.69994774968210      0.83045065262313      1.87197412765964
  H   -0.24211627531914     -1.30978368339581      1.03922723646406
  C   1.82043017186573     -0.68770209947123     -0.46778441576430
  N   2.55121355024038     -1.47265125129800     -0.94843192885566
  C   0.71438678958551      1.43747160754287     -0.67861948889609
  N   0.49197812838463      2.36486257293988     -1.36648248832583
  N   -0.97045905632797     -0.85430158437084     -0.85720915270210
  H   -1.48811866497877     -0.11387338370871     -1.31548426326179
  H   -1.56681362760269     -1.66564051264364     -0.76418507682324
  C   -1.34661422156638      0.46843126862670      1.17743870180708
  N   -2.12472945988296      1.16564636623654      1.71572130109940
