13
Coordinates from ORCA-job run
  C   0.92472223558637     -0.14948420292360     -0.22942333680276
  C   -0.49578784944864     -0.45430589693613      0.34370720086527
  Br  1.62276143200061     -1.75961701107244     -1.08897712980895
  H   -0.38244918741506     -1.32975143919549      0.99047366984057
  C   0.82000219371213      0.91303707362740     -1.22645392657986
  N   0.67087011966171      1.76666617369345     -2.02133095612409
  C   1.83922361553173      0.22910065472200      0.84469374553532
  N   2.55244566154973      0.51977898542369      1.73332741618977
  N   -1.39644047756592     -0.77237302189951     -0.73661782883224
  H   -2.17034295247131     -1.33347084298952     -0.40640535398603
  H   -1.76323315949315      0.06702504110353     -1.16968832403991
  C   -0.91590072238798      0.69276804917874      1.17240972726070
  N   -1.30687090926023      1.61062643726790      1.79428509648220
