13
Coordinates from ORCA-job run
  C   0.90228323242505      0.16121690871211     -0.00264246402036
  C   -0.51308327213914     -0.04965948981612      0.66150891234019
  Br  2.04529072555611      1.22809795990007      1.16953357737661
  H   -0.31936687564253     -0.51678108067631      1.63356236052361
  C   1.51171500255179     -1.15299426839782     -0.18714716038399
  N   1.93384393450212     -2.24455331057114     -0.30228410323220
  C   0.74267458961667      0.83640865523811     -1.28625815673995
  N   0.54923423439819      1.36126618693302     -2.32069029662720
  N   -1.40319265017193     -0.88313584924370     -0.09431928448889
  H   -1.63461203792994     -0.49008627000401     -0.99798313930940
  H   -1.05586163261275     -1.82829048936260     -0.19181566780347
  C   -1.12551540526202      1.26495162384561      0.88519142418485
  N   -1.63240984529162      2.31355942344279      1.03334399818021
