13
Coordinates from ORCA-job run
  C   0.75777226532451      0.11557002011622     -0.35264203536606
  C   -0.64305683359225      0.09510196205589      0.38206298413662
  Br  0.57426338225299     -0.63094023080930     -2.15289617390581
  H   -0.45470142419126      0.56248637638402      1.35705493794096
  C   1.26404283065948      1.47930288974759     -0.45019706261110
  N   1.63485637880637      2.59488785065294     -0.49113657962915
  C   1.67299356307311     -0.72959277202744      0.40794312330799
  N   2.34495336577911     -1.43151359721808      1.07036071773206
  N   -1.22057222005229     -1.19662653129962      0.60201730429953
  H   -0.65296744196944     -1.76287490031583      1.21967970932914
  H   -1.39405247473795     -1.68820588789211     -0.26522685718104
  C   -1.56914168720052      0.95542120002426     -0.36287018897491
  N   -2.31238970415186      1.63798362058147     -0.96314987907823
