13
Coordinates from ORCA-job run
  C   0.86390284008483      0.22618715221245      0.20280874892829
  C   -0.58010048477838     -0.33026413215136      0.50845053991015
  Br  1.69360288468810      0.88471909456482      1.84548291868497
  H   -0.44628774239761     -1.09888490146542      1.27778686816191
  C   1.66754983372210     -0.87361187065792     -0.32323805428952
  N   2.24953301364508     -1.80584219427495     -0.74182466403906
  C   0.77425309905140      1.30807883866034     -0.77204567207897
  N   0.63924858646453      2.15966921307490     -1.57194583066300
  N   -1.24456550640264     -0.90711599573648     -0.62476234631059
  H   -1.41025701401516     -0.23622505559870     -1.36461602109725
  H   -0.76215977498533     -1.72247560190707     -0.97999538341321
  C   -1.39204872848285      0.75749837610185      1.06587822266807
  N   -2.05067100659407      1.63726707717754      1.47902067353820
