13
Coordinates from ORCA-job run
  C   0.69422331689060      0.49113035631699     -0.29104342348343
  C   -0.39990004493385     -0.43675812906000      0.31294175128875
  Br  -0.15604843596211      1.98959387271364     -1.22853941536229
  H   0.14789431375328     -1.24487113133945      0.81252450366948
  C   1.54291610595929      1.03052586472762      0.76840070230188
  N   2.21446179619197      1.43015789348918      1.64717028162834
  C   1.49207897524046     -0.26986049549839     -1.24918382836490
  N   2.16160739916469     -0.88913972538461     -1.99072859905779
  N   -1.18576259704746     -1.01123646896705     -0.75106202069526
  H   -1.89856781910590     -0.36714517461075     -1.07035107145828
  H   -1.63142470262206     -1.86619339029207     -0.44447061841996
  C   -1.16045101478466      0.29767148086852      1.34089411455677
  N   -1.82102729274426      0.84612504703637      2.14344762339671
