13
Coordinates from ORCA-job run
  C   0.91617083963274     -0.07238737818181     -0.29541956798524
  C   -0.44296546829216     -0.50655472336507      0.34082446767841
  Br  1.65055623740519     -1.57194360765014     -1.31021308255755
  H   -0.23417676907239     -1.41313790777643      0.91704077022453
  C   0.68137282722865      1.04639206019952     -1.20486069455763
  N   0.42581526906857      1.93839937668725     -1.92732600347684
  C   1.87470817294222      0.28918431490400      0.74558175066457
  N   2.62515333705515      0.55929028758614      1.60971038060697
  N   -1.39146305536615     -0.81050263215017     -0.70154640239581
  H   -1.84109015001557      0.02865487388857     -1.04809100654031
  H   -2.10212054869047     -1.44779474433337     -0.36793170621538
  C   -0.87711773952752      0.55471047300310      1.27051889879492
  N   -1.28484295236826      1.40568960718840      1.97171219575937
