13
Coordinates from ORCA-job run
  C   0.74266056124124      0.14941835353953     -0.37191264621524
  C   -0.62360616021163      0.05415247869978      0.42027449809055
  Br  0.46556822179852     -0.36864422685927     -2.23871910391297
  H   -0.38316567362240      0.39674668511802      1.43484371222118
  C   1.26621280505955      1.50933465878936     -0.32513270933396
  N   1.65436608033614      2.61700644506865     -0.24627722591218
  C   1.67720848136645     -0.79184727725165      0.23720088453993
  N   2.36669492266928     -1.57441884683649      0.78062227439262
  N   -1.21185567959155     -1.24835128686067      0.50811405827723
  H   -1.43407940372678     -1.62725954700787     -0.40316537951453
  H   -0.62593614617472     -1.89286200385838      1.02367969264058
  C   -1.56840964479921      1.00899292031857     -0.17000558944070
  N   -2.32565836434487      1.76673164714044     -0.65052246583250
