13
Coordinates from ORCA-job run
  C   0.74674451130329      0.20452583525274     -0.33382590054739
  C   -0.64125287285262      0.00094073241448      0.39770310140870
  Br  0.56171430486886     -0.21058337486295     -2.23728003741879
  H   -0.45426159375922      0.29243297689088      1.43914243025733
  C   1.20498562928989      1.58069093685036     -0.18571990076995
  N   1.53965736828848      2.69667738858019     -0.02359840234307
  C   1.70204277441245     -0.72943995260199      0.25423597410272
  N   2.41010179818981     -1.51067436689437      0.77526490892534
  N   -1.17015614383789     -1.32967859621812      0.38680118704197
  H   -0.57440086273813     -1.97586226583909      0.88849421729992
  H   -1.33855823859562     -1.66434917134523     -0.55318481391193
  C   -1.60737486578626      0.94667447201896     -0.17236028546843
  N   -2.38024180878303      1.69864538575414     -0.63667247857642
