13
Coordinates from ORCA-job run
  C   0.86198113113895     -0.11095651613141     -0.18104950317893
  C   -0.57130308995319     -0.43729243458646      0.40515105756172
  Br  1.52266359290782     -1.71279399295349     -1.10063074924844
  H   -0.42761156930133     -1.29112125074742      1.07647460769450
  C   0.74813633704418      0.97107107335245     -1.15194226986441
  N   0.57517182345137      1.83220003593372     -1.93411525967725
  C   1.79453724948507      0.21998657360139      0.88920983726412
  N   2.51209266198404      0.46630395765461      1.78823829096389
  N   -1.58723215837262     -0.75498317929362     -0.55283457919654
  H   -1.36258180453155     -1.59250501493247     -1.07305203154076
  H   -1.77074393948001      0.01384805061071     -1.18602764788039
  C   -0.98442657518869      0.72569194612688      1.20194224541904
  N   -1.30968365918406      1.67155075136512      1.81763600168346
