13
Coordinates from ORCA-job run
  C   0.85860887635362     -0.24909850512028     -0.20314940695978
  C   -0.68922825272541     -0.47671868614286     -0.00218962019013
  Br  1.82373294694779     -1.93222082324097      0.03356226563070
  H   -0.97110570928728     -1.25408733452958     -0.72094318032003
  C   1.06815796718936      0.22731307350801     -1.56762016231341
  N   1.15673532616895      0.60844757814417     -2.67666045707527
  C   1.33745743996379      0.73410944256874      0.76285304045715
  N   1.65624282696167      1.54423498592488      1.55366093112529
  N   -1.49330142704784      0.68969247588699     -0.22772645186460
  H   -1.43498833770371      1.01967793738662     -1.18207176984469
  H   -1.29093510639039      1.43650146137699      0.42466241294301
  C   -0.91682664057728     -0.98657478207805      1.35459485307615
  N   -1.10454990985328     -1.36227682368464      2.45102754533563
