13
Coordinates from ORCA-job run
  C   0.91266969107614     -0.02629880336590     -0.31187459857562
  C   -0.42003370134050     -0.53893928930917      0.32149433290205
  Br  1.68398301650815     -1.44638870498694     -1.40913027189810
  H   -0.17003380110404     -1.46261276495495      0.85240391008287
  C   0.62607043461111      1.12841781199934     -1.15965650272433
  N   0.33360848179332      2.05135059282038     -1.82717765454806
  C   1.87344424284631      0.31917418333230      0.73295569338414
  N   2.62814114323081      0.57597861633969      1.59734708338487
  N   -1.37307225365645     -0.82937370335986     -0.72088585940564
  H   -1.85714566868881      0.00818448523053     -1.02231529917730
  H   -2.05608109708725     -1.50600232309004     -0.40705765850826
  C   -0.87808149506239      0.46262798710660      1.30458849074062
  N   -1.30346899312639      1.26588191223800      2.05030833434277
