13
Coordinates from ORCA-job run
  C   0.76942656828138      0.22676549602665     -0.26185350937610
  C   -0.67437520873352     -0.01813896984064      0.33684635109346
  Br  0.77343317713024     -0.18488002161341     -2.17531054954691
  H   -0.59305370996458      0.27265076868586      1.39197647628907
  C   1.17327791715055      1.61456553284994     -0.07083060319102
  N   1.45821682576109      2.73997656602751      0.11890046192636
  C   1.69060686534666     -0.68397121301352      0.41077005778654
  N   2.36559821248216     -1.44987531108998      0.99462031865793
  N   -1.16305405153625     -1.36267801230575      0.27308231197859
  H   -0.59899672691205     -1.99497860866373      0.82669048141251
  H   -1.23327663929757     -1.69690343292458     -0.67952636471936
  C   -1.60971984061312      0.90334994426111     -0.31792072262740
  N   -2.35808338909500      1.63611726160054     -0.84844470968368
