13
Coordinates from ORCA-job run
  C   0.85585123303345     -0.14866180235315     -0.17947752168203
  C   -0.58174258552838     -0.39618209902477      0.43375054615380
  Br  1.45898793587676     -1.81901152508277     -1.01218156489592
  H   -0.45916858730834     -1.21351773579515      1.15307256591581
  C   0.76712735138755      0.88073322683550     -1.20860842009863
  N   0.61436256156409      1.70221717735561     -2.03628949208652
  C   1.80778158146964      0.21262526717522      0.86362894546360
  N   2.54221886310002      0.48674657346237      1.74071676483888
  N   -1.61473275586242     -0.73691258627544     -0.49801203486463
  H   -1.77957920484260      0.00002251641339     -1.17292846479526
  H   -1.41921654388502     -1.60895911671146     -0.97116977585901
  C   -0.95213371195634      0.82397816123744      1.16337602166177
  N   -1.23875613704840      1.81592194276323      1.72312243024816
