13
Coordinates from ORCA-job run
  C   0.86886050400673      0.21401033207303      0.19389109408338
  C   -0.55538009893668     -0.39908859280057      0.48585876547713
  Br  1.75631862878148      0.68109139406971      1.87189856750037
  H   -0.38147598450619     -1.25118185192128      1.15233707606116
  C   1.66315021186688     -0.80039814591830     -0.49305911874496
  N   2.24114752657540     -1.66398140317323     -1.04372828599625
  C   0.72643652320829      1.40611385446295     -0.63513490213643
  N   0.54745737813241      2.35135456002302     -1.31160111863148
  N   -1.25749300505779     -0.84834209945701     -0.68166021536925
  H   -0.78023304746194     -1.60791526050528     -1.14930745700208
  H   -1.46123508819164     -0.09760158995240     -1.32941932357727
  C   -1.35728958013137      0.60118978611609      1.19977605471326
  N   -2.01126396828558      1.41274901698327      1.74014886362242
