13
Coordinates from ORCA-job run
  C   0.91837018625438     -0.11512853958639     -0.26984301085920
  C   -0.46600116306194     -0.47373687239638      0.35845777334340
  Br  1.63241641036661     -1.69175667301907     -1.17696883563937
  H   -0.29610374040362     -1.34979271285933      0.99188532246037
  C   0.73654134953667      0.95434743767718     -1.24830638064671
  N   0.52894890990569      1.81425906618240     -2.02291573265486
  C   1.86485159142848      0.28290135449775      0.76900072301631
  N   2.60712541692564      0.58643625101656      1.62919063544912
  N   -1.39967822784894     -0.81224786801492     -0.68644665962236
  H   -1.82122654644309      0.01652713921220     -1.08857418457217
  H   -2.13219409111748     -1.41441421222034     -0.33558311573689
  C   -0.88896519366975      0.65150458541581      1.21525712025463
  N   -1.28308490187265      1.55010104409454      1.86284634520773
