18

C	-0.447554	-0.073876	-1.459145
C	0.0	0.0	0.0
F	-0.224351	1.163238	-2.081643
H	1.096464	0.0	0.0
C	0.330567	-1.127744	-2.218031
H	0.110569	-2.109536	-1.801059
H	0.067056	-1.101384	-3.278596
H	1.392715	-0.910317	-2.073687
C	-1.909174	-0.307497	-1.5371
N	-3.068036	-0.495054	-1.586417
N	-0.400422	-1.25937	0.635894
H	0.384488	-1.584268	1.19094
H	-1.192645	-1.115934	1.250964
C	-0.513574	1.239973	0.708667
H	-1.608861	1.238076	0.790121
H	-0.086211	1.269024	1.714883
H	-0.202474	2.145112	0.184811
H	2.942991	0.0	0.0
