18

C	-0.41948	0.071589	-1.457819
C	0.0	0.0	0.0
F	-1.811468	0.319552	-1.564248
H	1.096584	0.0	0.0
C	0.323287	1.152867	-2.219589
H	0.01645	2.132831	-1.849573
H	0.098772	1.095151	-3.286875
H	1.396097	1.022339	-2.041051
C	-0.203675	-1.231689	-2.118979
N	-0.043664	-2.215745	-2.738166
N	-0.459574	-1.254979	0.594498
H	-1.217218	-1.090315	1.245057
H	0.319332	-1.654669	1.106218
C	-0.451603	1.22404	0.786141
H	-1.54394	1.280258	0.849626
H	-0.077646	2.154485	0.353547
H	-0.037387	1.149418	1.795494
H	2.899122	0.0	0.0
