18

C	-0.445588	-0.046058	-1.460917
C	0.0	0.0	0.0
F	-0.231797	1.205081	-2.057137
H	1.096512	0.0	0.0
C	0.341371	-1.078362	-2.24033
H	0.129307	-2.070228	-1.84336
H	1.401798	-0.856103	-2.091077
H	0.077959	-1.032952	-3.300289
C	-1.905117	-0.289426	-1.545677
N	-3.062267	-0.485333	-1.600462
N	-0.398433	-1.27292	0.610223
H	0.383545	-1.601667	1.166903
H	-1.197518	-1.144682	1.21987
C	-0.515504	1.225385	0.732293
H	-1.610645	1.220244	0.812461
H	-0.205435	2.141395	0.227235
H	-0.089633	1.234637	1.739285
H	2.944177	0.0	0.0
