18

C	-0.401737	0.030732	-1.470013
C	0.0	0.0	0.0
F	-1.752176	0.41384	-1.626647
H	1.103054	0.0	0.0
C	0.47235	0.984749	-2.263545
H	0.245243	0.91743	-3.329885
H	0.284584	2.006825	-1.928285
H	1.523269	0.743115	-2.065622
C	-0.307735	-1.324538	-2.05225
N	-0.243831	-2.391523	-2.537374
N	-0.539023	-1.212541	0.642433
H	-0.60741	-1.027975	1.639074
H	0.174639	-1.933581	0.550519
C	-0.499212	1.23016	0.735883
H	-1.58301	1.180598	0.880006
H	-0.256179	2.153361	0.206643
H	-0.003024	1.276856	1.710862
H	2.951949	0.0	0.0
