18

C	-0.450209	-0.0292	-1.459258
C	0.0	0.0	0.0
F	-0.207042	1.218154	-2.05104
H	1.100981	0.0	0.0
C	0.304647	-1.078316	-2.246923
H	0.057084	-2.065657	-1.861475
H	1.370869	-0.89316	-2.093854
H	0.045194	-1.012024	-3.306771
C	-1.916337	-0.234369	-1.53853
N	-3.080347	-0.387354	-1.579612
N	-0.403308	-1.274698	0.601508
H	0.379663	-1.617047	1.149888
H	-1.199267	-1.146372	1.215802
C	-0.507262	1.221511	0.744717
H	-0.070614	1.224295	1.747411
H	-0.19968	2.139813	0.241627
H	-1.601903	1.218492	0.835844
H	2.939937	0.0	0.0
