11

C	0.0	0.0	0.0
C	-0.566302	-0.638743	-1.270204
Cl	1.782119	0.0	0.0
H	0.24587	-1.061446	-1.872382
H	-0.325918	1.033978	0.052071
H	-0.32144	-0.515375	0.89843
H	-1.248071	-1.430289	-0.949579
N	-1.278856	0.40029	-2.017141
H	-1.62117	-0.01551	-2.879514
H	-2.108077	0.503889	-1.384867
F	-2.856102	0.0	0.0
