11

C	0.0	0.0	0.0
C	-0.555285	0.09552	-1.408719
Cl	1.782122	0.0	0.0
H	0.14956	0.624186	-2.060758
H	-0.351841	-0.909401	0.473427
H	-0.323477	0.848023	0.596056
H	-1.505855	0.619808	-1.278303
N	-0.801092	-1.265595	-1.914896
H	-1.701749	-1.476637	-1.487978
H	-0.959116	-1.211409	-2.915721
F	-2.757912	0.0	0.0
