11

C	0.0	0.0	0.0
C	-0.548507	0.049872	-1.399624
Cl	1.792511	0.0	0.0
H	-0.244623	-0.860582	-1.943676
H	-0.348789	-0.892169	0.512009
H	-0.339721	0.878781	0.538584
H	-1.642923	0.036984	-1.172873
N	-0.151319	1.289495	-2.075446
H	0.770936	1.187505	-2.484673
H	-0.802966	1.465978	-2.829537
F	-2.835076	0.0	0.0
