14

C	-0.527788	-0.010938	-1.411421
C	0.0	0.0	0.0
Br	0.303245	1.586787	-2.354698
H	1.089304	0.0	0.0
H	-0.32041	0.928776	0.482655
N	0.020575	-1.196186	-2.213162
O	1.015383	-1.757583	-1.779288
O	-0.606474	-1.500103	-3.226916
N	-1.918619	-0.06667	-1.525692
H	-2.362737	0.686437	-1.021663
H	-2.230318	-0.122743	-2.485164
C	-0.506363	-1.143789	0.737905
N	-0.890555	-2.067716	1.355054
Br	2.915781	0.0	0.0
