14

C	-0.455138	0.002265	-1.442082
C	0.0	0.0	0.0
Br	-2.521438	0.149815	-1.470889
H	1.093113	0.0	0.0
H	-0.313079	-0.957905	0.430598
N	-0.051063	1.254185	-2.209389
O	0.267765	2.235344	-1.560221
O	-0.092654	1.168084	-3.430938
N	0.035439	-1.077376	-2.142788
H	-0.22235	-1.083427	-3.118749
H	-0.073828	-1.966409	-1.679486
C	-0.538088	1.060666	0.838045
N	-0.952483	1.872779	1.576459
Br	3.463779	0.0	0.0
