14

C	-0.520238	-0.013006	-1.414436
C	0.0	0.0	0.0
Br	0.328368	1.575908	-2.351542
H	1.089345	0.0	0.0
H	-0.328994	0.92448	0.483875
N	0.027675	-1.204552	-2.205877
O	-0.592363	-1.51798	-3.218364
O	1.049101	-1.726973	-1.789904
N	-1.909585	-0.058817	-1.530102
H	-2.358145	0.69569	-1.031028
H	-2.232182	-0.135412	-2.484728
C	-0.502	-1.147369	0.732045
N	-0.8858	-2.076207	1.348599
Br	2.755336	0.0	0.0
