14

C	-0.370032	0.027901	-1.484332
C	0.0	0.0	0.0
Br	-0.027333	-1.689018	-2.301144
H	1.096042	0.0	0.0
H	-0.314268	0.959183	0.426662
N	-1.86858	0.364224	-1.586515
O	-2.688882	-0.502938	-1.850155
O	-2.126922	1.537069	-1.316217
N	0.334036	1.037081	-2.221453
H	0.143398	1.933022	-1.782021
H	1.33002	0.845257	-2.106929
C	-0.585227	-1.085702	0.767642
N	-1.080558	-1.938643	1.405235
Br	3.423912	0.0	0.0
