14

C	-0.303652	-0.084579	-1.494304
C	0.0	0.0	0.0
Br	-2.237393	-0.207769	-1.837499
H	1.097147	0.0	0.0
H	-0.388915	0.911685	0.451615
N	0.130344	1.267017	-2.102135
O	0.80937	1.241495	-3.116648
O	-0.255836	2.268699	-1.510661
N	0.35706	-1.122124	-2.198304
H	0.046878	-2.016171	-1.834305
H	1.360226	-1.029327	-2.024536
C	-0.481925	-1.185346	0.688133
N	-0.867381	-2.155625	1.226102
Br	3.407971	0.0	0.0
