14

C	-0.458358	0.008988	-1.431762
C	0.0	0.0	0.0
Br	-0.110263	-1.79066	-2.251577
H	1.094422	0.0	0.0
H	-0.332171	0.939139	0.449743
N	-1.978113	0.172101	-1.565975
O	-2.405299	0.422261	-2.688814
O	-2.64042	0.098619	-0.540318
N	0.102844	1.080463	-2.149907
H	-0.259251	1.12533	-3.094819
H	1.116172	1.026131	-2.154174
C	-0.466064	-1.120198	0.789707
N	-0.787695	-2.016096	1.484133
Br	2.754666	0.0	0.0
