15

C	-0.584866	-0.052234	-1.402735
C	0.0	0.0	0.0
Br	0.242154	-1.414406	-2.497571
H	1.093934	0.0	0.0
H	-1.654849	-0.258422	-1.395719
N	-0.456871	1.259289	-2.135393
O	-1.425435	1.577189	-2.827198
O	0.5812	1.891492	-1.997807
C	-0.423819	-1.239297	0.800496
H	0.009737	-2.130498	0.346213
H	-0.027441	-1.156741	1.813216
H	-1.512135	-1.343956	0.850823
C	-0.517395	1.199895	0.655586
N	-1.001923	2.128341	1.188193
Cl	3.293995	0.0	0.0
