15

C	-0.390899	-0.011573	-1.468117
C	0.0	0.0	0.0
Br	0.012797	1.62918	-2.388038
H	1.096271	0.0	0.0
H	0.134636	-0.815298	-1.980575
N	-1.857871	-0.323066	-1.619081
O	-2.670533	0.512527	-1.239129
O	-2.126655	-1.444766	-2.053289
C	-0.449459	-1.292883	0.691076
H	4.9e-05	-1.329347	1.68421
H	-1.536244	-1.354498	0.790467
H	-0.089867	-2.1567	0.127704
C	-0.496159	1.169451	0.716836
N	-0.869567	2.083252	1.353616
Cl	3.253206	0.0	0.0
