15

C	-0.373448	-0.027324	-1.472983
C	0.0	0.0	0.0
Br	-0.085622	1.643559	-2.382986
H	1.096342	0.0	0.0
H	0.218571	-0.784492	-1.983343
N	-1.809964	-0.443877	-1.651367
O	-1.993161	-1.545514	-2.170124
O	-2.683323	0.296151	-1.213987
C	-0.431368	-1.302857	0.685113
H	-1.518177	-1.386509	0.768677
H	-0.043471	-2.157731	0.126614
H	0.005082	-1.331478	1.684442
C	-0.51846	1.159166	0.714372
N	-0.928551	2.060128	1.347032
Cl	3.249975	0.0	0.0
