15

C	-0.403102	0.05603	-1.468949
C	0.0	0.0	0.0
Br	-2.312771	0.284963	-1.762624
H	1.096556	0.0	0.0
H	0.09815	0.879513	-1.972658
N	0.040139	-1.185591	-2.200136
O	-0.567176	-2.230894	-1.985746
O	0.999375	-1.044081	-2.952594
C	-0.500518	-1.205283	0.793644
H	-0.186644	-1.084303	1.831715
H	-1.588042	-1.297145	0.754675
H	-0.048754	-2.118564	0.410478
C	-0.432671	1.246625	0.627446
N	-0.804648	2.229998	1.15194
Cl	3.239699	0.0	0.0
