15

C	-0.371204	0.283584	-1.445554
C	0.0	0.0	0.0
Br	-0.084236	2.110333	-1.98852
H	1.09512	0.0	0.0
H	0.22428	-0.3456	-2.10455
N	-1.804798	-0.082673	-1.718678
O	-1.988813	-0.990241	-2.533087
O	-2.67691	0.491908	-1.075402
C	-0.433457	-1.418239	0.395077
H	-0.040698	-2.1354	-0.329258
H	-1.520775	-1.516306	0.454603
H	-0.000418	-1.655891	1.368062
C	-0.51482	0.988047	0.941618
N	-0.923365	1.743095	1.744415
Cl	3.256808	0.0	0.0
