15

C	-0.581276	-0.086511	-1.402422
C	0.0	0.0	0.0
Br	0.238886	-1.486525	-2.455052
H	1.09485	0.0	0.0
H	-1.653292	-0.285133	-1.394783
N	-0.440651	1.201175	-2.175429
O	-1.376074	1.47014	-2.929846
O	0.5734	1.863063	-2.006279
C	-0.426268	-1.219566	0.828933
H	-1.51488	-1.325753	0.87453
H	-0.037732	-1.109435	1.842264
H	0.012591	-2.12133	0.401402
C	-0.518497	1.215983	0.624737
N	-0.997223	2.165714	1.125001
Cl	3.294017	0.0	0.0
