15

C	-0.578103	0.01184	-1.406979
C	0.0	0.0	0.0
Br	0.204449	-1.344356	-2.54029
H	1.093998	0.0	0.0
H	-1.655265	-0.151971	-1.413445
N	-0.39253	1.343458	-2.089866
O	-1.368546	1.758245	-2.716776
O	0.69062	1.897716	-1.975887
C	-0.440601	-1.258923	0.756808
H	-0.001349	-2.138995	0.286773
H	-1.530034	-1.361021	0.784177
H	-0.064077	-1.204876	1.77915
C	-0.5035	1.186921	0.691187
N	-0.966536	2.111823	1.249041
Cl	3.297892	0.0	0.0
