15

C	-0.384763	0.020895	-1.471262
C	0.0	0.0	0.0
Br	-2.307123	-0.085941	-1.795459
H	1.098688	0.0	0.0
H	-0.044086	0.936759	-1.948372
N	0.25807	-1.086953	-2.264645
O	0.103184	-2.239024	-1.877076
O	0.869768	-0.73631	-3.269039
C	-0.488582	-1.174203	0.847503
H	-0.144868	-1.01803	1.871303
H	-0.058566	-2.102127	0.479506
H	-1.577908	-1.249577	0.844476
C	-0.453855	1.264194	0.57487
N	-0.845891	2.265461	1.048656
Cl	3.23744	0.0	0.0
