17

C	0.0	0.0	0.0
C	-0.57305	-0.082329	-1.419057
Br	2.062183	0.0	0.0
H	-1.64807	-0.19894	-1.201743
N	-0.496174	1.116549	0.636059
H	-0.196528	1.275016	1.582703
H	-0.500393	1.923878	0.028174
C	-0.261251	-1.225612	0.762849
N	-0.428583	-2.212803	1.377722
C	-0.06917	-1.263408	-2.227996
H	-0.199303	-2.20287	-1.685836
H	-0.644219	-1.327887	-3.155982
H	0.990116	-1.149553	-2.475724
N	-0.392444	1.218754	-2.05488
H	-1.225369	1.447164	-2.58266
H	0.405667	1.201491	-2.678985
Br	-3.950229	0.0	0.0
