17

C	0.0	0.0	0.0
C	-0.573495	-0.117036	-1.417078
Br	2.062753	0.0	0.0
H	-1.64857	-0.23207	-1.198886
N	-0.496719	1.130813	0.609611
H	-0.506549	1.921986	-0.019223
H	-0.198097	1.311564	1.553715
C	-0.26277	-1.207059	0.790477
N	-0.434745	-2.181946	1.423966
C	-0.066262	-1.316802	-2.197337
H	0.989827	-1.201365	-2.456738
H	-0.18402	-2.24131	-1.627942
H	-0.648828	-1.411966	-3.117585
N	-0.395788	1.168853	-2.083129
H	0.405629	1.140625	-2.702694
H	-1.226662	1.383469	-2.619673
Br	-3.965082	0.0	0.0
