17

C	0.0	0.0	0.0
C	-0.58502	-0.132947	-1.411062
Br	2.062201	0.0	0.0
H	-1.656641	-0.258965	-1.181172
N	-0.490905	1.140491	0.600607
H	-0.172182	1.331739	1.536064
H	-0.490977	1.924366	-0.03764
C	-0.260509	-1.19776	0.80612
N	-0.431012	-2.163079	1.454412
C	-0.069986	-1.332055	-2.186847
H	0.984968	-1.208702	-2.449827
H	-0.176821	-2.254723	-1.611122
H	-0.654509	-1.437575	-3.104629
N	-0.429025	1.148553	-2.090703
H	-1.286598	1.372837	-2.578175
H	0.335287	1.111823	-2.753723
Br	-3.975546	0.0	0.0
