17

C	0.0	0.0	0.0
C	-0.356563	-0.042746	-1.536161
Br	2.059806	0.0	0.0
H	0.420146	-0.659814	-2.001059
N	-0.616109	1.01065	0.689563
H	-0.907359	0.882017	1.641276
H	-0.534606	1.95438	0.35836
C	-0.290055	-1.299348	0.608952
N	-0.48955	-2.361577	1.070605
C	-0.310494	1.363236	-2.117258
H	-0.372838	1.291054	-3.203226
H	0.605744	1.895942	-1.849449
H	-1.185138	1.924863	-1.780205
N	-1.63044	-0.635737	-1.83023
H	-2.4113	-0.219783	-1.314247
H	-1.637154	-1.626181	-1.618701
Br	-4.440885	0.0	0.0
