17

C	-0.523831	0.007066	-1.430827
C	0.0	0.0	0.0
Br	0.321552	1.470434	-2.400485
H	1.090289	0.0	0.0
N	-0.122015	-1.265047	-2.19964
O	-0.821465	-1.544502	-3.165421
O	0.876964	-1.840977	-1.809112
C	-1.967826	0.170827	-1.531589
N	-3.124227	0.381141	-1.569065
N	-0.459422	-1.259488	0.672233
O	-1.254913	-1.986179	0.069533
O	-0.031015	-1.463867	1.800271
C	-0.498537	1.169043	0.834292
H	-0.170371	2.108405	0.390624
H	-0.048111	1.086502	1.823022
H	-1.58881	1.166578	0.92483
Br	3.406766	0.0	0.0
