17

C	-0.49515	-0.002086	-1.43569
C	0.0	0.0	0.0
Br	0.193234	1.598143	-2.325391
H	1.09002	0.0	0.0
N	0.051065	-1.222176	-2.238482
O	-0.041825	-1.15959	-3.4553
O	0.492119	-2.136879	-1.556674
C	-1.936246	-0.045572	-1.65366
N	-3.035091	-0.149617	-2.080049
N	-0.394043	-1.263734	0.714088
O	0.477861	-1.814172	1.373006
O	-1.56748	-1.631273	0.624602
C	-0.595225	1.131672	0.818612
H	-0.285975	1.008768	1.859914
H	-0.23156	2.098404	0.473423
H	-1.688898	1.118287	0.780592
Br	2.75661	0.0	0.0
