12

C	0.0	0.0	0.0
C	-0.502493	0.163022	-1.419933
F	1.348762	0.0	0.0
H	-0.1048	-0.664164	-2.018574
H	-0.37019	-0.95827	0.400775
H	-1.599512	0.076175	-1.364605
N	-0.580502	0.990255	0.904334
O	-1.727554	1.411408	0.446865
O	-0.331766	0.787355	2.119561
C	-0.109205	1.425411	-2.034672
N	0.188475	2.410081	-2.598576
H	-2.824397	0.0	0.0
