12

C	0.0	0.0	0.0
C	-0.477584	0.041198	-1.442405
F	1.348863	0.0	0.0
H	0.004876	-0.776051	-1.985352
H	-0.375314	-0.923708	0.475575
H	-1.566763	-0.111296	-1.4206
N	-0.589537	1.096145	0.750784
O	-1.792049	1.344203	0.27984
O	-0.211024	1.228786	1.940173
C	-0.152284	1.301001	-2.103446
N	0.105252	2.275054	-2.704514
H	-2.889421	0.0	0.0
