12

C	0.0	0.0	0.0
C	-0.484766	-0.215655	-1.426356
F	1.348337	0.0	0.0
H	-1.573986	-0.361921	-1.365689
H	-0.375981	-0.800001	0.657926
H	-0.28609	0.683644	-2.013685
N	-0.590455	1.219477	0.550356
O	-1.746245	1.449917	-0.015982
O	-0.338527	1.424501	1.763566
C	0.161775	-1.371897	-2.039009
N	0.659545	-2.305964	-2.548222
H	-2.805312	0.0	0.0
