12

C	0.0	0.0	0.0
C	-0.485191	-0.338925	-1.402386
F	1.348395	0.0	0.0
H	-0.298053	0.510086	-2.063726
H	-0.37396	-0.741207	0.725292
H	-1.572546	-0.489943	-1.327223
N	-0.591389	1.261384	0.441503
O	-1.74722	1.440925	-0.142939
O	-0.337692	1.573361	1.63179
C	0.171533	-1.535937	-1.919088
N	0.677254	-2.50311	-2.352438
H	-2.805735	0.0	0.0
