13

C	0.0	0.0	0.0
C	-0.609073	-0.036492	-1.388825
Br	1.953004	0.0	0.0
H	-1.715579	-0.071683	-1.161
H	-0.282248	-0.91206	0.527971
H	-0.383866	0.885854	-1.934242
C	-0.50773	1.211799	0.753539
H	-1.605673	1.128761	0.74373
H	-0.189311	2.133042	0.256374
H	-0.136478	1.221333	1.781134
C	-0.207018	-1.183081	-2.189066
N	0.114259	-2.107799	-2.838835
H	-3.193405	0.0	0.0
