17
Coordinates from ORCA-job run
  C   -0.64828797149842     -0.59499906574519     -0.38946962198478
  C   0.78020632397299     -0.06619585529714     -0.20540900786350
  Cl  -0.77237109520596     -1.54174729622644     -1.85835262070448
  H   1.41243545037676     -0.96111315947173     -0.26578838847641
  N   -1.10462780306537     -1.51036627017382      0.73875586499579
  O   -2.31017217653112     -1.59486229634573      0.92269803115562
  O   -0.22087262784564     -2.13567848922396      1.31172591331135
  N   -1.63302133279699      0.56855233332530     -0.41248254698408
  O   -2.18044672229502      0.86460993538255     -1.45774273670407
  O   -1.74271962675923      1.12415064930247      0.67440923606079
  C   1.05084270188963      0.63036496784554      1.12196705720573
  H   0.54686200522887      1.59473521313063      1.16291551986789
  H   0.74762983510869      0.03093540739645      1.97750515744080
  H   2.12957300995283      0.79387539178713      1.19599722164037
  N   0.98844507656406      0.88446308781815     -1.28934965454782
  H   1.76035706566133      1.49837311259480     -1.06600235919604
  H   1.19516788724258      0.41690233390100     -2.16237706521716
