17
Coordinates from ORCA-job run
  C   -0.81717803248279     -0.11320214061433     -0.22163212456539
  C   0.66213968274139     -0.00078990993307      0.14218378176963
  Cl  -1.27358360503238      0.89248112029446     -1.56293345514684
  H   0.76590929924561     -0.58535138137761      1.05885521592547
  N   -1.10464176772276     -1.59454248237731     -0.52386030888900
  O   -1.43704672937631     -1.92195899308845     -1.64479193336136
  O   -0.93969177410142     -2.31277460390984      0.45436224660928
  N   -1.75317526846877      0.17420196673801      0.95534705706828
  O   -2.94840099077356      0.07770330246363      0.71541188609235
  O   -1.23568001690551      0.43107371534780      2.03554081172098
  C   1.11627238604260      1.43242919491887      0.39206423167537
  H   1.08156079704316      2.01617920276569     -0.52983563764071
  H   2.15169538314620      1.41099241827920      0.73962416024668
  H   0.51294827970268      1.93153573146023      1.15021022491288
  N   1.38138425120030     -0.69955964937482     -0.91333283014187
  H   1.58136767837806     -0.07634284793884     -1.68630254317135
  H   2.25712042736350     -1.06207464365364     -0.56191078310439
