17
Coordinates from ORCA-job run
  C   -0.78744369323069     -0.22870372095198     -0.27940113162536
  C   0.68884361141193      0.03221119459857      0.04971904703919
  Cl  -1.34930071970547      0.57454155762493     -1.70358329848420
  H   0.88863944328436     -0.58365016388456      0.93503191952867
  N   -1.07543941344314     -1.72861830965868     -0.41495623558665
  O   -2.24418606367793     -2.02668684689969     -0.61018588414230
  O   -0.12974657440797     -2.49729223343153     -0.29019499255037
  N   -1.61583640052896      0.16535689938811      0.94737261002857
  O   -2.30989224995861      1.16649882635830      0.89965770961667
  O   -1.42916378430146     -0.56747849387761      1.91383031543403
  C   0.89811127028553      1.49903959171536      0.39995266588654
  H   0.28066789340361      1.82081433109643      1.23908383046446
  H   0.68125103693222      2.13386411778570     -0.46063303618259
  H   1.94232714777862      1.64429928924763      0.68640309988301
  N   1.48936294418988     -0.33607876534177     -1.09909976681117
  H   2.31721028953102      0.23952840327869     -1.15857456864383
  H   1.75759526243708     -1.30864567704790     -1.05442228385468
