17
Coordinates from ORCA-job run
  C   -0.77176911493129     -0.48687504579059     -0.37528255130054
  C   0.74116915558708     -0.11314582611768     -0.26062241217916
  Cl  -1.23173214448034     -0.94113226483605     -1.98695719034259
  H   1.22874837390103     -1.08806755915886     -0.12357963488459
  N   -1.07256981226584     -1.63923905383587      0.59784563276396
  O   -0.78549222209384     -1.39584703159800      1.76395731573244
  O   -1.52603232738033     -2.68409936306629      0.16159077792013
  N   -1.69514042709110      0.65250507184088      0.04421112093321
  O   -1.38226587074917      1.75742757086829     -0.37606448549897
  O   -2.68053331125080      0.36450364472932      0.71108871138131
  C   1.06598691385261      0.76424882626990      0.94825134000994
  H   0.74685346952016      1.79005229559927      0.75818552723103
  H   2.14928552949285      0.75981120382244      1.08666810319775
  H   0.60010900420550      0.41313789038886      1.86510006116406
  N   1.18834737181611      0.51935268815890     -1.47927438878546
  H   1.78482561323926     -0.07536618747956     -2.03265534604753
  H   1.64220979862811      1.40173314020506     -1.30146258129496
