17
Coordinates from ORCA-job run
  C   -0.78076798149840     -0.23974676771972     -0.28791244791548
  C   0.68791639598937      0.03208311248668      0.06564318016165
  Cl  -1.30207657099994      0.49170325768955     -1.76516201908267
  H   0.86216062656578     -0.53883241227988      0.98578418008580
  N   -1.07269849359727     -1.74343284294314     -0.35436076946697
  O   -2.23777795563130     -2.04694925868726     -0.56280918644872
  O   -0.13414131584463     -2.50847894242110     -0.16811092118094
  N   -1.63856821674976      0.21901574429078      0.89523232216956
  O   -2.32765922345317      1.21790922263016      0.77856762786637
  O   -1.47927338528973     -0.46365596956260      1.90251456796825
  C   0.89432389851219      1.51406203813029      0.34749741492499
  H   0.25964295853579      1.87727963150163      1.15635770191784
  H   1.93239385382920      1.67137247396675      0.64949497710769
  H   0.69803749870844      2.10675341658154     -0.54736480172582
  N   1.51573764967614     -0.39593141781619     -1.04197985965469
  H   2.34735493392553      0.17308856364564     -1.11009000969324
  H   1.77739532732176     -1.36623984949313     -0.94330195703361
