17
Coordinates from ORCA-job run
  C   -0.76246149645368     -0.05930742403946     -0.22094063338165
  C   0.71596984212001      0.02683129194716      0.20734855690069
  Cl  -1.17933796640050      1.04409889537192     -1.49669240147484
  H   0.77728257720903     -0.57719748714822      1.11590164192598
  N   -1.02298881985867     -1.50789537502243     -0.64691047142259
  O   -0.95057446232838     -2.30061037456620      0.28635273474478
  O   -1.19735571860869     -1.76365946781327     -1.82539035505410
  N   -1.75051933699098      0.13145271412947      0.93456010201984
  O   -2.92983854141950     -0.01795879865344      0.64843980893847
  O   -1.28226939044463      0.38400279893043      2.03729476246774
  C   1.14376748656948      1.45447841921392      0.51202410221855
  H   0.45518468514450      1.95329110471250      1.19258281631780
  H   1.22260999283352      2.03880116667257     -0.40639669352153
  H   2.13176926181157      1.41476518740756      0.97127725088490
  N   1.61115213627698     -0.54893638602006     -0.77157786974477
  H   1.51095088376735     -1.55170324396066     -0.85488672225804
  H   1.50565886677258     -0.12145302116180     -1.68298662956123
