17
Coordinates from ORCA-job run
  C   -0.78902274008398     -0.07426422802564     -0.13004565724205
  C   0.74635856602033      0.09249260710618     -0.14642218091565
  Cl  -1.64906752408609      1.43640447161061     -0.09656228669567
  H   1.12929570620769     -0.91635360314165     -0.32361733046785
  N   -1.30603990532524     -0.88065194223137     -1.32540329105014
  O   -0.50903222130948     -1.13854788895028     -2.21944579366821
  O   -2.48464766277183     -1.19953601973599     -1.27549250250744
  N   -1.15973325988619     -0.95221299518679      1.06197249066965
  O   -1.72901103839500     -0.45472375670622      2.01784797705954
  O   -0.75546714381652     -2.10492951548928      0.94637366466107
  C   1.22878166119044      0.58384132619806      1.21288892412339
  H   0.76975822526624      1.53930135175840      1.47777680806517
  H   2.30734997626257      0.72655512639690      1.14645869973199
  H   1.02320370993593     -0.13085132933196      2.01058952163019
  N   1.25365070258409      0.95148721379316     -1.18654226942214
  H   0.93656881644173      1.90495016692821     -1.06747271630868
  H   0.98805413176530      0.61603901500766     -2.10190405766317
