17
Coordinates from ORCA-job run
  C   -0.67350004286384     -0.54260640188492      0.38165443020066
  C   0.76057020365778     -0.11207144500419      0.05768112994878
  Cl  -0.81597456241193     -1.19081314818127      1.99652732334191
  H   1.34310575841587     -0.99688714363017      0.33232531796826
  N   -1.70625661448567      0.56451980755193      0.18368150785383
  O   -1.37032815159649      1.47860522364307     -0.56293525181178
  O   -2.78643602682545      0.43404136499899      0.73640518737139
  N   -1.05931806471824     -1.63382117302971     -0.62811103839665
  O   -0.39202403401074     -2.65110925827623     -0.55661158792875
  O   -1.95332840030737     -1.37520426285453     -1.41736415700245
  C   1.23054567822825      1.07131223099528      0.90122849419824
  H   1.08226568191925      0.90619872171447      1.96996369528016
  H   0.71243777612099      1.98483768005576      0.60820609063537
  H   2.29915049424668      1.21620678850679      0.72862497632892
  N   0.87986191203736      0.03797351876254     -1.38124202172990
  H   1.82442896082820     -0.16285023904728     -1.67893865731890
  H   0.62479943176536      0.97166773567946     -1.67209543893908
