17
Coordinates from ORCA-job run
  C   -0.77376247724651     -0.12712094743728     -0.13721333897583
  C   0.72878478865540      0.09050153144918      0.13103291478326
  Cl  -1.39766713570171      0.86274501358245     -1.42176501845873
  H   0.92608342984875     -0.45010273213661      1.05986206607733
  N   -0.96268190153253     -1.61401066945726     -0.45408317959463
  O   -0.73590279878997     -2.33990574130624      0.50837375149369
  O   -1.23430456006953     -1.95423768308927     -1.59208296892146
  N   -1.65416503276745      0.06510704748131      1.10153334162937
  O   -1.09978851569233      0.41923993404493      2.13420398243975
  O   -2.84095976671897     -0.18586657653385      0.94783886587590
  C   1.07317340818263      1.56131923470675      0.31000154408284
  H   2.10022476085932      1.62152042926245      0.67076843709688
  H   1.02049012342882      2.08842663191797     -0.64423823889497
  H   0.41582697290420      2.05415778080304      1.02493278559457
  N   1.56463122691116     -0.48030999755013     -0.90208465623934
  H   1.53483759409045     -1.49097037341522     -0.91813172731782
  H   1.33517988363827     -0.12049288232222     -1.81994856067082
