17
Coordinates from ORCA-job run
  C   -0.72904817406133     -0.50419816101897     -0.46967463464442
  C   0.75371083098527     -0.13006049944149     -0.30750479106648
  Cl  -1.00144547982533     -1.41962901162097     -1.92392176134752
  H   1.26766530340860     -1.07070565434956     -0.52830488887504
  N   -1.13821621420067     -1.33568096843262      0.74606632033394
  O   -1.81275174246209     -0.77426914735765      1.59990417917163
  O   -0.66183737551648     -2.45950103049576      0.79602272489704
  N   -1.66647824860186      0.70159292152101     -0.45944125388150
  O   -2.81726556125356      0.50352689439505     -0.81380025985172
  O   -1.19615481649818      1.75768267761189     -0.05134509629204
  C   1.14041529083518      0.29187184043236      1.11060682940812
  H   2.21210095700487      0.50339598444337      1.11328208879340
  H   0.60870642210235      1.18940309179294      1.42257310487624
  H   0.96280065506657     -0.49962684678151      1.84176625143113
  N   1.07782073911971      0.81267643351935     -1.36168515091823
  H   2.02541549421762      0.67382492295564     -1.68255650446677
  H   0.97456191967933      1.76269655282691     -1.03098715756777
