17
Coordinates from ORCA-job run
  C   -0.67362009101069     -0.51591214568272     -0.37800943885744
  C   0.82183707540428     -0.12483929077570     -0.27224716064886
  Cl  -0.96641984149140     -1.47134550364305     -1.81370141862694
  H   1.32618798839309     -1.09198084958041     -0.37659318839095
  N   -1.03012675408840     -1.32582734741959      0.86498725381344
  O   -0.58627098891152     -2.46360074391555      0.90056314395846
  O   -1.62186787542065     -0.72728189687371      1.75442211405536
  N   -1.65524995759394      0.65258948948749     -0.38713281833539
  O   -1.19043510486105      1.77519428138493     -0.21765328442861
  O   -2.83138790489422      0.36509556487159     -0.54565119185786
  C   1.19286383112650      0.45378898166540      1.08882278806860
  H   2.26198169992548      0.66623285925853      1.06384999803709
  H   0.65874850437389      1.38023101481412      1.29537138599363
  H   1.00517668177722     -0.25022458989511      1.90044792187560
  N   1.29491333555914      0.72843071171171     -1.33507407081312
  H   0.84536121085545      1.63306009152903     -1.29564185871467
  H   1.14730819085684      0.31638937306305     -2.24676017512833
