17
Coordinates from ORCA-job run
  C   -0.78938556099387     -0.24027189833111     -0.26415335796346
  C   0.68907015778679      0.04005363991590      0.03851497634448
  Cl  -1.38157434194432      0.53896116810989     -1.68935844115506
  H   0.90903540994658     -0.56227136509954      0.92836156342561
  N   -1.06385619788867     -1.74453400990006     -0.37614505431047
  O   -0.10834010247118     -2.50198943583456     -0.25786130410521
  O   -2.23260556356809     -2.05679044522558     -0.54798669068356
  N   -1.60261323039345      0.16095541555850      0.97041405512087
  O   -1.39243302464029     -0.55705080063484      1.94318076659155
  O   -2.30860823313979      1.15359524339359      0.92078571144977
  C   0.88830421995979      1.51334240791785      0.36660777898425
  H   0.65216448482091      2.13457487532832     -0.49880834378276
  H   1.93496048697059      1.67322385141936      0.63578523486355
  H   0.27973614229920      1.83973480046785      1.21044302031597
  N   1.47567984866312     -0.33454186247358     -1.11776742894541
  H   2.29693149839151      0.24803017138265     -1.19700372233682
  H   1.75353400620117     -1.30402175599465     -1.06600876381328
