17
Coordinates from ORCA-job run
  C   -0.72028487748403     -0.23208743046266     -0.27009736865789
  C   0.75812159754919      0.00713412762014      0.10716494925312
  Cl  -1.18547636334170      0.52870833381385     -1.76283542769332
  H   0.93135294974015     -0.64947290538213      0.96435579836827
  N   -1.06665091279187     -1.72055407805501     -0.37554932698342
  O   -2.25564641438517     -1.97729657196204     -0.49385512608761
  O   -0.13974915604542     -2.52061264414007     -0.33158318811147
  N   -1.59073317064863      0.24140915666460      0.89043698786611
  O   -1.44927685921884     -0.44155409793423      1.90000577534312
  O   -2.26332889195684      1.24964444705390      0.76121376074353
  C   0.95691512260806      1.45641097174840      0.53345186881631
  H   2.01571605074375      1.59093812963881      0.75467160592016
  H   0.68054990415511      2.14820673861691     -0.26582695714549
  H   0.38246305364437      1.71177234900012      1.42457743563684
  N   1.71050898907073     -0.33657520400611     -0.91825059611203
  H   1.63102005973274     -1.30829359355125     -1.18336973083636
  H   1.60349891862841      0.25022227133675     -1.73551046031988
