17
Coordinates from ORCA-job run
  C   -0.63973503569510     -0.59069616227288     -0.41016788516899
  C   0.78351143414556     -0.05981103835771     -0.19469919478149
  Cl  -0.73748935879303     -1.51013458169260     -1.89801727192059
  H   1.42066338162391     -0.95076260424156     -0.26082672861597
  N   -1.10903568930869     -1.52851011402424      0.69378776429801
  O   -2.31688760256444     -1.62241500542821      0.85704852129430
  O   -0.23097061525735     -2.15868898826436      1.27017661528533
  N   -1.62911669130875      0.56937695835591     -0.42654406358624
  O   -2.16309157587687      0.88121422161531     -1.47417294207168
  O   -1.75790638723978      1.10455882736948      0.66840541750141
  C   1.03045535462314      0.61470112940330      1.14874539936694
  H   0.52379799170256      1.57734114927939      1.19712483085681
  H   0.71390543306033      0.00068397413296      1.98892999186875
  H   2.10743375712982      0.77884144530658      1.24360816302111
  N   1.00511257951743      0.91006573248944     -1.25885959100523
  H   1.23261764726724      0.45822912481229     -2.13495730079064
  H   1.76773537697405      1.52600593151690     -1.01058172555184
