18

C	0.0	0.0	0.0
C	-0.527504	-0.094508	-1.455343
Cl	1.769833	0.0	0.0
H	-1.576628	-0.381104	-1.341538
N	-0.5362	1.088572	0.693468
H	-0.311227	1.009353	1.678896
H	-1.558766	1.024868	0.583958
N	-0.308531	-1.344744	0.772348
O	-0.472507	-2.379692	0.136614
O	-0.322438	-1.260687	1.995266
N	0.122977	-1.056599	-2.330143
H	0.042334	-1.977282	-1.921655
H	1.107919	-0.833932	-2.411177
C	-0.469549	1.281064	-2.105969
H	-0.808036	1.170321	-3.137574
H	-1.111321	1.992024	-1.591161
H	0.552564	1.673764	-2.110557
Cl	-3.58583	0.0	0.0
