14
Coordinates from ORCA-job run
  C   0.60563998455801     -0.39955776903521     -0.17909574085939
  C   -0.79159793163608     -0.27841846253953     -0.74177620077798
  Br  1.60982234077942     -1.59514645061680     -1.29231811308442
  H   -0.72639447740832      0.10191269933533     -1.76161384988940
  H   -1.29473442279014     -1.24290392114564     -0.72860238192919
  N   1.31811622513784      0.96639472269359     -0.18170931816983
  O   1.84147018096474      1.33597826329286      0.85294534339153
  O   1.28120289873180      1.53761590651317     -1.25870155200356
  N   0.60745038882455     -0.93902741554010      1.24739586215294
  O   1.68371972460936     -1.27462954560707      1.71192826229504
  O   -0.48909857802205     -0.97386407995295      1.79708899035565
  N   -1.66474983739487      0.67955988546178      0.01089454401657
  O   -2.86701799803370      0.47148684802590     -0.06761015588226
  O   -1.11382849832057      1.60859931911468      0.59017431038430
