14
Coordinates from ORCA-job run
  C   0.55675031488408     -0.45276738596183     -0.22940378076968
  C   -0.83977894671555     -0.16588880107425     -0.74497712726180
  Br  1.38395874234354     -1.73984933345815     -1.37554339582174
  H   -1.40827290860672     -1.09283808968425     -0.79916141174644
  H   -0.74977657016215      0.30398698906687     -1.72367170395711
  N   1.45125649690865      0.79641521371406     -0.25204477228336
  O   2.25532488713875      0.90467040700646      0.66024683795540
  O   1.31589697220795      1.51450933902897     -1.22807003657745
  N   0.51361289090728     -0.93560484542783      1.22412356300667
  O   0.02904322630267     -0.10707993784751      1.98487099302874
  O   0.92857459351034     -2.04850683242992      1.49520107779462
  N   -1.61753456392359      0.77741030751922      0.12505432658161
  O   -2.61038102541259      0.31453913291225      0.67663130798217
  O   -1.20867410938267      1.93000383663591      0.18874412206835
