14
Coordinates from ORCA-job run
  C   0.56737155173764     -0.40213719728996     -0.27314168687601
  C   -0.82366760624833     -0.06282459068217     -0.75622919457742
  Br  1.38003486228753     -1.59108747774721     -1.53948539284666
  H   -0.78141756708532      0.45268440478199     -1.71331282664795
  H   -1.39774082034229     -0.98536513590916     -0.84713677710682
  N   1.44501492693280      0.83649110490668     -0.12968695048950
  O   0.85452549371459      1.90990005835079     -0.19961006147227
  O   2.63751615835626      0.65348469676961      0.04755451604543
  N   0.51466455180333     -1.12055505801733      1.08890309414132
  O   1.22064884157805     -0.69395041951173      1.98367337702949
  O   -0.24889022123526     -2.07126539928598      1.11379275763171
  N   -1.58888118469796      0.82090466452608      0.18180178624732
  O   -2.46600428959749      1.50115186891652     -0.33090965884306
  O   -1.31217469720355      0.75156848019187      1.37378701776443
