14
Coordinates from ORCA-job run
  C   0.51185868875681     -0.25843141482971     -0.10770261068445
  C   -0.99973942958621     -0.21672387986913     -0.14642004679319
  Br  1.28144753742786     -0.48366259350345     -1.83068275975262
  H   -1.38737162606374     -0.03672794024894      0.85719715336008
  H   -1.40008634690142     -1.14063927416977     -0.55283374532571
  N   1.07401974334561      0.96802048297431      0.63593259965040
  O   1.94627628115089      1.63399112237811      0.11800693850023
  O   0.56585940031427      1.10719395352167      1.74126118322708
  N   0.96256940839169     -1.42956296548363      0.77617396737238
  O   2.12825516912678     -1.39898797031772      1.13611150664913
  O   0.12410165397998     -2.28600733666692      1.02246614106686
  N   -1.47644199412802      0.90183869093035     -1.01356428505266
  O   -2.42946799000491      0.65963196222319     -1.74483456804461
  O   -0.90028049580959      1.97906716306164     -0.89211147417290
