14
Coordinates from ORCA-job run
  C   0.35724372170702     -0.20389322933119      0.41368614470292
  C   -0.93916425552448     -0.22962015095634     -0.36530866767980
  Br  0.08231843170489     -0.01716857584545      2.28483953692142
  H   -0.72413822276816     -0.28776896944374     -1.43315160454563
  H   -1.55980180639695     -1.06389468803124     -0.05247748428131
  N   1.11992425576720     -1.51321579571597      0.16887668247575
  O   2.29854659816262     -1.50271761429610      0.48519262181626
  O   0.47804994326060     -2.44292577735900     -0.30104171545713
  N   1.31488497292769      0.86141349213425     -0.15308502957327
  O   1.47863380227632      0.73573633289756     -1.36004168623150
  O   1.82801782687626      1.66498882948486      0.59762032715973
  N   -1.71883961393777      1.02354015496756     -0.13715123527317
  O   -1.08872242044848      2.07700636824578     -0.15430232076313
  O   -2.92895323360675      0.89651962324902      0.00834443072885
