14
Coordinates from ORCA-job run
  C   0.47462078100176     -0.25014660459152     -0.22854711060172
  C   -0.67013107455469      0.73770336387271     -0.27318846024333
  Br  0.47704299797345     -1.43423817477401     -1.71506850750567
  H   -0.61317576484939      1.35298432147881     -1.16603738843856
  H   -0.65453961497493      1.35744307403461      0.62436043162807
  N   1.80382994821791      0.51688667342510     -0.22470448788590
  O   1.76328536588755      1.68751358464324     -0.57829079616401
  O   2.78246670781241     -0.12711969245827      0.11696869270592
  N   0.50301802474484     -0.99342375006794      1.12015937173233
  O   0.49331383774477     -0.22115288717895      2.07024577117394
  O   0.56713392951098     -2.20509296635665      1.13474415721585
  N   -1.98255837262195      0.02567829452066     -0.29763141805471
  O   -2.83698614461295      0.47765809554920     -1.05070042307138
  O   -2.10832062127976     -0.92669333209700      0.46669016750916
