14
Coordinates from ORCA-job run
  C   0.44826542667000     -0.33479473476581     -0.16420659213389
  C   -1.02686393215335     -0.09395292201981      0.06831136341813
  Br  0.83241795146958     -0.84448822374578     -1.95440434284832
  H   -1.18590715316065      0.24329857915435      1.09349064185389
  H   -1.60040566453233     -0.99364558860383     -0.13319989106418
  N   1.27983555859658      0.87664115706596      0.29775735228653
  O   2.10252420267296      1.35905237396237     -0.45265232460128
  O   1.01833445444989      1.20076199190847      1.44922644942343
  N   0.93001298708227     -1.45559021904132      0.76711227863718
  O   2.13932274896274     -1.53974554622963      0.90793627269571
  O   0.06629315626324     -2.16603141917646      1.26349825199779
  N   -1.53705378527827      0.97942926746170     -0.83598303530751
  O   -0.83157097590997      1.97607996920274     -0.96297472517157
  O   -2.63620497513267      0.79098531482706     -1.34391169918592
