14
Coordinates from ORCA-job run
  C   0.49075155769882     -0.21232405136674     -0.23253816651254
  C   -0.69456628775704      0.72739385725616     -0.23716471003765
  Br  0.58224610915239     -1.28124602315916     -1.80135970858754
  H   -0.72844907794380      1.27902668372426      0.70335712064404
  H   -0.64209296166037      1.40931073609062     -1.08051365060525
  N   1.78471596577096      0.60727218035468     -0.13488174195023
  O   2.78146836904683     -0.01884836030815      0.18729788970594
  O   1.70191758192539      1.79797456076208     -0.40415286838378
  N   0.51802058206303     -1.05213819951098      1.05837604298525
  O   0.63547789303643     -2.25777904037283      0.98568342985327
  O   0.45061326183496     -0.35377422655391      2.06190259777177
  N   -1.97386790929174     -0.03461520369051     -0.35084682119558
  O   -2.07763292144294     -1.04544152837215      0.33806520260716
  O   -2.82760216243290      0.43618861514663     -1.09322461629487
