14
Coordinates from ORCA-job run
  C   0.55622962148723     -0.14694178751448     -0.09769319753413
  C   -0.72197131360627      0.57199081662686     -0.46781800667699
  Br  1.15281453073895     -1.32767388153993     -1.46171152142521
  H   -0.58225093038462      1.16954899332483     -1.36365029972085
  H   -1.04651532477817      1.19673982150394      0.36539258733696
  N   1.66112752493135      0.88792482815493      0.15894554545765
  O   1.46502733600037      2.01739296141229     -0.26874583249593
  O   2.64188048741835      0.47385860453450      0.75548247664764
  N   0.41601324314703     -0.84403472015284      1.26904124682151
  O   0.72538435957081     -2.01219015714007      1.37978305319094
  O   0.02082956961509     -0.07638136656426      2.13734898097533
  N   -1.81836194686064     -0.40421605872747     -0.74269734748715
  O   -2.54703698222698     -0.15523191801675     -1.69589254039251
  O   -1.92217017505251     -1.35078613590153      0.03221485530274
