14
Coordinates from ORCA-job run
  C   0.57245546327138     -0.38947413046139     -0.28121897400110
  C   -0.83244419909227     -0.08192171969887     -0.74500446269951
  Br  1.39508248095279     -1.55971467200973     -1.55800273950834
  H   -1.38685040439359     -1.01755127180225     -0.82444476363136
  H   -0.81641445868568      0.43137791474165     -1.70405832250710
  N   1.42374805483253      0.86879742745229     -0.14864340915440
  O   0.80790977528521      1.92846306051774     -0.20979130909355
  O   2.62237979259096      0.71312469726920      0.01223021453492
  N   0.55453915958050     -1.10894163295124      1.08151916571614
  O   1.26240914142248     -0.66615186173735      1.96685747232573
  O   -0.18657173483320     -2.07694647898514      1.11634025459113
  N   -1.60361696198132      0.78688761310548      0.20209798375693
  O   -2.49725667663698      1.45329524215690     -0.30008355594131
  O   -1.31436943231281      0.71875581240271      1.39120244561184
