14
Coordinates from ORCA-job run
  C   0.49992894136190     -0.25983302233446     -0.15022068760261
  C   -0.66666466514747      0.66145700201348     -0.43013879812263
  Br  0.66717708796203     -1.64219097192176     -1.44388845622457
  H   -0.55266749767207      1.14405153507279     -1.39611706772473
  H   -0.74607560364341      1.40393735904394      0.36514902049348
  N   1.79973910960184      0.55705963834935     -0.15269408855308
  O   1.75714558935157      1.65323831858169     -0.69450202727499
  O   2.76122295742475      0.01912741445901      0.37213663204947
  N   0.43597561870161     -0.80146862105574      1.28993400014000
  O   0.53926273122431     -1.99473492314076      1.48540977412562
  O   0.31760769494895      0.09655254074479      2.11384492157732
  N   -1.95045808886709     -0.10105644470679     -0.45458989025627
  O   -2.75256941083214      0.20586485817575     -1.32867786669694
  O   -2.11062446441478     -0.94200468328131      0.42535453406992
