14
Coordinates from ORCA-job run
  C   0.47031324843741     -0.33217851648158     -0.09327490049251
  C   -1.02317456533436     -0.13448221101395      0.04261294027784
  Br  0.95870225096706     -1.08982461680236     -1.76655347597152
  H   -1.54594833790878     -1.08254976996479     -0.04036281492630
  H   -1.24380230277660      0.34553090304089      0.99706358766791
  N   1.22490459419645      0.97626707943808      0.20689364271685
  O   0.89472272599824      1.46093490986352      1.28176819121986
  O   2.06035363820980      1.37820571501863     -0.57618500552180
  N   0.95785134494367     -1.27255895623969      1.01792617784760
  O   2.15985726000571     -1.26094794409883      1.22841965984408
  O   0.10651595228169     -1.95596576806582      1.57033971506193
  N   -1.53953370701859      0.76205098025116     -1.03431962341612
  O   -0.87191574763587      1.76006545647894     -1.29003251943758
  O   -2.60784635436583      0.44545273857580     -1.54429557487025
