14
Coordinates from ORCA-job run
  C   0.52194976553784     -0.23704927201139     -0.10737923311548
  C   -0.98573889753004     -0.21170548103111     -0.22710104967920
  Br  1.38925000140702     -0.24970220405363     -1.79848618822273
  H   -1.34445459543014     -1.08718072759890     -0.75996841896309
  H   -1.43201119525389     -0.15561598756938      0.76669257617933
  N   1.01774696194543      0.90159301701511      0.80359967618806
  O   1.90389750694763      1.63501061958043      0.41705425569760
  O   0.44683455244018      0.90357690859130      1.88694221310739
  N   0.94686972141059     -1.49736895266125      0.65882929649768
  O   2.08930984351645     -1.49227737596004      1.08795380978878
  O   0.11458174483508     -2.38934226606261      0.75283996127156
  N   -1.43659395427813      0.99408042782019     -0.98399444452925
  O   -2.34404987601178      0.82686901890787     -1.79036931850179
  O   -0.88859157953625      2.05711227503343     -0.70661313571885
