14
Coordinates from ORCA-job run
  C   0.57078514103764     -0.39882950801164     -0.27054904729683
  C   -0.82561725360597     -0.08077537217203     -0.75214256437812
  Br  1.39155856922281     -1.59512972631229     -1.52453119008895
  H   -0.79325862103902      0.42357341099743     -1.71555212443652
  H   -1.38974391263183     -1.01068732329656     -0.82964136056528
  N   1.43574300205784      0.85082691240365     -0.14597366682881
  O   2.63093100538686      0.68316114097158      0.02756822442427
  O   0.83298318251423      1.91673597469274     -0.22552918189541
  N   0.53104306434778     -1.10046876390006      1.10093618633099
  O   -0.22283042306141     -2.05826604407361      1.14127977297359
  O   1.23702863628093     -0.65570414793975      1.98674218357297
  N   -1.59793162848764      0.80507387954305      0.17810449736331
  O   -1.31455294313112      0.75562807893568      1.36945730679928
  O   -2.48713781889111      1.46586148816183     -0.33916903597450
