14
Coordinates from ORCA-job run
  C   0.50306323966629     -0.25272413633556     -0.15179292808837
  C   -0.66471939346128      0.67061645781796     -0.41972574092145
  Br  0.69342681608628     -1.59573405197100     -1.48307272674627
  H   -0.75875853169208      1.38859678413237      0.39616712020045
  H   -0.54032624243089      1.18290089026165     -1.36901375580618
  N   1.79860620945360      0.56980809254423     -0.11203064648057
  O   2.76042586751243      0.01283727096299      0.39182177416795
  O   1.75222532789977      1.69080475564000     -0.60017798624356
  N   0.42387516357697     -0.83660790433534      1.27115525369990
  O   0.52884649288880     -2.03468940616244      1.43315252378090
  O   0.29277739441437      0.03678562940914      2.11927343127134
  N   -1.94341818561713     -0.09777705968082     -0.48460997556153
  O   -2.11062118466334     -0.96494531071923      0.36814915009401
  O   -2.73540297363379      0.23012798843603     -1.36029549336661
