14
Coordinates from ORCA-job run
  C   0.49449020877893     -0.23886242379667     -0.19566308155596
  C   -0.72454177167901      0.64076218951062     -0.36441770307604
  Br  0.60180242418023     -1.60069688697936     -1.51691550036396
  H   -0.70960852099402      1.13804941498781     -1.32956637686339
  H   -0.76453956265602      1.37072641721518      0.44522667959626
  N   1.75875631801291      0.62568522443126     -0.29461133099006
  O   1.62844011949821      1.73281964156568     -0.79904576722427
  O   2.78240760479323      0.11200811449711      0.12687270151318
  N   0.57175790977216     -0.79735126322249      1.23805094472281
  O   0.73271069942411     -1.98802775760059      1.40835403920180
  O   0.49330168643889      0.08786500408041      2.08029620137944
  N   -1.97619008501826     -0.17043811003761     -0.29321065799081
  O   -2.85749043004362      0.11016558674884     -1.09707560687408
  O   -2.03229660050773     -1.02270515140018      0.58870545852509
