14
Coordinates from ORCA-job run
  C   0.47734885973068     -0.30047512550966     -0.14777940693754
  C   -1.02241361626453     -0.10776856843031     -0.10498012673789
  Br  1.13867957585756     -0.49834748613354     -1.91845708856888
  H   -1.34222271395168      0.05032532310025      0.92589261994548
  H   -1.53273604134207     -0.96245866300215     -0.53869379205669
  N   1.19503595089005      0.81850682538776      0.63082018508945
  O   2.10609077184603      1.42361436604763      0.10504257770567
  O   0.75516862126997      0.94212906813909      1.76676841570758
  N   0.84745490155841     -1.56097361588185      0.64579854522888
  O   2.02395422665800     -1.66295244207526      0.95373351535987
  O   -0.05925267534799     -2.34894680406859      0.87852620153614
  N   -1.42289659167160      1.10120749916965     -0.88455039117731
  O   -2.42739958761315      0.99762479794624     -1.57871946947371
  O   -0.73581168161966      2.10751482531075     -0.73440178562104
