14
Coordinates from ORCA-job run
  C   0.52415691338956     -0.24537642086704     -0.07418687547805
  C   -0.97661658821477     -0.21391106412320     -0.26050909573023
  Br  1.46439603079999     -0.33842154666192     -1.72305740145122
  H   -1.46425202996862     -0.11055428561243      0.70979740296882
  H   -1.32059407324462     -1.10916895552547     -0.76967545714115
  N   0.99056245430876      0.92861043435616      0.80772111143437
  O   1.89845616918594      1.63864285910839      0.42819468767287
  O   0.37358802805568      0.98200537644428      1.86405988746482
  N   0.90335256229765     -1.47401485194705      0.76414837375478
  O   0.05961686870864     -2.35500636555450      0.85964087522097
  O   2.02564095554942     -1.45839815355204      1.24320343533514
  N   -1.38317679425612      0.96057519919098     -1.08876246738230
  O   -2.25688188266293      0.76445608250313     -1.92525158239512
  O   -0.83724861394857      2.03056169224072     -0.83532289427369
