14
Coordinates from ORCA-job run
  C   0.49902258226079     -0.20738787395142     -0.22096544575353
  C   -0.70109139784574      0.71261880698618     -0.25932287756254
  Br  0.64233993623668     -1.28823986313456     -1.77763582671411
  H   -0.64291538537778      1.38597044017584     -1.10920081943321
  H   -0.76174361074057      1.27524775739352      0.67328685176666
  N   1.77692202416572      0.63533596580332     -0.10407437405910
  O   2.77699137578529      0.02986779656361      0.24603649946549
  O   1.67983728314332      1.82157285727387     -0.38783222627610
  N   0.51359589239672     -1.03477402098835      1.07759799122422
  O   0.40665305183903     -0.32950256092723      2.07293572885118
  O   0.65995765015771     -2.23804139422157      1.01906495395097
  N   -1.96664279971736     -0.06952791150666     -0.38853860330846
  O   -2.06054022987629     -1.08690004343641      0.29204653252724
  O   -2.82138637242752      0.39376004396987     -1.13439838467870
