14
Coordinates from ORCA-job run
  C   0.50719392298635     -0.20988264631500     -0.19752742904631
  C   -0.75173664864473      0.61428673877820     -0.35270034355340
  Br  0.68949606194530     -1.52845639621263     -1.55429343748468
  H   -0.83232631091346      1.32012240958925      0.47516106862412
  H   -0.75466455840613      1.13706831653859     -1.30437362790446
  N   1.72875396227805      0.71713343418076     -0.26423100482195
  O   2.77144246083905      0.24597227655800      0.16006279063744
  O   1.54982400857103      1.82574634565621     -0.74991886620529
  N   0.60154430252472     -0.80251320368435      1.22078081851650
  O   0.47215827623082      0.05414958552169      2.08598603387358
  O   0.82073443610491     -1.98784995735280      1.36058270946936
  N   -1.96430401412899     -0.25666235785791     -0.31221998341666
  O   -1.98296732121503     -1.13931043853852      0.54074972354357
  O   -2.85614857817187      0.01019589313853     -1.10905845223184
