14
Coordinates from ORCA-job run
  C   0.51968925231142     -0.24054522109792     -0.10930071167170
  C   -0.70523393496536      0.54358915316150     -0.52503816360558
  Br  0.80801682247381     -1.77479975719141     -1.19299112832505
  H   -0.85260158775887      1.38214906069070      0.15688641327788
  H   -0.60920892080346      0.89358160837250     -1.54844752687289
  N   1.75718280947024      0.66158025645919     -0.21527180196618
  O   2.75226337462005      0.26035146841627      0.36618257595171
  O   1.63760864684684      1.68185429031725     -0.88003264481534
  N   0.46967871615866     -0.57756288986608      1.39286196861223
  O   0.27550937567040      0.41687430233402      2.08040271465387
  O   0.65365865507955     -1.72083321573397      1.75588173128480
  N   -1.92921425997075     -0.30860915637535     -0.45142811139165
  O   -2.73429285640521     -0.19099869166305     -1.36777680495308
  O   -2.04505609272733     -1.02463120782367      0.53907148982099
