16

C	-0.625245	-0.058937	-1.380938
C	0.0	0.0	0.0
Cl	-2.411411	0.050785	-1.302155
H	1.093248	0.0	0.0
N	-0.08258	1.04229	-2.330264
O	1.109279	0.919341	-2.559877
O	-0.847327	1.882661	-2.770064
C	-0.278907	-1.327299	-2.017133
N	-0.051647	-2.32982	-2.588107
N	-0.383795	-1.152775	0.741487
H	-1.233023	-1.002213	1.269009
H	0.373112	-1.380556	1.372856
N	-0.397156	1.290003	0.641895
O	-0.803598	1.266176	1.804283
O	-0.244829	2.314054	-0.021953
F	2.4713	0.0	0.0
