16

C	-0.606535	-0.057606	-1.39185
C	0.0	0.0	0.0
Cl	-2.391313	0.043735	-1.338787
H	1.091815	0.0	0.0
N	-0.057036	1.046488	-2.336892
O	-0.821582	1.887784	-2.776281
O	1.136058	0.928489	-2.564408
C	-0.243399	-1.323761	-2.021242
N	0.036615	-2.314965	-2.586654
N	-0.39536	-1.157401	0.729089
H	-1.222835	-0.991218	1.286609
H	0.372962	-1.414193	1.335186
N	-0.412115	1.281706	0.645921
O	-0.832052	1.247895	1.804404
O	-0.259403	2.310855	-0.011946
F	2.470962	0.0	0.0
