16

C	-0.533227	-0.008757	-1.427524
C	0.0	0.0	0.0
Cl	0.396682	-1.166078	-2.372048
H	1.090455	0.0	0.0
N	-2.018157	-0.476279	-1.362405
O	-2.396426	-1.426114	-2.023189
O	-2.697488	0.206449	-0.601946
C	-0.586859	1.248664	-2.171086
N	-0.691516	2.171277	-2.892062
N	-0.413648	-1.199986	0.654689
H	-1.183941	-1.018447	1.285763
H	0.377425	-1.537894	1.187699
N	-0.409435	1.238445	0.729483
O	-0.891919	1.11786	1.857152
O	-0.168285	2.314368	0.18685
F	2.488355	0.0	0.0
