16

C	-0.527916	-0.007949	-1.430253
C	0.0	0.0	0.0
Cl	0.401416	-1.166021	-2.372159
H	1.090371	0.0	0.0
N	-2.013567	-0.471909	-1.370772
O	-2.699464	0.23071	-0.635498
O	-2.38492	-1.441242	-2.00668
C	-0.572167	1.253114	-2.167336
N	-0.665468	2.180198	-2.883834
N	-0.417766	-1.196756	0.655944
H	-1.1948	-1.014779	1.279331
H	0.370277	-1.533272	1.193672
N	-0.415801	1.242922	0.720259
O	-0.955114	1.128783	1.824322
O	-0.13135	2.314926	0.191083
F	2.490763	0.0	0.0
