14

C	0.0	0.0	0.0
C	-0.398245	-0.537634	-1.362729
Br	1.94797	0.0	0.0
H	0.119326	-0.007278	-2.160834
H	-1.486159	-0.467187	-1.437584
H	-0.08263	-1.588022	-1.392805
N	-0.432607	1.444135	0.18581
O	-0.266371	2.194974	-0.768123
O	-0.851877	1.766025	1.286957
C	-0.495446	-0.836594	1.154277
H	-0.250806	-1.886613	0.96168
H	-0.037217	-0.520941	2.098702
H	-1.594248	-0.689934	1.154219
H	-3.079263	0.0	0.0
