14

C	0.0	0.0	0.0
C	-0.510114	0.021938	-1.431976
F	1.369232	0.0	0.0
H	-1.59596	-0.170661	-1.426762
H	-0.373026	-0.916102	0.460524
C	-0.443699	1.177013	0.767693
N	-0.582905	2.127846	1.443261
N	0.197373	-1.067563	-2.18606
O	0.816938	-0.781176	-3.203592
O	0.08013	-2.18657	-1.698721
N	-0.263033	1.299168	-2.155703
O	-0.96451	1.486822	-3.145183
O	0.620828	2.044985	-1.738562
Br	-3.422547	0.0	0.0
