14

C	0.0	0.0	0.0
C	-0.541123	-0.01052	-1.417122
F	1.369865	0.0	0.0
H	-1.634432	-0.174952	-1.362815
H	-0.369748	-0.905665	0.483536
C	-0.439332	1.183531	0.753864
N	-0.593385	2.141069	1.41593
N	0.106774	-1.141726	-2.157821
O	0.652045	-0.91402	-3.231488
O	0.015631	-2.234191	-1.608463
N	-0.290442	1.239952	-2.183864
O	0.625387	1.972936	-1.815332
O	-1.022428	1.421178	-3.151715
Br	-3.458849	0.0	0.0
