13

C	-0.519537	0.014184	-1.443719
C	0.0	0.0	0.0
F	-0.112236	1.181028	-2.043884
H	1.09132	0.0	0.0
H	-1.611842	-0.011494	-1.452053
C	-0.016552	-1.145142	-2.19612
N	0.303183	-2.086863	-2.8189
N	-0.51988	-1.272383	0.624599
O	-1.73829	-1.448433	0.545451
O	0.286339	-2.030003	1.144973
C	-0.546735	1.135557	0.727196
N	-0.990031	2.056437	1.305883
Cl	3.184761	0.0	0.0
