13

C	-0.44542	-0.007969	-1.449661
C	0.0	0.0	0.0
F	-1.823025	-0.164268	-1.533332
H	1.09472	0.0	0.0
H	0.023653	-0.856833	-1.94881
C	-0.083575	1.247204	-2.118683
N	0.145731	2.267477	-2.651269
N	-0.388865	-1.310606	0.629452
O	-0.286138	-2.305783	-0.080502
O	-0.71854	-1.300398	1.809474
C	-0.559554	1.107359	0.754547
N	-0.99136	2.033326	1.33373
Cl	3.104108	0.0	0.0
