13

C	-0.517945	0.025529	-1.443662
C	0.0	0.0	0.0
F	-0.100905	1.193189	-2.036267
H	1.091224	0.0	0.0
H	-1.61033	0.00812	-1.454428
C	-0.022669	-1.132954	-2.20304
N	0.288645	-2.073859	-2.830883
N	-0.522785	-1.26511	0.635356
O	-1.74019	-1.441946	0.551188
O	0.27914	-2.014909	1.172901
C	-0.543121	1.133653	0.732176
N	-0.993189	2.051554	1.310293
Cl	3.186469	0.0	0.0
