13

C	-0.422824	0.049105	-1.466901
C	0.0	0.0	0.0
F	-0.098095	-1.149699	-2.058259
H	1.091787	0.0	0.0
H	0.178531	0.833855	-1.937925
C	-1.848647	0.331336	-1.706365
N	-2.956701	0.582942	-2.00107
N	-0.531782	-1.244444	0.658381
O	-1.654565	-1.61488	0.319982
O	0.181929	-1.772018	1.500643
C	-0.505313	1.1544	0.725773
N	-0.908666	2.103124	1.28936
Cl	3.163774	0.0	0.0
