13

C	-0.519731	0.023468	-1.442713
C	0.0	0.0	0.0
F	-0.105439	1.190978	-2.037099
H	1.091242	0.0	0.0
H	-1.612206	0.005175	-1.451266
C	-0.025405	-1.134725	-2.202623
N	0.285535	-2.076842	-2.831773
N	-0.52482	-1.262399	0.639575
O	0.277764	-2.018229	1.169508
O	-1.74486	-1.432254	0.563636
C	-0.541941	1.136178	0.729265
N	-0.987954	2.056855	1.30614
Cl	3.188178	0.0	0.0
