15

C	-0.241146	0.169442	-1.460265
C	0.0	0.0	0.0
Br	-2.135319	0.278811	-2.028751
H	1.096391	0.0	0.0
H	0.227594	1.084918	-1.813125
N	0.375798	-0.920599	-2.294629
O	0.242845	-2.077103	-1.918107
O	0.954164	-0.55329	-3.315408
C	-0.598241	-1.169971	0.602291
N	-1.077452	-2.068753	1.190987
C	-0.365434	1.267519	0.770213
H	-0.049964	1.146919	1.808743
H	-1.435035	1.4987	0.744013
H	0.202892	2.103856	0.354662
F	2.498671	0.0	0.0
