15

C	-0.522189	-0.017118	-1.424727
C	0.0	0.0	0.0
Br	0.320853	-1.389956	-2.498929
H	1.094782	0.0	0.0
H	-1.5979	-0.175093	-1.510668
N	-0.292275	1.330778	-2.057845
O	0.842783	1.663864	-2.355573
O	-1.302713	2.029629	-2.167666
C	-0.520134	-1.170247	0.677678
N	-0.949296	-2.109283	1.242581
C	-0.387492	1.284666	0.740134
H	-0.060434	1.186336	1.77626
H	-1.459746	1.511842	0.718821
H	0.172334	2.117302	0.308377
F	2.51331	0.0	0.0
