15

C	-0.322359	-0.022838	-1.477248
C	0.0	0.0	0.0
Br	0.324747	1.538666	-2.419324
H	1.096106	0.0	0.0
H	0.143358	-0.884478	-1.949675
N	-1.799003	-0.159373	-1.757432
O	-2.539197	0.777086	-1.470819
O	-2.16562	-1.249506	-2.199032
C	-0.464643	-1.24813	0.578747
N	-0.840375	-2.249881	1.069741
C	-0.480785	1.203268	0.801336
H	-1.569086	1.290322	0.852405
H	-0.077434	1.112457	1.812385
H	-0.06819	2.113507	0.364555
F	2.514803	0.0	0.0
