15

C	-0.519631	-0.01951	-1.425608
C	0.0	0.0	0.0
Br	0.305269	-1.40871	-2.492234
H	1.094835	0.0	0.0
H	-1.596044	-0.160222	-1.513806
N	-0.266087	1.32046	-2.063415
O	-1.266303	2.03544	-2.18366
O	0.878233	1.633663	-2.356278
C	-0.522741	-1.167562	0.679028
N	-0.952825	-2.107926	1.241323
C	-0.395285	1.285015	0.73435
H	0.159373	2.118859	0.30191
H	-1.467889	1.504833	0.710007
H	-0.071022	1.191317	1.772187
F	2.512976	0.0	0.0
