13
Coordinates from ORCA-job run
  C   -0.27833387515708      0.35572778095348      0.06465324752746
  C   1.11667416726207     -0.22131195089026     -0.13280619315972
  Cl  -0.75145767002060      1.29772929199168     -1.40795808157411
  H   1.32425368054442     -0.89260043900219      0.70304714265403
  H   1.82406549994119      0.61231114125777     -0.08583316615962
  N   -1.31800052054891     -0.76126101442973      0.18317705521044
  O   -0.94828550404976     -1.90664900690614     -0.03987925926931
  O   -2.43905309761108     -0.40168739618351      0.51586584560092
  N   -0.35500101512336      1.06847154943721      1.27665158872161
  H   0.28584499935860      1.85128584354375      1.28773034936986
  H   -1.30063588108681      1.39303267133737      1.44201517794209
  C   1.31209505720017     -0.92335427166008     -1.39653801180904
  N   1.52683415929117     -1.47269419944935     -2.41012569505461
