13
Coordinates from ORCA-job run
  C   -0.33509375943904      0.47176317619959      0.01340784160638
  C   1.05751876335243     -0.15044227737467     -0.17259436679100
  Cl  -0.69340104985747      1.53653670588009     -1.33379953272102
  H   1.78853594203875      0.66143192499827     -0.20430324695464
  H   1.26779053256756     -0.77782608323068      0.69760598268439
  N   -1.32347013510355     -0.71092535592550      0.04492387595780
  O   -2.14287599117183     -0.85633095848022     -0.84396682745863
  O   -1.15457470307892     -1.43348669688994      1.02400158437976
  N   -0.54651750331450      1.16875000078369      1.24103908324992
  H   -0.06671855370704      2.05850821006299      1.24322657230529
  H   -0.26330863301194      0.60160219154325      2.03020560014595
  C   1.16538109862824     -0.95729006811519     -1.38433780675120
  N   1.24973399209730     -1.61229076945169     -2.35440875965301
