13
Coordinates from ORCA-job run
  C   -0.38816329973030      0.38562322406196     -0.03159616708961
  C   0.58230892817073     -0.63656349651295     -0.65443620269025
  Cl  -0.55955330929542      1.75936616951829     -1.11121171815523
  H   0.26119139887330     -0.89497907893525     -1.66740831727545
  H   0.56645093708766     -1.54171335187575     -0.04026059486361
  N   -1.72509104913520     -0.37713084295759      0.08489715441981
  O   -1.70604050733647     -1.24278000824171      0.95565677332217
  O   -2.64722458704481     -0.11594996218410     -0.66813785534885
  N   -0.09497300231559      0.84748657240311      1.28276081005890
  H   0.70093149434058      1.47188091201043      1.27821654857100
  H   0.06303085365413      0.06885196633660      1.91019077299346
  C   1.93358638484141     -0.09088268535318     -0.67757412676024
  N   3.01354575788997      0.36779058173014     -0.66109707718209
