13
Coordinates from ORCA-job run
  C   -0.27028105996042      0.36008417506130     -0.08459163935498
  C   0.66861524227127     -0.76956208139539     -0.49351388660381
  Cl  -0.48760313738872      1.51533574963542     -1.41233345395907
  H   0.66614019195861     -1.53406589467547      0.29207381000349
  H   0.29598894189957     -1.23719378729889     -1.40448828059777
  N   -1.68871161707763     -0.29132434278385      0.09490126263429
  O   -2.36792174757951      0.14899343266060      1.01390451352954
  O   -2.00851208154566     -1.16994175004381     -0.69539504721952
  N   0.16994308070728      1.03057490169567      1.06226522391517
  H   0.33738838558238      0.39246274023884      1.83026020030577
  H   -0.47546967044256      1.75492586411797      1.34854704488745
  C   2.02821086311169     -0.27983354153988     -0.69185032395248
  N   3.13221260846370      0.07854453432747     -0.86077942358808
