13
Coordinates from ORCA-job run
  C   -0.33848967383923      0.23987356446716      0.05157469223807
  C   0.62645595239968     -0.62154390212611     -0.75458863949776
  Cl  -0.73936894368193      1.72310140136617     -0.93075799595468
  H   0.24458387935195     -0.76852206178192     -1.76402996065483
  H   0.70534061180461     -1.59609647431265     -0.26630160845259
  N   -1.67822663679128     -0.48797952103890      0.18222517368157
  O   -1.90456050339057     -1.39529212089258     -0.60814373218393
  O   -2.42353229078537     -0.07838842758769      1.06112392336610
  N   0.12081047606945      0.48300945976029      1.35002314366430
  H   1.01661609427254      0.95444373085778      1.35453117061461
  H   -0.55950127014718      0.99616902297921      1.89614093645536
  C   1.93941873079708      0.01383626593353     -0.79095948797964
  N   2.99045357394027      0.53538906237571     -0.78183761529658
