13
Coordinates from ORCA-job run
  C   -0.42132613166746      0.53378286189092      0.02033695815986
  C   0.77603725809318      0.13483937696114     -0.86143119340273
  Cl  -1.16530266567011      1.96431211434175     -0.71344341127302
  H   1.47373377101308      0.97586915837288     -0.89526872489878
  H   0.43742475979764     -0.07351285806500     -1.87844266882726
  N   -1.41400665883828     -0.64380565865590     -0.09073956886654
  O   -1.60761607279225     -1.29917475368640      0.92474346125825
  O   -1.86431576542518     -0.86385048086239     -1.20591509294158
  N   -0.19002906110090      0.77678459000640      1.39302875772901
  H   0.12132830655528     -0.05435287117620      1.87862690714166
  H   0.44699763515743      1.54945637568382      1.52926340179635
  C   1.44588053096427     -1.03379350507156     -0.29837901821532
  N   1.96119409391333     -1.96555434973945      0.19562019234009
