13
Coordinates from ORCA-job run
  C   -0.27271388178362      0.36184619756016      0.05117059859981
  C   0.68725706954341     -0.52216354254370     -0.73680230328962
  Cl  -0.47719389958842      1.93577534971579     -0.74181547562930
  H   0.34081472551115     -0.60550354428478     -1.76642700061209
  H   0.67649043872014     -1.53012045505905     -0.30655774995479
  N   -1.68952621753494     -0.30542074448350     -0.05675905443438
  O   -1.96065151685737     -0.89628634914940     -1.09435058244538
  O   -2.42044294835954     -0.16218448707864      0.91535495894534
  N   0.13871054592448      0.54655805310159      1.37649899263722
  H   -0.52641090709683      1.09560957596607      1.90517748256610
  H   0.31276559604092     -0.33492640668448      1.84332301133646
  C   2.04500681945114      0.00969787146642     -0.69831241267445
  N   3.14789417602947      0.40911848147352     -0.68850046504492
