13
Coordinates from ORCA-job run
  C   -0.43055937297301      0.52615372840285      0.00932497437983
  C   0.76947189211499      0.12665804765327     -0.86834274239978
  Cl  -1.20605036705817      1.92281115966835     -0.75687742289956
  H   0.42918399500234     -0.11268253064652     -1.87791886315204
  H   1.45293894679773      0.97784879432358     -0.92624228197362
  N   -1.40154952833242     -0.67194755787742     -0.06472488165640
  O   -1.57879761490572     -1.30275796953585      0.96904780188803
  O   -1.85348228202552     -0.92992439355634     -1.17121728629362
  N   -0.19661339883308      0.81040366960142      1.37401379370926
  H   0.13911608877877      0.00002192007093      1.87836031815745
  H   0.42464199014140      1.60021848558890      1.48377740933102
  C   1.46026168150736     -1.01727484758896     -0.28030074285587
  N   1.99143796978534     -1.92952850610421      0.23309992376529
