13
Coordinates from ORCA-job run
  C   -0.20553581869351      0.46577668791377      0.07858922978224
  C   1.10044295357758     -0.20809525396953     -0.32204161842291
  Cl  -0.72243926311693      1.61112502090882     -1.16325941571659
  H   1.36664036289529     -0.95726338364524      0.42841015749047
  H   1.86108804317470      0.57595673581683     -0.31679224621733
  N   -1.33665323458765     -0.60087867730039      0.17737422437039
  O   -1.02776151199236     -1.77538828565773      0.00191697233757
  O   -2.43437755313082     -0.17579483881855      0.51109105302262
  N   -0.05624621982221      1.14388783134828      1.31175978183638
  H   0.23234464101874      0.50777113331787      2.04655384782073
  H   -0.91893809849721      1.60595492548238      1.57404156108692
  C   1.06347753819962     -0.84050957248212     -1.63580268188031
  N   1.07695816097478     -1.35254232291438     -2.69084086551017
