13
Coordinates from ORCA-job run
  C   -0.42166986209465      0.53145594986423      0.04556154378149
  C   0.70595210831089      0.12628222798352     -0.92087930513531
  Cl  -1.23022836989485      1.94726475587288     -0.64740260988892
  H   0.29089480103016     -0.09774635606341     -1.90569944753399
  H   1.39464779464471      0.96958991946811     -1.01942497735011
  N   -1.41271808640856     -0.65277234194132      0.02857498513353
  O   -1.94678600095318     -0.89103767842369     -1.04521669097086
  O   -1.52300009165088     -1.29444589748973      1.06497978336448
  N   -0.08611731285240      0.79579217338630      1.39277566898199
  H   0.55191484814494      1.57613803513898      1.46715803981808
  H   0.27298746178907     -0.02512028887351      1.86288819426221
  C   1.42344898286606     -1.03156808089573     -0.39548649597255
  N   1.98067372706868     -1.95383241802661      0.07017131150996
