13
Coordinates from ORCA-job run
  C   -0.25331459642033      0.50683676865697      0.01777589313534
  C   1.10189088439486     -0.09953572046894     -0.34122705624568
  Cl  -0.88749168790743      1.46531930994535     -1.30759441200972
  H   1.48003104151119     -0.64231483009998      0.52958586454402
  H   1.78139327430752      0.72636708314923     -0.56076049910379
  N   -1.20629358836029     -0.71703640548165      0.25577586969124
  O   -2.10299145481412     -0.97435450411052     -0.52897483034714
  O   -0.91299308376622     -1.34403764614780      1.27196605928919
  N   -0.12942772671994      1.30210410383813      1.18259246072054
  H   -0.98035939049770      1.81753722165709      1.37144236317792
  H   0.10337009585477      0.71921529371375      1.97816427082273
  C   1.02831019197493     -1.00992098487558     -1.47910546299990
  N   0.97887604044275     -1.74817968977607     -2.38964052067474
