13
Coordinates from ORCA-job run
  C   -0.26918087315399      0.36817425550372      0.04488528879603
  C   0.68298211232110     -0.54363100213403     -0.72130481217397
  Cl  -0.45613960162197      1.92625265265133     -0.78086692304077
  H   0.66292192766866     -1.54014224284691     -0.26509778242749
  H   0.33397016572336     -0.64810303554434     -1.74830900156042
  N   -1.68946150140608     -0.29492285985883     -0.05727890804865
  O   -2.39199449656299     -0.21327725277069      0.94258562357161
  O   -1.98780903197469     -0.82530533547210     -1.11955246384295
  N   0.14070748238844      0.57653202540257      1.36692591412736
  H   0.28915732980884     -0.29723440405009      1.85648497515929
  H   -0.51349382264823      1.15310780425099      1.87962583568768
  C   2.04569712524544     -0.02425094874158     -0.69701822729134
  N   3.15264318421212      0.36380034360995     -0.69907951895637
