13
Coordinates from ORCA-job run
  C   -0.29966063315356      0.56185502883024      0.00557190855899
  C   0.78042601141844      0.09469478742941     -0.96299864899263
  Cl  -1.12681428758217      1.97871431702907     -0.67395821953100
  H   0.33465796487363     -0.13097299347221     -1.93087457279117
  H   1.49808474498480      0.90980206539576     -1.07728351914756
  N   -1.41219218020403     -0.54445568457587      0.04868182915235
  O   -1.64486988875768     -1.14700861481763     -0.99079796138167
  O   -1.97217433898852     -0.69623553892388      1.12675113472843
  N   0.21245237394767      0.86642658495806      1.27399285890833
  H   -0.52319198079340      1.14081970461728      1.91256709292670
  H   0.72333164174023      0.08159411696862      1.66265782078818
  C   1.45347589919066     -1.08901639102799     -0.43480247077822
  N   1.97547467332392     -2.02621738241087      0.04149274755926
