13
Coordinates from ORCA-job run
  C   -0.34463451716578      0.23699670036890      0.00962786245362
  C   0.74592011426433     -0.57728220630489     -0.67633876127005
  Cl  -0.59496698549192      1.77336219142929     -0.93988665335598
  H   0.53338816044258     -0.66688739642146     -1.74090292597001
  H   0.75372965287700     -1.57793216000129     -0.23704822252954
  N   -1.68107693346840     -0.49756935106818     -0.11956977466598
  O   -2.56273089614070     -0.13858329117338      0.64820003793771
  O   -1.76781000344822     -1.35914440324890     -0.98522178638002
  N   -0.10384909338891      0.40580302496932      1.37691430411315
  H   0.77576310363615      0.87471612864167      1.55319882492958
  H   -0.86797298336594      0.88725528705458      1.83391262399680
  C   2.04162081714735      0.05932048838601     -0.46495613650429
  N   3.07261956410248      0.57994498736833     -0.25792939275499
