13
Coordinates from ORCA-job run
  C   -0.37170213738118      0.19053301720571     -0.03115600807211
  C   0.76448640778911     -0.69640237517012     -0.52674544104574
  Cl  -0.89170517186999      1.27504757118827     -1.40056597133398
  H   0.93615820761704     -1.47950611951156      0.21597338966958
  H   0.48939252535720     -1.16656335369923     -1.47000256520980
  N   -1.60465843150866     -0.67418575406242      0.24275559647453
  O   -1.63962336219502     -1.78346679976091     -0.27444190606808
  O   -2.46750124389605     -0.16473717015568      0.94385280416941
  N   -0.05646965171110      0.84041363832154      1.16671975270117
  H   -0.84156849797903      1.37184253090212      1.52096818632510
  H   0.76401566484620      1.42633664297458      1.07663487368463
  C   1.97677347660139      0.09980413444692     -0.68566949689261
  N   2.94240221433009      0.75988403732077     -0.77932321440212
