13
Coordinates from ORCA-job run
  C   -0.43462913766678      0.32983984493083     -0.05439638130470
  C   0.63659480647144     -0.62921608339106     -0.60905502258153
  Cl  -0.81193087583684      1.54500753925409     -1.26407561981718
  H   0.31926003720462     -1.03481462493971     -1.57386813425788
  H   0.75370149352272     -1.45605239214300      0.09763060144048
  N   -1.66049489198637     -0.57294552177701      0.20137772286287
  O   -1.50834338607930     -1.32449943296259      1.16047006768751
  O   -2.62785064694063     -0.51548913192989     -0.53796321829706
  N   -0.16023306084814      0.96605846694422      1.18914963799427
  H   0.55127515128496      1.67725330025784      1.08269329640605
  H   0.11355006153672      0.28648310429000      1.88778685728858
  C   1.90713053072766      0.07098125453772     -0.74996885948056
  N   2.92096991860992      0.65639367692859     -0.82978094794085
