13
Coordinates from ORCA-job run
  C   -0.33097534101597      0.47419325045064      0.01933321395482
  C   1.05783460740244     -0.15633307946392     -0.16821013325085
  Cl  -0.67093517643144      1.56617234205336     -1.31067962920923
  H   1.79573747696345      0.64981589653753     -0.18087906600534
  H   1.25692637298913     -0.79981725073215      0.69273056248792
  N   -1.32923568928668     -0.70052518511354      0.02253833998368
  O   -1.17317558218948     -1.44193788773617      0.98966251383075
  O   -2.14433014333101     -0.82247779594299     -0.87383053639912
  N   -0.54495598110037      1.15058062587290      1.25806036952826
  H   -0.27035572339981      0.56789441775270      2.03896247780545
  H   -0.06173938607292      2.03799376978048      1.27906876289557
  C   1.16674509684575     -0.94282943543432     -1.39294359892205
  N   1.24945946862692     -1.58172966802453     -2.37381327669987
