13
Coordinates from ORCA-job run
  C   -0.42639858055060      0.52874262839634      0.03035916131055
  C   0.73103335557856      0.12541906368404     -0.90133302916355
  Cl  -1.22379664345072      1.93542110349522     -0.69355284783483
  H   0.34525455138705     -0.10696477572697     -1.89605643334932
  H   1.41658205264449      0.97281042266069     -0.98574200442811
  N   -1.40896601535051     -0.66197055859200     -0.00786087521757
  O   -1.91133578325475     -0.90963493882820     -1.09467356131012
  O   -1.54420276396241     -1.29834260829844      1.02883856744539
  N   -0.13083066859333      0.80287736188436      1.38501274609206
  H   0.50048396902935      1.58743925127347      1.47256801725056
  H   0.22008009764126     -0.01318012165835      1.86950335870539
  C   1.44083444023581     -1.02405887316608     -0.34791600800283
  N   1.99026198864580     -1.93955795512408      0.13985290850238
