13
Coordinates from ORCA-job run
  C   -0.35108317107177      0.42347553909859      0.07177548416766
  C   0.78666819470769      0.15395013376369     -0.90141899387985
  Cl  -1.26862367154933      1.86604169416197     -0.57942190593129
  H   1.44148077694116      1.03027043686564     -0.90927717868517
  H   0.38519973851182      0.02858737522459     -1.90650578500550
  N   -1.37758186277368     -0.71224558872629      0.02092172228152
  O   -1.39695052135504     -1.40164745020800     -0.98949060670995
  O   -2.11691531941838     -0.80666487166279      0.99094946411973
  N   0.07954805323182      0.53115939389485      1.39367363783289
  H   -0.69019470008499      0.63782217524598      2.04129096993896
  H   0.77296322476912      1.25544702886838      1.51905285400943
  C   1.55218131570354     -1.03027083454145     -0.52017155757653
  N   2.18330794238806     -1.97592503198515     -0.23137810456188
