13
Coordinates from ORCA-job run
  C   -0.34054089160292      0.22933890848728      0.08470739905123
  C   0.67321214313484     -0.43579503638875     -0.83901554097101
  Cl  -0.66628897705754      1.91156520435291     -0.53776042677686
  H   0.36136785747597     -0.32900280111591     -1.87714568031947
  H   0.71167518419257     -1.50033512064031     -0.59474460438826
  N   -1.68967290757526     -0.48087538946001     -0.05120031768997
  O   -1.86682307847459     -1.16398496120444     -1.05175461067398
  O   -2.48966236712297     -0.28234834017261      0.85205291147762
  N   0.02976749201721      0.14559241101805      1.43075310440812
  H   -0.68064712036293      0.53256463504731      2.03875998915150
  H   0.92832041995563      0.57706486525914      1.60572951524916
  C   1.98946702336463      0.15930588702861     -0.63442640244849
  N   3.04082522205537      0.63790973778874     -0.42795533606959
