13
Coordinates from ORCA-job run
  C   -0.40182588508418      0.37483290355810     -0.02002969373076
  C   0.66915311148514     -0.52384240046072     -0.66777432917753
  Cl  -0.53213032534442      1.87235284847825     -0.92709017511570
  H   0.45722732123703     -0.65883607363680     -1.73215158695473
  H   0.63802686963591     -1.50111081390999     -0.17721678905281
  N   -1.70773572146171     -0.43984405158339     -0.13591915649149
  O   -1.73117201204913     -1.41211071862116      0.61372336507242
  O   -2.56585318818412     -0.11141698390405     -0.93673237637633
  N   -0.25565460304863      0.66918307286716      1.36520959674711
  H   0.50641185765244      1.31612472974272      1.52008512042130
  H   -0.12096358989850     -0.17931923476372      1.90073076603479
  C   1.99059800971902      0.06454036808305     -0.48865728505384
  N   3.05391815534117      0.52944635415055     -0.31517745632242
