13
Coordinates from ORCA-job run
  C   -0.43289474704472      0.34236982191835     -0.04196304285219
  C   0.63302717120310     -0.61692089554131     -0.61126231855837
  Cl  -0.80635392323076      1.57115097223423     -1.24623276953197
  H   0.73417742462452     -1.46286823877732      0.07728947744638
  H   0.31688178309101     -0.99499153824464     -1.58687551100884
  N   -1.65565514937015     -0.57402406419466      0.17119105810033
  O   -2.40402549013159     -0.77179153470005     -0.77279201056244
  O   -1.70442328177753     -1.10812194156237      1.27413620260779
  N   -0.16057434105647      0.97049220313785      1.20027607107966
  H   0.59214043808436      1.64026250546509      1.11085856731872
  H   0.03863003265547      0.28990624540276      1.92151136872890
  C   1.91416664131898      0.06860456205258     -0.72055782763120
  N   2.93490344163378      0.64493190280949     -0.77557926513677
