13
Coordinates from ORCA-job run
  C   -0.28361357080106      0.34528401150516      0.09227130024919
  C   1.11296648377105     -0.18531350194375     -0.20069666880741
  Cl  -0.86197011035374      1.32250145286743     -1.31855223032583
  H   1.80001462810046      0.66563688674718     -0.16298982057578
  H   1.38424622039382     -0.87842005725250      0.59825054765039
  N   -1.28538387701516     -0.80393985494760      0.22812262826448
  O   -2.39566846405625     -0.48706581843797      0.63237621833416
  O   -0.89787105367236     -1.93059546627958     -0.05244811105397
  N   -0.31215556211761      1.01484498269553      1.33078524352085
  H   -1.25530077804473      1.30891042724975      1.55696405003146
  H   0.30868155196908      1.81374643660652      1.33435768608894
  C   1.25646708353546     -0.83833361942035     -1.49723413457346
  N   1.42858744829104     -1.34625587938982     -2.54020670880302
