13
Coordinates from ORCA-job run
  C   -0.30789099753180      0.55747004000715     -0.00929427739057
  C   0.80503849733108      0.09473080484770     -0.94221347571732
  Cl  -1.13754262687989      1.95272803969283     -0.72889038927019
  H   1.51496565606717      0.91802015737744     -1.04586194773543
  H   0.38899654271902     -0.14797217243149     -1.91922528355988
  N   -1.40385255758821     -0.56560255643509      0.01672549170585
  O   -1.98784971937749     -0.71693714282359      1.08214151180090
  O   -1.60295102640654     -1.17919505972635     -1.02326062284931
  N   0.16454824339924      0.88547619850436      1.26823632562108
  H   0.67736325563838      0.11461679038042      1.68109264341476
  H   -0.59127609490329      1.15838832514049      1.88338825304317
  C   1.47920037950570     -1.07361259089146     -0.38159639549773
  N   2.00225044802662     -1.99711083364238      0.11975816643468
