13
Coordinates from ORCA-job run
  C   -0.42044120034538      0.53275126274973      0.04710559415329
  C   0.74256735230720      0.15337270519620     -0.88766641816408
  Cl  -1.19328361039571      1.97691060772234     -0.62843623161483
  H   0.36521227836352     -0.03363365430936     -1.89509640885791
  H   1.43896767726814      0.99505784149592     -0.93040258446152
  N   -1.41630374617861     -0.64344060019450     -0.04977862288907
  O   -1.91034188107023     -0.84053287850109     -1.15066936314294
  O   -1.56988485554295     -1.31993232740378      0.95868561581429
  N   -0.13669630695371      0.74832683241114      1.41473717060435
  H   0.19295047637635     -0.09240893352415      1.87107702766337
  H   0.50731736293748      1.51728769894541      1.54006474731017
  C   1.43292943954210     -1.02604527749102     -0.37386748034252
  N   1.96700701369178     -1.96671327709684      0.08224695392740
