13
Coordinates from ORCA-job run
  C   -0.43587951022967      0.52247934406907      0.01068284703655
  C   0.76338873341027      0.13234042836856     -0.87242466828091
  Cl  -1.22734712269932      1.91096259946215     -0.75352162532572
  H   1.43842139550329      0.99004574541349     -0.93527170879779
  H   0.42102318938055     -0.11169793896548     -1.88018674624493
  N   -1.39624575505566     -0.68446906773180     -0.05728939079344
  O   -1.85131930002900     -0.94773388602702     -1.16122715708249
  O   -1.56080529630372     -1.31710865702951      0.97755744870307
  N   -0.19737179016476      0.81011633290060      1.37387951734013
  H   0.42056673281788      1.60318053412238      1.47965568737528
  H   0.14556991264539      0.00215390587127      1.87736620293476
  C   1.46889209905830     -1.00286236698641     -0.28527241134469
  N   2.01310671166646     -1.90740697346730      0.22805200448019
