13
Coordinates from ORCA-job run
  C   -0.34724802321841      0.46288110140441      0.03999520814976
  C   1.05217215255910     -0.11212588698313     -0.22976013330939
  Cl  -0.80316380971654      1.54514155226102     -1.26346635234221
  H   1.32741239822157     -0.74633988036285      0.61698030617961
  H   1.75561122358752      0.72243926927790     -0.28566298268362
  N   -1.29730162803530     -0.74938107326977      0.09326082234577
  O   -1.05653420102945     -1.48927975544149      1.04397601506759
  O   -2.15697689196937     -0.89905210169598     -0.75598768398048
  N   -0.51743116949825      1.12682060432215      1.29232717977792
  H   -0.18877331771877      0.54533679665108      2.05309037866264
  H   -0.05265070677973      2.02456810738728      1.29553407640979
  C   1.11866319697175     -0.89644835650887     -1.45909138339742
  N   1.16722077662588     -1.53556037704176     -2.44219545087996
