13
Coordinates from ORCA-job run
  C   -0.26962341534769      0.33070442615114      0.16154999944477
  C   1.06262385134602     -0.13867543919334     -0.40670426402896
  Cl  -1.11261157867086      1.36474145485546     -1.06356195840406
  H   1.72656948116859      0.73053154101313     -0.44063119596570
  H   1.48723845892264     -0.86551924311957      0.28885660872360
  N   -1.20643640283952     -0.85502562840518      0.40481926840958
  O   -2.23154491496141     -0.59622821516909      1.02036211669132
  O   -0.85363970658200     -1.95126777237670     -0.00992719337496
  N   -0.08918204209650      0.93020248104630      1.42271805033049
  H   -0.98202236927168      1.17941174159772      1.83215972963708
  H   0.50409902512340      1.74758245907614      1.36338237946445
  C   0.98551384204597     -0.71572307783396     -1.74418915209586
  N   0.97901577116305     -1.16173472764207     -2.82883438883174
