15
Coordinates from ORCA-job run
  C   0.89848741892621     -0.57837347302234     -0.10043324622362
  C   -0.45166250403491      0.07089597001518     -0.25622889519220
  H   1.12329182045227     -0.83579715924325      0.93185160464751
  H   -0.60123228678395      0.41641589147301     -1.27827446517809
  H   0.96323894319939     -1.47379489208961     -0.72315001815566
  N   2.01228173967740      0.31642674431648     -0.55406530810795
  O   3.13340227077582      0.02487687797517     -0.15558149253463
  O   1.73043931747702      1.24004160167935     -1.31267864400677
  N   -0.51463364592601      1.32258772524678      0.57737704587341
  O   -1.38869360404808      2.12692071068991      0.27368298859292
  O   0.26897460202843      1.42812511638747      1.51813872859516
  C   -1.58197147362140     -0.84439491544846      0.19004637431644
  H   -1.59778422370512     -1.74784193514935     -0.42258074940387
  H   -2.53865532931815     -0.33394983236475      0.07670503924451
  H   -1.45548304509892     -1.13213843046559      1.23619103753283
