15
Coordinates from ORCA-job run
  C   0.74020475663179     -0.08116821012846     -0.96546884990243
  C   -0.62812933748520      0.13430425918148     -0.34538331897479
  H   0.74232328173247     -0.95473031954082     -1.61524942926876
  H   -1.34438486439720      0.18267411392819     -1.17198622712607
  H   1.05934121038427      0.80603410931838     -1.51209266949549
  N   1.75828285064641     -0.33408936181970      0.09427296021023
  O   1.82175222607593      0.50232535630108      0.99242325464702
  O   2.44602712426551     -1.34672229548294     -0.00267002535315
  N   -0.69552763372566      1.52504198919853      0.25343320108834
  O   -0.34920392602217      2.44206141674549     -0.48454436088572
  O   -1.12571438523944      1.64352068246374      1.39405763426092
  C   -1.02937205041889     -0.92784087004191      0.65587194516151
  H   -0.96375267494646     -1.91069223780769      0.18268899629598
  H   -2.05230142714214     -0.77156683972155      0.99449757990139
  H   -0.37954515035922     -0.90915179259382      1.53014930944100
