15
Coordinates from ORCA-job run
  C   1.10040209201011      0.30487521127319      0.04933370857403
  C   -0.39611465281906      0.32375866886355     -0.21795524709865
  H   1.58142400401218      1.21386218849329     -0.31232611812239
  H   -0.58131193599785      0.46506852725936     -1.28355895759405
  H   1.33222109600089      0.13805536257484      1.09743642757842
  N   1.67407031277472     -0.83221766475044     -0.72611412899166
  O   1.58988213042836     -0.75643161826195     -1.95028449027687
  O   2.15939436909093     -1.76661901633454     -0.09281556437082
  N   -0.99061379460734      1.53099757728013      0.44827412051589
  O   -0.38757839587494      2.01579762044678      1.40459762616891
  O   -2.06841631339726      1.91696007461319      0.00730968235099
  C   -1.11867520433670     -0.90822619829052      0.30041311943239
  H   -0.95656139281809     -1.02195911840025      1.37478208272984
  H   -0.74897380198006     -1.80244303953949     -0.20411872645976
  H   -2.18814851248589     -0.82247857522712      0.10502646556373
