15
Coordinates from ORCA-job run
  C   0.87981306743320     -0.59058243444057     -0.16660147329320
  C   -0.46662655402753      0.08175561929514     -0.22603917811717
  H   0.88896340392384     -1.48216273512129     -0.79793696495642
  H   -0.67870016750354      0.44170431741582     -1.23186868090263
  H   1.16736334080935     -0.86037237543907      0.84688573383948
  N   1.97658707732546      0.28967423185362     -0.68526140644265
  O   1.65975221404485      1.24707823880876     -1.38593018408726
  O   3.11794677736372     -0.04539992482011     -0.39232636230997
  N   -0.45375351153518      1.32409266816318      0.62366566872718
  O   0.37376357743169      1.39201319418540      1.52954376002571
  O   -1.31686557763668      2.15723485796886      0.37102165145687
  C   -1.57890148678008     -0.82094936444802      0.28645468059345
  H   -1.65032777646924     -1.71764278790282     -0.33213638397556
  H   -2.53307011646610     -0.29513439428059      0.24255901689084
  H   -1.38694426791375     -1.12130911123832      1.31897012255134
