17

C	0.0	0.0	0.0
C	-0.396228	0.236602	-1.453016
F	1.40744	0.0	0.0
H	0.020555	-0.620538	-2.011255
H	-0.304415	-1.009833	0.295654
C	-0.522026	1.021835	0.975905
H	-0.084517	0.851896	1.963129
H	-0.274027	2.025855	0.632323
H	-1.608228	0.925105	1.053897
N	0.201093	1.504223	-1.890201
H	1.207176	1.397058	-1.935006
H	-0.132842	1.715548	-2.823032
C	-1.897807	0.277307	-1.656531
H	-2.132101	0.271883	-2.726699
H	-2.335683	1.174151	-1.221264
H	-2.422871	-0.560446	-1.197967
Cl	-4.92301	0.0	0.0
