14
Coordinates from ORCA-job run
  C   0.81328487451731      0.05806175707172     -0.30938992933554
  C   -0.45986627423038     -0.63117815568066      0.22339293339169
  H   1.07692554483638     -0.46924015047730     -1.24267883798426
  H   -0.21713541669000     -1.67972003701027      0.44637950703891
  C   1.92344161761062     -0.14374407431646      0.62932120193773
  N   2.81867990077509     -0.33541801720324      1.36397490117836
  N   0.53236929461458      1.47051522999646     -0.47406923877674
  H   -0.26684618291054      1.55406046322016     -1.09245185418224
  H   1.32420890145279      1.95008187903474     -0.88328010684776
  N   -1.50361358542901     -0.47889473457197     -0.79459010357113
  H   -1.44624612486214     -1.24589712723967     -1.45398605116473
  H   -2.42337598140889     -0.50067519740420     -0.37264304600391
  C   -0.89135942215055     -0.00227339969559      1.47604572861762
  N   -1.28046714612525      0.45332156427629      2.48497489570200
