14
Coordinates from ORCA-job run
  C   0.78254909455485     -0.03759077780012     -0.21656266865034
  C   -0.63757094636260     -0.59456350116003      0.01298010927512
  H   1.46154822936444     -0.88443200380130     -0.38933956810053
  H   -0.91623676511547     -1.11247542939800     -0.92119212529265
  C   1.25195796061838      0.66666525503889      0.98114888786225
  N   1.68777727700935      1.23375739222569      1.91147178425837
  N   0.71456471074522      0.89398324046484     -1.34631059217189
  H   1.44510036850174      1.59147030949611     -1.28151578844054
  H   0.84766949073232      0.38470602523507     -2.21194875241999
  N   -1.50720534393796      0.50773537380082      0.37323036576499
  H   -1.45369576581650      1.19626133517209     -0.36919972969728
  H   -2.46452080467292      0.19416642942308      0.47137447406735
  C   -0.61559307180794     -1.60462298028223      1.07772735323782
  N   -0.59534443381290     -2.43406066841490      1.90813625030733
