14
Coordinates from ORCA-job run
  C   0.81344673800360      0.07795612565727     -0.30432024554152
  C   -0.44941901358180     -0.64437694394540      0.20857088985467
  H   1.09171617401977     -0.42674919847756     -1.24580821916997
  H   -0.18893072197218     -1.69275584574782      0.41124233156907
  C   1.92264680132082     -0.11915407761317      0.63653224008793
  N   2.81913377719784     -0.30035631682955      1.37236989775069
  N   0.50746356140154      1.48788865319574     -0.44418726496556
  H   -0.28968915326484      1.56884506020663     -1.06556582544032
  H   1.29280543211405      1.98949920380279     -0.83918808305944
  N   -1.49143782254688     -0.49008038313218     -0.81083029321003
  H   -1.41790266526994     -1.24272724536678     -1.48501071904748
  H   -2.41232072953553     -0.53659275899624     -0.39348324344787
  C   -0.89749446147798     -0.04924467218613      1.47185120688444
  N   -1.29901791640848      0.37684839943238      2.48882732773541
