14
Coordinates from ORCA-job run
  C   0.67090583199286      0.29591535336648     -0.42148747571452
  C   -0.49426154069527     -0.36568610779414      0.36477117462847
  H   0.37022293853673      0.33289910739386     -1.47583430793399
  H   -0.15359428413877     -0.52606932704609      1.39330308524680
  C   1.84176779948066     -0.58515593238003     -0.32065627743844
  N   2.79079998259235     -1.26325247400989     -0.19257950466143
  N   1.03991347478769      1.63813327264502     -0.01785437090744
  H   1.32295280348303      1.66229125185020      0.95412155901393
  H   0.26674675752156      2.27793888637550     -0.15301652869553
  N   -0.81125322881634     -1.65436520080154     -0.21898417220986
  H   -1.32095908509956     -1.53788731092160     -1.08685438461148
  H   -1.38073099980141     -2.20855187170012      0.40772654517748
  C   -1.61982649660711      0.59046896019464      0.40108833256627
  N   -2.52168395323641      1.34332139282769      0.36725632553972
