14
Coordinates from ORCA-job run
  C   0.94459905762473      0.01334045792853     -0.11345476580870
  C   -0.47854888655764     -0.60768882283635     -0.10059603076222
  H   1.68058946595136     -0.78985378757074     -0.00355321543439
  H   -0.55450117507672     -1.23042025552890     -0.99835545983811
  C   1.06061827157622      0.89658745100779      1.05883986424987
  N   1.08119520955510      1.60611251205216      1.99387016129607
  N   1.24024456227882      0.76330227870603     -1.31737295751985
  H   1.40172429736817      0.12487301456546     -2.08678348801834
  H   0.43581351963883      1.34011987003335     -1.53941761843462
  N   -1.45312829664340      0.46629374767635     -0.21353306839298
  H   -1.53621054339361      0.95812518152378      0.67011327240643
  H   -2.36559662710911      0.09692229486602     -0.45009487160803
  C   -0.65271916253173     -1.48062646046584      1.07562567511364
  N   -0.80307969268102     -2.15708748195763      2.02471250275123
