14
Coordinates from ORCA-job run
  C   0.60566123029913      0.37641671945906     -0.29866972487177
  C   -0.49729839996616     -0.49076510064958      0.34052931953655
  H   0.25963497376151      0.67109419850128     -1.30297111341774
  H   -0.09404760190137     -0.86755749566121      1.28450376281089
  C   1.80331781298984     -0.45106997838857     -0.47321209246718
  N   2.78999938982455     -1.07355953641728     -0.59908557985631
  N   0.90971953030024      1.49586558717873      0.58611833270680
  H   0.18101988204369      2.19688184417232      0.51270003027344
  H   1.78643026868780      1.92739210719223      0.32081293902774
  N   -0.81276375847211     -1.60987221201524     -0.52721988002103
  H   -1.39214629746474     -1.31107229983048     -1.30265782482898
  H   -1.31562702554872     -2.32618878622405     -0.01933922419123
  C   -1.64754084601633      0.38325545570974      0.65033023691582
  N   -2.57835915853733      1.07817949697308      0.82816081838301
