17

C	0.0	0.0	0.0
C	-0.408253	0.286678	-1.466255
F	1.389399	0.0	0.0
H	-0.241597	-0.652666	-2.008626
C	-0.381817	1.135545	0.866262
N	-0.614187	2.040815	1.577218
C	-0.565811	-1.297576	0.523353
H	-0.203043	-1.476406	1.53712
H	-1.658339	-1.241327	0.539274
H	-0.247432	-2.11862	-0.122845
C	0.50974	1.276213	-2.044536
N	1.206265	2.076778	-2.547016
C	-1.853213	0.749593	-1.645435
H	-1.998924	1.730206	-1.190356
H	-2.083485	0.831194	-2.709683
H	-2.587456	0.087286	-1.182725
Cl	-4.680552	0.0	0.0
