17

C	0.0	0.0	0.0
C	-0.532529	0.248387	-1.417117
F	1.38911	0.0	0.0
H	-1.628922	0.156635	-1.325149
C	-0.380642	1.130098	0.875068
N	-0.552407	2.058723	1.57248
C	-0.474176	-1.31671	0.578721
H	-0.058635	-1.439578	1.581128
H	-0.119822	-2.131373	-0.057094
H	-1.565303	-1.310717	0.618089
C	-0.031175	-0.803231	-2.302066
N	0.385175	-1.622777	-3.033712
C	-0.161791	1.627991	-1.966199
H	-0.652608	2.400238	-1.371991
H	-0.502818	1.722949	-2.998772
H	0.919244	1.781381	-1.936738
Cl	-3.641153	0.0	0.0
