17

C	0.0	0.0	0.0
C	-0.419908	0.283317	-1.464278
F	1.389504	0.0	0.0
H	-0.301166	-0.668191	-1.997576
C	-0.381055	1.133831	0.868113
N	-0.614722	2.036798	1.581613
C	-0.559728	-1.300075	0.525605
H	-0.206869	-1.469776	1.544374
H	-1.652996	-1.254819	0.528255
H	-0.224048	-2.120992	-0.112366
C	0.523925	1.22975	-2.072271
N	1.236992	1.997667	-2.602803
C	-1.849762	0.800166	-1.626613
H	-2.10148	0.837212	-2.688044
H	-1.939618	1.808195	-1.219007
H	-2.599773	0.189448	-1.11744
Cl	-4.693731	0.0	0.0
