17

C	0.0	0.0	0.0
C	-0.396729	-0.145115	-1.513079
F	1.392522	0.0	0.0
H	0.578002	-0.230965	-2.002821
C	-0.381176	1.312784	0.553483
N	-0.556371	2.364248	1.046313
C	-0.491688	-1.10699	0.903779
H	-0.11503	-0.928543	1.9135
H	-1.584399	-1.098236	0.906343
H	-0.112269	-2.067313	0.550327
C	-0.997328	1.063194	-2.08109
N	-1.397501	2.007424	-2.654213
C	-1.221459	-1.379815	-1.885721
H	-1.377986	-1.380096	-2.966883
H	-0.686268	-2.292898	-1.622002
H	-2.190123	-1.340673	-1.387822
Cl	-3.70503	0.0	0.0
