17

C	0.0	0.0	0.0
C	-0.410568	0.02949	-1.509995
F	1.392506	0.0	0.0
H	0.553638	0.179352	-2.012786
C	-0.370852	1.25103	0.691109
N	-0.517626	2.251875	1.287651
C	-0.466611	-1.19875	0.795841
H	-0.065947	-1.117528	1.808646
H	-1.55783	-1.208979	0.824435
H	-0.081761	-2.111536	0.338029
C	-1.199926	1.202465	-1.903955
N	-1.654296	2.162513	-2.406178
C	-1.035095	-1.26193	-2.044118
H	-1.221583	-1.147514	-3.114576
H	-1.983927	-1.444027	-1.539834
H	-0.350019	-2.102661	-1.90808
Cl	-3.545255	0.0	0.0
