17

C	-0.266741	-0.045754	-1.493844
C	0.0	0.0	0.0
Cl	-2.044807	-0.260543	-1.877345
H	1.101157	0.0	0.0
H	-0.049702	0.938491	-1.925676
N	0.467207	-1.128932	-2.091913
H	0.51392	-1.004633	-3.096056
H	1.417256	-1.09475	-1.720566
C	-0.48387	-1.24677	0.726487
H	-1.574846	-1.25645	0.813788
H	-0.171663	-2.147309	0.196303
H	-0.052839	-1.273264	1.731025
C	-0.511017	1.278788	0.640768
H	-0.093124	2.160613	0.146609
H	-1.603549	1.336883	0.593503
H	-0.208354	1.31699	1.690504
Br	3.619782	0.0	0.0
