17

C	-0.453244	-0.005779	-1.450635
C	0.0	0.0	0.0
Cl	0.023636	1.503927	-2.308428
H	1.096331	0.0	0.0
H	0.105949	-0.787694	-1.979666
N	-1.9	-0.125404	-1.578115
H	-2.180602	-1.005123	-1.15788
H	-2.140815	-0.166878	-2.561931
C	-0.417635	-1.315945	0.663821
H	-1.491822	-1.352202	0.881564
H	-0.14953	-2.179133	0.045463
H	0.118376	-1.423339	1.609577
C	-0.51243	1.193756	0.792887
H	-0.107296	2.126556	0.399059
H	-0.185633	1.105565	1.832654
H	-1.604548	1.247821	0.765907
Br	3.721879	0.0	0.0
