12

C	0.0	0.0	0.0
C	-0.425002	-0.105087	-1.462423
Br	1.925653	0.0	0.0
H	-1.505684	-0.281639	-1.494459
H	-0.40785	0.857144	0.527409
H	0.108015	-0.937428	-1.928119
N	-0.404999	-1.230058	0.770824
O	-0.507588	-1.092352	1.981368
O	-0.507972	-2.276041	0.141873
C	-0.087746	1.120359	-2.181352
N	0.215419	2.090196	-2.768995
Cl	-3.240351	0.0	0.0
