12

C	0.0	0.0	0.0
C	-0.278621	-0.174243	-1.508523
Br	1.927555	0.0	0.0
H	0.029587	-1.195875	-1.750298
H	-0.410971	0.886175	0.467755
H	0.425584	0.486993	-2.02091
N	-0.397635	-1.18159	0.847765
O	-0.46627	-2.275333	0.302768
O	-0.509047	-0.955611	2.045156
C	-1.556978	0.06824	-2.192123
N	-2.2272	0.247257	-3.145914
Cl	-3.054257	0.0	0.0
