12

C	0.0	0.0	0.0
C	-0.558583	-0.862309	-1.1106
Br	1.928622	0.0	0.0
H	-1.65855	-0.807895	-1.000303
H	-0.363899	1.024131	-0.025228
H	-0.22849	-1.893926	-0.977872
N	-0.402725	-0.549324	1.348207
O	-0.55712	0.274167	2.239552
O	-0.476611	-1.767203	1.456092
C	-0.152345	-0.367675	-2.417162
N	0.174154	0.01951	-3.476424
Cl	-3.462457	0.0	0.0
