12

C	0.0	0.0	0.0
C	-0.564949	-0.227884	-1.387395
Br	1.92367	0.0	0.0
H	-1.648847	-0.383766	-1.242449
H	-0.370884	0.924477	0.433818
H	-0.445945	0.702682	-1.950269
N	-0.404127	-1.091935	0.963226
O	-0.598854	-2.206435	0.497763
O	-0.442891	-0.772918	2.144821
C	0.045886	-1.313437	-2.143831
N	0.486984	-2.164305	-2.822028
Cl	-3.44031	0.0	0.0
