12

C	0.0	0.0	0.0
C	-0.575737	-0.029122	-1.401174
Br	1.917451	0.0	0.0
H	-0.467425	0.973491	-1.825621
H	-0.370564	0.853187	0.562076
H	-1.658567	-0.207684	-1.272012
N	-0.40211	-1.218672	0.800377
O	-0.599644	-2.255639	0.18176
O	-0.436968	-1.070352	2.015787
C	0.036152	-0.989731	-2.30939
N	0.526576	-1.724663	-3.082235
Cl	-3.45387	0.0	0.0
