12

C	0.0	0.0	0.0
C	-0.286634	-0.119746	-1.511708
Br	1.926285	0.0	0.0
H	0.440801	0.532366	-2.004114
H	-0.399477	0.876894	0.496426
H	-0.019193	-1.14244	-1.79135
N	-0.420657	-1.201522	0.804878
O	-0.466901	-2.280292	0.231286
O	-0.594126	-1.004492	1.999797
C	-1.551149	0.222465	-2.171206
N	-2.211704	0.527772	-3.098164
Cl	-3.099193	0.0	0.0
