12

C	0.0	0.0	0.0
C	-0.582875	-0.188294	-1.381633
Br	1.936151	0.0	0.0
H	-1.670814	-0.312118	-1.220196
H	-0.356748	0.91805	0.459661
H	-0.441169	0.743452	-1.936914
N	-0.402966	-1.108163	0.944883
O	-0.432559	-0.810767	2.132855
O	-0.61223	-2.211275	0.460343
C	-0.020825	-1.289348	-2.15361
N	0.404144	-2.152649	-2.82816
Cl	-3.467127	0.0	0.0
