12

C	0.0	0.0	0.0
C	-0.266636	-0.163436	-1.513201
Br	1.929916	0.0	0.0
H	0.379813	-0.977589	-1.847263
H	-0.412606	0.88035	0.478381
H	0.12975	0.749354	-1.97069
N	-0.390256	-1.198609	0.817254
O	-0.486298	-1.011455	2.022351
O	-0.468854	-2.271757	0.233529
C	-1.562155	-0.430701	-2.15064
N	-2.235293	-0.697655	-3.081291
Cl	-3.051545	0.0	0.0
