15

C	0.0	0.0	0.0
C	-0.248252	0.380163	-1.475652
F	1.400615	0.0	0.0
H	0.29954	-0.364924	-2.057981
H	-0.303194	0.808579	0.671111
N	-0.582498	-1.270093	0.276137
H	-0.433977	-1.466725	1.261399
H	-1.598858	-1.050488	0.185765
N	0.588993	1.649513	-1.720396
O	1.302179	1.666286	-2.725863
O	0.443134	2.599215	-0.956983
N	-1.554577	0.63898	-1.935216
H	-2.268091	0.483163	-1.165326
H	-1.763487	0.057146	-2.732017
F	-3.008667	0.0	0.0
