15

C	0.0	0.0	0.0
C	-0.411085	0.073588	-1.487803
F	1.403778	0.0	0.0
H	0.515757	0.00698	-2.068158
H	-0.281583	0.930311	0.494242
N	-0.488969	-1.1744	0.647742
H	-0.275784	-1.05689	1.634441
H	-1.512912	-1.033926	0.555003
N	-0.83015	1.55305	-1.794353
O	-0.231671	2.464598	-1.224398
O	-1.66197	1.725351	-2.6814
N	-1.3663	-0.859735	-1.924022
H	-2.197209	-0.671376	-1.319105
H	-1.581617	-0.681558	-2.896493
F	-2.809519	0.0	0.0
