15

C	0.0	0.0	0.0
C	-0.48326	0.029869	-1.44422
F	1.415042	0.0	0.0
H	-1.584407	-0.019569	-1.297826
H	-0.293783	0.967948	0.40647
N	-0.534474	-1.020093	0.830601
H	-0.538076	-1.886773	0.301247
H	-1.538779	-0.718754	0.826374
N	-0.017994	-1.239695	-2.140457
O	-0.560957	-2.301616	-1.828067
O	0.884404	-1.153395	-2.977615
N	-0.013913	1.197867	-2.110482
H	-0.376366	1.232696	-3.053383
H	0.996788	1.162491	-2.162376
F	-2.787264	0.0	0.0
