15

C	0.0	0.0	0.0
C	-0.246713	0.0394	-1.528969
F	1.385989	0.0	0.0
H	0.342966	-0.790257	-1.924145
H	-0.314192	0.932553	0.476768
N	-0.577703	-1.185012	0.540718
H	-0.435163	-1.169235	1.545761
H	-1.594435	-0.98934	0.400614
N	0.536577	1.258896	-2.035772
O	1.291035	1.089048	-2.994589
O	0.318603	2.345827	-1.507908
N	-1.55013	0.115823	-2.068435
H	-2.263622	0.179561	-1.289905
H	-1.732328	-0.70881	-2.620119
F	-2.972877	0.0	0.0
