12
Coordinates from ORCA-job run
  C   -0.52098011055174      0.60324852668717     -0.22040020829118
  C   0.69215496015309     -0.11916690461244      0.38131061006064
  Br  -0.90732784038340      2.22567131759169      0.73058906229739
  H   0.46525993219307     -0.34115151383844      1.42972650008495
  H   -0.38669001013361      0.83731553796394     -1.27542471627861
  N   -1.72032920110085     -0.30848862677940     -0.12937703493742
  O   -1.82293538038368     -0.98285063394179      0.88920019412581
  O   -2.49109419820992     -0.27526680369379     -1.08034645469482
  C   1.88547820433426      0.72606685485650      0.30213627710828
  N   2.84227341827837      1.40297219073660      0.23394985537153
  C   0.90902476082567     -1.38257292353622     -0.33413344581697
  N   1.05616546497874     -2.38477702143382     -0.92823063902960
