12
Coordinates from ORCA-job run
  C   -0.56123385961362      0.39110283704573      0.46944044199389
  C   0.60810479044470     -0.51439079853651      0.05770324887781
  Br  -1.40538275268089     -0.24821516122366      2.07017286532539
  H   0.21398544365334     -1.52561517739922     -0.09225887459107
  H   -0.25433538291624      1.42455840872208      0.62202990776654
  N   -1.57706133850072      0.40201701884689     -0.64650679978811
  O   -2.11209139209026      1.47992942465955     -0.87329315669328
  O   -1.78142913560582     -0.66523700864849     -1.21355121052673
  C   1.63444701876118     -0.53377700087236      1.10247693277985
  N   2.45996422169010     -0.54658973151235      1.93715193817605
  C   1.17277141879334     -0.03486446903164     -1.20979331756092
  N   1.60126096806490      0.37208165794997     -2.22457197575942
