12
Coordinates from ORCA-job run
  C   -0.55122527834643      0.69397504856628      0.29521891294606
  C   0.87020232389640      0.12451859954636      0.22207677643007
  Br  -1.16453007995955      0.80680272946046      2.11155528036306
  H   1.51067399334740      0.84280598826080      0.75050847609319
  H   -0.58572015564832      1.69508047677291     -0.13470921551790
  N   -1.52609988163833     -0.13343008588930     -0.51109718700801
  O   -1.20587505336439     -1.28957790791216     -0.76247747801886
  O   -2.55616632745349      0.44093888225290     -0.83669750846447
  C   1.31004122832855      0.07545734644219     -1.17725442043951
  N   1.65527742139219      0.09674015167735     -2.29927214521667
  C   1.02722616013033     -1.17274417655688      0.88623503872298
  N   1.21519564931565     -2.18156705262090      1.45591347011006
