12
Coordinates from ORCA-job run
  C   -0.54980611202780      0.61517668471343     -0.03558950260515
  C   0.70754500928304     -0.22674366573806     -0.29413799962699
  Br  -0.51391194321943      1.46787779422109      1.67972681015195
  H   0.55942468824979     -0.76745134141927     -1.23641201274541
  H   -0.65096002730030      1.39533689232165     -0.79238560767893
  N   -1.79767892759340     -0.24296058339331     -0.16785032189411
  O   -1.63265603498832     -1.42433319495400     -0.45772155878987
  O   -2.86185530518680      0.33688986966300     -0.01918259295775
  C   0.94795135706127     -1.21329593927185      0.76280243373028
  N   1.16297942986770     -2.00384347812013      1.60335281658772
  C   1.86030118449926      0.66698240549939     -0.44600585765426
  N   2.76866668135499      1.39536455647805     -0.59659660651747
