12
Coordinates from ORCA-job run
  C   -0.60927277933014      0.69362108260582      0.14237927466399
  C   0.84659680168424      0.22264683662212      0.23641374748562
  Br  -1.33164439451580      1.07534275839689      1.88030633728723
  H   1.40951415775398      1.06509596977538      0.65925864972056
  H   -0.68073735269156      1.60010297867033     -0.45877291129640
  N   -1.48295629212263     -0.32798939622074     -0.54869382478147
  O   -1.07648607930295     -1.48396962169241     -0.57957608519060
  O   -2.52719129896149      0.10613301519510     -1.01571535044752
  C   1.36933679494739     -0.03577790887300     -1.11035912550393
  N   1.77623900412506     -0.18361085685670     -2.20172128475742
  C   1.04482668018883     -0.92611324769743      1.12507256891248
  N   1.26277475822506     -1.80448160992536      1.87240800390745
