12
Coordinates from ORCA-job run
  C   -0.53028403356975      0.61474976770297     -0.16077386399935
  C   0.73719788626129     -0.12874098858873      0.28268413698467
  Br  -0.72770721859334      2.27565648151330      0.78132023529535
  H   0.66474040099682     -0.30554360235914      1.36129561067221
  H   -0.54364278342319      0.81385285379025     -1.23132425352611
  N   -1.72897442531763     -0.25433287498676      0.13180085831207
  O   -2.63146320759752     -0.21724654759343     -0.69507631895764
  O   -1.69871265043682     -0.90170276813406      1.17226318307630
  C   1.92870580073993      0.67132642125332     -0.01002553514899
  N   2.88405878215032      1.30779674743443     -0.25606060716717
  C   0.80840519470696     -1.42376813875579     -0.40529018818883
  N   0.83667625408293     -2.45204735127636     -0.97181325735251
