12
Coordinates from ORCA-job run
  C   -0.49350870788673      0.72409764623791      0.32404579346704
  C   0.88527380169316      0.06898161984495      0.18225872432665
  Br  -1.01482461980062      0.85866263652767      2.16751355404577
  H   1.59206637567271      0.74166306875238      0.68555076640234
  H   -0.48535911924646      1.72921505304363     -0.09774169352942
  N   -1.55325850131693     -0.03462067795215     -0.44115788678676
  O   -2.56016377884348      0.60438849800535     -0.71464931539711
  O   -1.31624391833873     -1.20552767991307     -0.71552635518723
  C   1.25741756485436      0.00575645475490     -1.23597755163986
  N   1.55276577543765      0.01505134216768     -2.37229635494510
  C   0.99165976118497     -1.24142539440683      0.83042490820065
  N   1.14417536659011     -2.26424256706241      1.38555541104303
