12
Coordinates from ORCA-job run
  C   -0.54683356498638      0.62166569276001      0.04182226915573
  C   0.72836489922031     -0.20610725388684      0.25482271439221
  Br  -0.84763685325153      1.82665190718479      1.50525286746152
  H   0.61451385402913     -0.76416867517170      1.19059484799893
  H   -0.52374956687387      1.19219974425532     -0.88539480965886
  N   -1.72015780937259     -0.32214720786711     -0.06094559141267
  O   -1.72107627091314     -1.28273591573094      0.70038429039610
  O   -2.57141475904704     -0.03062126069043     -0.89162820359385
  C   1.90013821883125      0.66823584342215      0.34046738726702
  N   2.83982251086977      1.36911377120129      0.40455272857714
  C   0.87828059740984     -1.16049214537865     -0.85043260795696
  N   0.96974874408426     -1.91159450009788     -1.74849589262631
