12
Coordinates from ORCA-job run
  C   -0.57576645846738      0.19809016735562      0.56238302053559
  C   0.65377842609477     -0.45074872957888     -0.08859223577874
  Br  -1.29911978137831     -0.91553890841300      1.94820935736487
  H   0.34529864543450     -1.41846831159023     -0.49888997760046
  H   -0.35838678753731      1.18096871668724      0.97771362532495
  N   -1.62962214652374      0.40179052155193     -0.49863749897074
  O   -2.26563082584319      1.44595919899556     -0.42849914244566
  O   -1.76147445019295     -0.49621987720467     -1.32238397264073
  C   1.71479290088297     -0.64808587690289      0.90135241278408
  N   2.56653227318122     -0.80067460201872      1.69474335189069
  C   1.12743082970371      0.39981561491849     -1.18728929560817
  N   1.48216737464570      1.10211208619954     -2.05910964485569
