12
Coordinates from ORCA-job run
  C   -0.54886884189429      0.66631379306261      0.09422776634976
  C   0.66666540152676     -0.14963079155529     -0.38357450214723
  Br  -0.30758803932267      1.40075284071567      1.83443088223843
  H   0.41479999817399     -0.53289297610448     -1.38016776444967
  H   -0.75026918091483      1.47398421626829     -0.61002509035678
  N   -1.75793031299800     -0.26151379405096      0.00092164569320
  O   -1.97177330068700     -0.64219027676161     -1.14689050706513
  O   -2.38363332369810     -0.55265652760466      1.00517859122329
  C   0.91444474752866     -1.29193793028892      0.50116463283629
  N   1.09034745924456     -2.22166716261928      1.19632164940106
  C   1.84878283498951      0.70650578451378     -0.49606819722129
  N   2.78502255805142      1.40493282442485     -0.61451910650194
