12
Coordinates from ORCA-job run
  C   -0.53480030026534      0.62898093220106     -0.02795454672900
  C   0.69890326473042     -0.24264086980945     -0.30205706086622
  Br  -0.45971172800265      1.47571704931309      1.68893239410721
  H   0.52838766143468     -0.77538917516334     -1.24496699258399
  H   -0.62430381277158      1.41397141877849     -0.78128302743620
  N   -1.80435031983218     -0.19855089060772     -0.15018860314495
  O   -1.67065146710900     -1.37918997539516     -0.45851021932144
  O   -2.85263054899806      0.40321260684422      0.02176564102157
  C   0.92367425100925     -1.23935717233625      0.74874256123561
  N   1.12545348649652     -2.03887934792618      1.58406601589591
  C   1.87222160783073      0.62255664516779     -0.46115816958498
  N   2.79680790547722      1.32856877893343     -0.61938799259352
