12
Coordinates from ORCA-job run
  C   -0.54106978892264      0.59085825438366     -0.21308288376425
  C   0.72737009070785     -0.09280718458203      0.31673950342033
  Br  -0.82572889687178      2.28635474906545      0.64048755917718
  H   0.61147673917000     -0.22371253863307      1.39811992869556
  H   -0.51576946191481      0.73977571953749     -1.29148199077017
  N   -1.72329007891011     -0.30297906215227      0.07257006567325
  O   -1.73013095734762     -0.87556160343052      1.15625669212918
  O   -2.57494189567831     -0.36200067388416     -0.80527487870065
  C   1.90728199529749      0.73029002972594      0.04234538680245
  N   2.85354935777854      1.38792794586080     -0.18222344094282
  C   0.86482057994358     -1.41366877514857     -0.30879517271857
  N   0.94643231674781     -2.46447686074272     -0.82666076900148
