12
Coordinates from ORCA-job run
  C   -0.55628085817027      0.65978755548353      0.09029120809294
  C   0.67872994934232     -0.13891596456404     -0.36618392183350
  Br  -0.37154825834115      1.36326407295416      1.85010213715838
  H   0.45919087919465     -0.50621268341632     -1.37641358286498
  H   -0.74188262180608      1.47923931283337     -0.60473010314164
  N   -1.75588390737196     -0.27325817577350     -0.05602857685907
  O   -2.41034108272352     -0.58503912164558      0.92341476161674
  O   -1.93222473162520     -0.63528366016379     -1.21617852091467
  C   0.91009156252656     -1.29452821999330      0.50547568540911
  N   1.07347729435879     -2.23503546781004      1.18906883434703
  C   1.85657930549531      0.72826850557206     -0.42973750018558
  N   2.79009246912055      1.43571384652345     -0.51008042082477
