12
Coordinates from ORCA-job run
  C   -0.51237169163676      0.75056122891100      0.21529747874754
  C   0.88662793808061      0.12798901074702      0.13959139871388
  Br  -0.99001233709229      1.17360458731942      2.02660661641701
  H   1.58007840659701      0.89904957859977      0.50004997799522
  H   -0.55410761842691      1.67111579502890     -0.36701716143893
  N   -1.56155873176519     -0.16064372523696     -0.37915397940683
  O   -2.59931075663541      0.38937877309310     -0.72177796939891
  O   -1.28616738126498     -1.35200248568860     -0.46412314007930
  C   1.22338362107012     -0.15919688185413     -1.25974306796003
  N   1.48679478113926     -0.32920575784990     -2.39122631398016
  C   1.06040008509955     -1.05096618531832      0.99319781654336
  N   1.26524368483500     -1.95968393775130      1.70729834384715
