12
Coordinates from ORCA-job run
  C   -0.51808752111976      0.60420197624646     -0.23334249139416
  C   0.70488125397130     -0.11108209082720      0.35841972488719
  Br  -0.82753398639012      2.28769669998663      0.63458045107906
  H   0.52126344995986     -0.26163497342276      1.42786222829925
  H   -0.42374252958943      0.77181418130151     -1.30510206661952
  N   -1.72898876749261     -0.27508128351112     -0.03819646436473
  O   -2.52586986844098     -0.30385625821000     -0.96752394459027
  O   -1.81156112311169     -0.86699482721756      1.03193999970183
  C   1.91242037084449      0.69688597427327      0.17395395100144
  N   2.88111215965192      1.34267267387392      0.02242541316771
  C   0.85960991152045     -1.42118698039792     -0.28536411675105
  N   0.95649665019656     -2.46243509209522     -0.81965268441676
