12
Coordinates from ORCA-job run
  C   -0.60541009560443      0.70414239499332      0.10119682909537
  C   0.84316353480872      0.22361865370571      0.24707052136326
  Br  -1.36297361979709      1.16082408471975      1.80569123675423
  H   1.40457052911993      1.07669816181662      0.65008534603969
  H   -0.65353808475558      1.58688978126913     -0.53658521633006
  N   -1.47348798423094     -0.33571107190894     -0.56969795301651
  O   -1.07771538230231     -1.49557336523778     -0.54690666866781
  O   -2.50274411561775      0.08925766090923     -1.07658477677279
  C   1.39374291417292     -0.09109670766546     -1.07644100154187
  N   1.82446778772649     -0.28490294444419     -2.15136198730438
  C   1.00910584825455     -0.89159739692907      1.18362105565174
  N   1.20081866822548     -1.74254925122833      1.96891261472912
