12
Coordinates from ORCA-job run
  C   -0.59636253996607      0.10779334660435      0.56474009504782
  C   0.67606938458310     -0.40811849536720     -0.12138295777533
  Br  -1.29750202144448     -1.18765181534398      1.79567280485033
  H   0.42264375210101     -1.33519194619884     -0.64708070775237
  H   -0.43411138245464      1.04532554888322      1.09429287862485
  N   -1.63585107352201      0.38404343844775     -0.49420297878643
  O   -2.32443888430262      1.38177385001605     -0.32158112520559
  O   -1.70556840771154     -0.41784709491609     -1.41852600094863
  C   1.72293906911255     -0.67104765178636      0.86843149707332
  N   2.56354849653648     -0.87646540717665      1.66185662815971
  C   1.13409481118000      0.58265048531218     -1.10315465768369
  N   1.47453879588823      1.39573574152558     -1.87906547560398
