12
Coordinates from ORCA-job run
  C   -0.58525563029431      0.63913119164895      0.34922269366569
  C   0.87136252561548      0.22846678952607      0.10386327701467
  Br  -0.97073129519322      0.75198986449563      2.22680002484223
  H   1.48691276418221      1.03265883011753      0.52780625607971
  H   -0.78781012579873      1.61339729234478     -0.09574401659579
  N   -1.55328738425890     -0.32043676397956     -0.30390881831034
  O   -1.13784210772058     -1.44296055896954     -0.56792512102595
  O   -2.67492475564006      0.12441940434229     -0.50659161922882
  C   1.13212742547778      0.17672422491811     -1.33952520441854
  N   1.32485780361444      0.19301642192558     -2.49761381974766
  C   1.25951015461055     -1.01796905037307      0.77042550658449
  N   1.63408062540533     -1.97743764599677      1.33319084114031
