12
Coordinates from ORCA-job run
  C   -0.53231975133623      0.63159340827118     -0.03066601285867
  C   0.70019206440247     -0.24333656650986     -0.29909626321162
  Br  -0.46474224131008      1.47549491074333      1.68760841397284
  H   0.53508917573439     -0.77203452339172     -1.24522975664448
  H   -0.61587581658207      1.41737773080626     -0.78386879163421
  N   -1.80376606564536     -0.19296412004157     -0.16129758386381
  O   -1.67137072263334     -1.37112565509530     -0.47954651985052
  O   -2.85142936758323      0.40889909762226      0.01343598008848
  C   0.91305016123696     -1.24483511099531      0.74957147229905
  N   1.10718428702722     -2.04832022965520      1.58283560129196
  C   1.87805026558952      0.61799171622331     -0.44515333553430
  N   2.80693801109976      1.32125934202261     -0.58959320405472
