12
Coordinates from ORCA-job run
  C   -0.54225079128713      0.40428547987497      0.47946784485206
  C   0.60296512355328     -0.52162142893169      0.04595749208718
  Br  -1.34647682923003     -0.20216360695355      2.11339755047766
  H   0.19073137707421     -1.52847853980738     -0.08199130036141
  H   -0.21878649195097      1.43607776936314      0.60794919476650
  N   -1.59050722121844      0.41189203446812     -0.60609480299007
  O   -1.82738296691023     -0.66127379578559     -1.14888217162846
  O   -2.11767315477983      1.49328362394562     -0.83450266855424
  C   1.65798250514786     -0.54444503666446      1.06146474428787
  N   2.50586920485955     -0.55841588221222      1.87340735893335
  C   1.13865520424718     -0.06185588529656     -1.24120757861949
  N   1.54487404049456      0.33271526799961     -2.26996566325097
