12
Coordinates from ORCA-job run
  C   -0.54531894007797      0.59855502695508     -0.17760754568182
  C   0.73821262035933     -0.10410190274895      0.28651012160605
  Br  -0.78860003111636      2.27329025958502      0.72825914672833
  H   0.66193363668933     -0.26367368509859      1.36764411721120
  H   -0.55923252216422      0.77436203324041     -1.25210451657633
  N   -1.72079129441875     -0.29647401733161      0.12974042604416
  O   -2.60558085633667     -0.32920230406186     -0.71615283880990
  O   -1.68963988622444     -0.89645225931018      1.19818400265634
  C   1.91184869296244      0.71999863841284     -0.01035618585850
  N   2.85245054347895      1.37966179497144     -0.25225777002957
  C   0.84434433445291     -1.40907573940365     -0.37758960920584
  N   0.90037370239545     -2.44688784520994     -0.92426934808412
