12
Coordinates from ORCA-job run
  C   -0.52465204056144      0.43185469354636      0.47420358670240
  C   0.59064313473478     -0.53532140702056      0.05280941540900
  Br  -1.32192077639807     -0.10558553298464      2.13534326354935
  H   0.15075544159428     -1.53402782232836     -0.04273351538609
  H   -0.17327930312795      1.45829158110391      0.56768017574880
  N   -1.58741821742962      0.43482908972677     -0.59745242548452
  O   -1.85944938484550     -0.64729502035728     -1.10469952900348
  O   -2.08995833927222      1.52231423063491     -0.85086777034046
  C   1.65719774758981     -0.55901207623126      1.05609826094451
  N   2.51407239542680     -0.57476066609990      1.85854980224598
  C   1.12126958758910     -0.12407582575753     -1.25267351989533
  N   1.52373975470004      0.23378875576758     -2.29625774449014
