12
Coordinates from ORCA-job run
  C   -0.58982784474855      0.70937061443859      0.14640410039258
  C   0.85576199959095      0.20419433846933      0.21967581939287
  Br  -1.27245120640911      1.12412273298815      1.89285721161222
  H   1.44606716638039      1.03681150669383      0.62417827194632
  H   -0.64974200007915      1.61205056705854     -0.46168653755440
  N   -1.49966438576523     -0.29680189559401     -0.51995942407201
  O   -1.12257866253528     -1.46282810149560     -0.54535780457382
  O   -2.54031750480924      0.15859070050671     -0.97453030095426
  C   1.34781736368448     -0.07916036580300     -1.13370006862156
  N   1.73096354472606     -0.24786790840536     -2.23065581682144
  C   1.04198445907231     -0.94077927811589      1.11572506760085
  N   1.25198707089237     -1.81770291074129      1.86704948165264
