12
Coordinates from ORCA-job run
  C   -0.57179707698335      0.68359891911388      0.27940772749741
  C   0.87522937803744      0.23053070628343      0.05329878628587
  Br  -0.90973051085351      1.03504465337524      2.13693452124911
  H   1.50679857888312      1.07532035125150      0.35803807163555
  H   -0.77873490766697      1.59659367513317     -0.27901506300966
  N   -1.56257267123851     -0.34056184276090     -0.22403250958023
  O   -1.16099871915627     -1.49107966858248     -0.35628865858645
  O   -2.68637854747226      0.08597621659406     -0.45220534624572
  C   1.10000647950696     -0.00462273608889     -1.37784089691467
  N   1.26463736861039     -0.13504969260397     -2.53302011109699
  C   1.27092580698710     -0.92599252652945      0.86229369403016
  N   1.65261482134586     -1.81075805518559      1.53242978473563
