12
Coordinates from ORCA-job run
  C   -0.55124487667311      0.66289704235636      0.09998124597089
  C   0.67073725239179     -0.14244553428490     -0.37911562621401
  Br  -0.32890269524569      1.36866541817852      1.85453317041759
  H   0.42994212359455     -0.50989844189378     -1.38446221696795
  H   -0.74693150893283      1.48217518633830     -0.59245583414866
  N   -1.75769736697634     -0.26494103477349     -0.02108965713757
  O   -1.95898403138409     -0.62728023480309     -1.17707714476186
  O   -2.39384027385459     -0.57274595296753      0.97159017797413
  C   0.91340089015017     -1.29801325909107      0.48945612853911
  N   1.08537022559401     -2.23935071183524      1.16980320438702
  C   1.85131930488009      0.71904038210371     -0.46694185741123
  N   2.78583095645605      1.42289714067221     -0.56522159064747
