13
Coordinates from ORCA-job run
  C   -0.60392891703013      0.52226957925928      0.11501761914943
  C   0.66457546117815      0.09239441133205      0.82070978310559
  F   -1.32933871554826      1.25650412268658      1.01071436966179
  H   1.22434950969698      0.97001104407077      1.14357726672372
  H   0.40763358538242     -0.52821455333771      1.67883834269271
  C   -0.36738803657328      1.30874437015244     -1.09379716760023
  N   -0.14503742984617      2.01275120877625     -2.00752802250521
  N   -1.48649203201910     -0.68683240220816     -0.21450036191215
  O   -2.13734346856034     -0.63397838220782     -1.24671521866571
  O   -1.51060537980307     -1.55577797731493      0.64609636993513
  N   1.54694594141350     -0.71305026346873     -0.07056538328660
  O   2.69414702091401     -0.88218562474057      0.31803701782502
  O   1.04248246079528     -1.16063553299945     -1.09888461512348
