13
Coordinates from ORCA-job run
  C   -0.49871566163496      0.48159433239638      0.16478087068802
  C   0.92090183189950      0.17456928645689     -0.26889936345015
  F   -0.54407502202969      0.78896738063126      1.47640918058373
  H   0.92834731810010     -0.21712416499113     -1.28605944910102
  H   1.53851995066517      1.06823065988417     -0.19260922778238
  C   -1.04386487058654      1.57916204436629     -0.63989756801530
  N   -1.46317300510230      2.47616681483458     -1.27253145636357
  N   -1.41974861097378     -0.73252102096710     -0.08413681211812
  O   -1.36214998634757     -1.17093265351507     -1.22294183435228
  O   -2.11854908323032     -1.09467781746951      0.84076998301716
  N   1.53469343485344     -0.85907330861411      0.62065829440789
  O   2.71796121084521     -0.70706129930092      0.89608018519461
  O   0.81085249354174     -1.78730025371174      0.96637719729141
