13
Coordinates from ORCA-job run
  C   -0.57264336079074      0.26259529717919      0.16949689752073
  C   0.66252113116415     -0.61112353847449      0.10626977441770
  F   -0.78422986517730      0.71194136164338      1.43201613465291
  H   0.60807279136215     -1.37843517352863      0.87689313504095
  H   0.76223538037561     -1.08654311264978     -0.87014357167463
  C   -0.56343109653670      1.36319381099489     -0.79290211491917
  N   -0.54559102104641      2.21057580524206     -1.60609651790656
  N   -1.79510038440980     -0.63079450630629     -0.14065380707534
  O   -2.75038331884402     -0.09143463096650     -0.68066249413917
  O   -1.72005193619830     -1.78542710249413      0.26286272799336
  N   1.92071056022054      0.16679668133783      0.34997403461358
  O   1.82804344247360      1.35966003717420      0.62010918039215
  O   2.94984767740720     -0.49100492915171      0.27183662108348
