13
Coordinates from ORCA-job run
  C   -0.55041055163434      0.29889384891721      0.18488222099843
  C   0.62606067314351     -0.65022488709697      0.09713387303674
  F   -0.69711636237041      0.77484458461856      1.44701630072283
  H   0.55133038072747     -1.39938421669444      0.88385214888917
  H   0.66310172138518     -1.14832956455046     -0.87217054695721
  C   -0.50140815565588      1.38655762561813     -0.79090658971202
  N   -0.45323025365665      2.22263368191299     -1.61454278421748
  N   -1.83461136708485     -0.51945042232557     -0.07925395786200
  O   -2.77431011518528      0.07800173764523     -0.58425904645282
  O   -1.81444915025795     -1.67766386421651      0.32027961747353
  N   1.93711094192897      0.05197447504620      0.28438811283666
  O   2.92139256149125     -0.66607720765036      0.16684750242315
  O   1.92653967716897      1.24822420877599      0.55573314882102
