13
Coordinates from ORCA-job run
  C   -0.50788953973235      0.47782262735378      0.15848330156366
  C   0.92443657065460      0.18569614487453     -0.24230060855747
  F   -0.58877950346373      0.77323393767203      1.47116771607121
  H   0.96132267271976     -0.19319932208617     -1.26357708846841
  H   1.53327338147056      1.08255284769651     -0.13858207692169
  C   -1.04037451686065      1.57819423600046     -0.65109997883028
  N   -1.43846554422046      2.47242352053315     -1.30114766824980
  N   -1.41268800262478     -0.74159414739298     -0.12381540865346
  O   -2.12982371840726     -1.11793567107387      0.78115140329039
  O   -1.32249673265520     -1.17069729627875     -1.26405565151382
  N   1.52380868267993     -0.85498326867083      0.64918998229538
  O   0.79688650552851     -1.78906103689649      0.97211927099368
  O   2.70078974491106     -0.70145257173137      0.94946680698060
