13
Coordinates from ORCA-job run
  C   -0.53571562045916      0.29625479757658      0.22805730290002
  C   0.64214818477187     -0.62222526262373     -0.03470849933732
  F   -0.56804495165839      0.65972679266213      1.52386919110450
  H   0.56228236469715     -1.50846191608043      0.59584708445989
  H   0.68949360553965     -0.90964837029371     -1.08507237179036
  C   -0.62960820607884      1.46143640893712     -0.65074951568214
  N   -0.75831609661888      2.38074155018556     -1.37079636091822
  N   -1.78725415367769     -0.56923713777937     -0.05305795541035
  O   -1.89269140776384     -0.93937269166332     -1.21412346298552
  O   -2.51335231948459     -0.81484045405428      0.89311683648834
  N   1.94168245438504      0.03504147872527      0.31424209405877
  O   1.98636412818642      1.26001303342283      0.28695323019725
  O   2.86401201816125     -0.72942822901466      0.56642242691514
