13
Coordinates from ORCA-job run
  C   -0.51377920443238      0.42041026982575      0.26568862769957
  C   0.93586278934936      0.22958808537852     -0.13390066765951
  F   -0.65882390228542      0.32770203367858      1.60276042214374
  H   1.02539816186363      0.16394814091425     -1.21811620555658
  H   1.54154532895777      1.04663184737061      0.25544984983730
  C   -0.99948455223795      1.71751791229005     -0.21534515322589
  N   -1.35840770324936      2.76945109077880     -0.59636993419698
  N   -1.40851448532693     -0.64725035944663     -0.39793599285522
  O   -1.25655496158895     -0.73757454073461     -1.60689121977397
  O   -2.18166552526011     -1.24594880008606      0.32237651791334
  N   1.48569813497146     -1.03566301937380      0.44418150775027
  O   2.65563860457650     -1.00359725336120      0.80362582601568
  O   0.73208731466236     -2.00321540723424      0.47347642190826
