13
Coordinates from ORCA-job run
  C   -0.60711089648037      0.52251956008459      0.09611095004220
  C   0.66216233385384      0.12542366930455      0.81844813676315
  F   -1.34168916200144      1.27975544612851      0.96504439175314
  H   1.21768392069853      1.01699933786746      1.10901204873149
  H   0.40851951748791     -0.46497896568155      1.69846159373072
  C   -0.37389854891965      1.27071446890096     -1.13736702846934
  N   -0.14536866694413      1.94267680943528     -2.07335755811513
  N   -1.48143483421593     -0.70218501480375     -0.19706961512122
  O   -1.46703941896058     -1.56947275936109      0.66535256038929
  O   -2.16979742600320     -0.65796564405436     -1.20561959088634
  N   1.54972740561775     -0.70909719762400     -0.04111685265454
  O   2.68964165791397     -0.87714286999996      0.36863101625716
  O   1.05760411795329     -1.17624684019666     -1.06653005242058
