13
Coordinates from ORCA-job run
  C   -0.51350831385100      0.38850038149936      0.10968520014667
  C   0.58586556980944     -0.65440065607872      0.17129705260382
  F   -0.54825315119637      1.10268539591703      1.25024738475190
  H   0.41199058737376     -1.31952499410176      1.01795985302985
  H   0.63579725164741     -1.22722707237156     -0.75475724778679
  C   -0.48199664016822      1.26337967558477     -1.06166631764854
  N   -0.51092047474674      1.95072571318373     -2.01394282532953
  N   -1.82817955140251     -0.42278673492654      0.01799185193688
  O   -2.59776219451942     -0.33662757560807      0.95774205226391
  O   -1.93466424189818     -1.09497493855769     -0.99841723530546
  N   1.92816889806874     -0.02710175489101      0.38915652952605
  O   2.08100696156427      1.13326835936537      0.02374836404932
  O   2.77245529931883     -0.75791579901491      0.89095533776192
