13
Coordinates from ORCA-job run
  C   -0.51918407780784      0.47259673816289      0.13385372167697
  C   0.93216422483665      0.19269782430504     -0.20246168359392
  F   -0.65956819734265      0.77425130013730      1.44043030197028
  H   1.52659004856913      1.09629097624926     -0.07487750266248
  H   1.01908789520014     -0.18788115473867     -1.22020340211826
  C   -1.02633204104789      1.56454537434735     -0.70264121874050
  N   -1.40093033830991      2.45425162732505     -1.37260351668971
  N   -1.39974326613271     -0.75556072458391     -0.18092023308814
  O   -1.25204187509885     -1.19262881233408     -1.31225291439875
  O   -2.15815792648093     -1.12994922383162      0.69059337334519
  N   1.50244433923218     -0.83876439787797      0.71852013148432
  O   0.76427369217971     -1.76656440728760      1.03341230569172
  O   2.67139752220295     -0.68428511987303      1.04815063712327
