13
Coordinates from ORCA-job run
  C   -0.51654712143401      0.47599434452412      0.13660838988945
  C   0.93458645146529      0.18870562780569     -0.19383083534467
  F   -0.66294824283190      0.76703726051784      1.44465565218866
  H   1.02457477210898     -0.18140038962686     -1.21500936636821
  H   1.53567628810044      1.08593005390185     -0.05322811704472
  C   -1.01036885174004      1.57844811530187     -0.69435465372748
  N   -1.37556959518408      2.47449294239004     -1.36106888050752
  N   -1.40359835360919     -0.74284117856664     -0.19504711584912
  O   -1.24952263921500     -1.17300064016656     -1.32819496242963
  O   -2.17414776710450     -1.11612876648696      0.66619652533258
  N   1.49170326470590     -0.85761076144526      0.71853664902865
  O   0.74363088394739     -1.78111117582832      1.02249223592742
  O   2.66153091079073     -0.71851543232080      1.05224447890457
