13
Coordinates from ORCA-job run
  C   -0.57599620249907      0.37945967215419      0.19000877368717
  C   0.93245069390842      0.25792280692998      0.10390661603237
  F   -1.00735429372218      0.13138577957701      1.44266057024084
  H   1.40598586188909      1.03405816282421      0.70336979917895
  H   1.25847812069393      0.31715488442903     -0.93444116169717
  C   -0.99612156788490      1.71523294626648     -0.24469753593365
  N   -1.30327230959626      2.79756852836434     -0.58367321553756
  N   -1.25976892507524     -0.61891638533826     -0.76872413216038
  O   -2.14700679886095     -1.30819337408075     -0.30753494604615
  O   -0.84325625598862     -0.56732049001906     -1.91609589498251
  N   1.39236461504243     -1.05689077381748      0.64925245597111
  O   2.45074568307114     -1.04854781394629      1.26463846260096
  O   0.69175137902223     -2.03291394334342      0.40133020864601
