13
Coordinates from ORCA-job run
  C   -0.59782455555874      0.56324956434607      0.16279611580691
  C   0.76306455242945      0.19787217927314      0.73458932253277
  F   -1.21610217031137      1.36494448010333      1.06455560591021
  H   0.60987828885611     -0.31383633936849      1.68435926678167
  H   1.36017884915242      1.10147526264841      0.84631896484698
  C   -0.53781425190215      1.21787319952596     -1.14228950996473
  N   -0.46493117713220      1.80384570108937     -2.15813305156100
  N   -1.43344094649954     -0.72273644382690      0.04744002748369
  O   -1.53969522958907     -1.20942609275156     -1.06922039420354
  O   -1.86929433697406     -1.14381608723327      1.10619461857766
  N   1.47516181444268     -0.72547747226686     -0.19388841521965
  O   1.21208413505380     -1.92014346372908     -0.07724777919269
  O   2.23973502803266     -0.21282448781013     -1.00647477179826
