13
Coordinates from ORCA-job run
  C   -0.60808744486205      0.35737313846800      0.11875022647608
  C   0.89914681793467      0.27111897596750      0.25481602906499
  F   -1.21420911533829      0.03777585875597      1.27948222067428
  H   1.37515816186149      0.38956817857458     -0.71850214536677
  H   1.25550806538696      1.02609349880530      0.95420935366507
  C   -0.99574918235680      1.70439738677125     -0.31135062376460
  N   -1.27854317411351      2.79550273806663     -0.64317536771957
  N   -1.11344800611997     -0.60517420298983     -0.97767583443978
  O   -0.53450039149021     -0.48435969997558     -2.04661682102214
  O   -2.03813296163831     -1.33690051121928     -0.68699047346896
  N   1.30883581281038     -1.05942115625208      0.80136372938227
  O   2.26441505208302     -1.06004535234807      1.56669694601112
  O   0.67960636584263     -2.03592885262438      0.40699276050800
