15

C	-0.45611	0.186657	-1.419851
C	0.0	0.0	0.0
F	-1.768049	0.545359	-1.53439
H	1.106293	0.0	0.0
H	0.169627	0.956942	-1.872523
N	-0.239945	-1.056365	-2.257096
O	-1.098114	-1.320411	-3.088732
O	0.815389	-1.643933	-2.083145
N	-0.551295	-1.197743	0.64624
O	-0.173158	-1.43352	1.789546
O	-1.315814	-1.913109	-0.009256
N	-0.419602	1.215856	0.740321
O	-1.099153	1.122857	1.757009
O	-0.032716	2.273429	0.242357
F	2.429928	0.0	0.0
