13

C	-0.451869	-0.073768	-1.445714
C	0.0	0.0	0.0
F	-0.260106	1.179575	-2.041137
H	1.091615	0.0	0.0
H	-0.393353	0.903718	0.46756
H	-0.352283	-0.875391	0.551331
C	0.353357	-1.088235	-2.23426
H	0.07571	-1.054955	-3.28983
H	0.179239	-2.093988	-1.8463
H	1.410536	-0.844206	-2.107779
C	-1.902675	-0.352319	-1.552367
N	-3.050007	-0.591472	-1.627341
Cl	3.54789	0.0	0.0
