14
Coordinates from ORCA-job run
  C   0.56317427221780      0.28633029655370      0.23959426567808
  C   -0.59308955531059     -0.24262792157092     -0.29411580712623
  N   1.82693292803915     -0.00887472925034     -0.43085441553198
  O   1.82758673016363     -0.75522297482897     -1.41511559910027
  O   2.84722133651337      0.49061903040293      0.05356607047766
  N   0.71505205919802      0.93440711349763      1.44772751918041
  H   1.68451575497396      1.18293117512639      1.59062112454390
  H   0.07375368810079      1.69107300533385      1.61868243068657
  N   -1.83643371249874     -0.00115644984450      0.45056900205467
  O   -2.75777497852983     -0.79426298635737      0.24468677672498
  O   -1.85216910049988      0.89347859821684      1.29638930568743
  N   -0.79853735195540     -0.89368224687928     -1.47671509931419
  H   -1.69096610354313     -1.36406138460876     -1.51091726348196
  H   -0.00826596686916     -1.41895052579119     -1.81411831047907
