14
Coordinates from ORCA-job run
  C   -0.58288489842875     -0.25202229732328      0.30591944981272
  C   0.55437518326175      0.29563070931570     -0.24907880989365
  N   -1.84786713255233     -0.00830644511681     -0.40094921650247
  O   -2.75611533702995     -0.81429903987783     -0.18686489594940
  O   -1.89504742814532      0.90370615303257     -1.22675793776012
  N   -0.75169180037462     -0.92594611834122      1.48148838960523
  H   0.05244750125393     -1.44820565031867      1.78965215757878
  H   -1.63772918145827     -1.40718173698805      1.52884066508195
  N   1.83742576428887     -0.00149171902060      0.38085131439543
  O   2.84076408238302      0.51455877299875     -0.12148694442157
  O   1.87046075239998     -0.76581678827825      1.35078008150756
  N   0.66724816862766      0.96577275399329     -1.44949070999505
  H   1.63035376924924      1.22291939675629     -1.61720107707409
  H   0.01726055652479      1.72168200916811     -1.58770246638531
