14
Coordinates from ORCA-job run
  C   0.47975924217049      0.36423457075514      0.34117049087424
  C   -0.47963876574840     -0.36517358760969     -0.34037304234991
  N   1.88670174821023      0.10567907492134      0.05814379390009
  O   2.71040106458860      0.70231476103471      0.75789243123178
  O   2.18980411076943     -0.68534718320372     -0.84243297045434
  N   0.30652955693370      1.42193737432269      1.19564569532883
  H   -0.57148762894467      1.43451981367496      1.68635136884766
  H   1.13459672765080      1.62585663646303      1.73462181021879
  N   -1.88627858706160     -0.10428418497095     -0.05910207856521
  O   -2.18930355591771      0.68189567510203      0.84573012250304
  O   -2.71015196998029     -0.69533031237761     -0.76343951485673
  N   -0.30735944039640     -1.42270385575635     -1.19496635382681
  H   -1.13430015146198     -1.62455112891776     -1.73640150625739
  H   0.57272764918781     -1.43904765343782     -1.68184024659405
