14
Coordinates from ORCA-job run
  C   0.47531078876227      0.40938148476249      0.20840494616451
  C   -0.51442156992682     -0.32925453054380     -0.34708073940747
  N   1.05626384039156      0.07097591904225      1.50337347777629
  O   2.12559707184555      0.62206266909956      1.77311657409676
  O   0.44021390813732     -0.69636039504203      2.24013899258737
  N   0.95654778560206      1.52109016319725     -0.49975193711428
  H   1.86455677737896      1.32965990820352     -0.90918894018239
  H   1.05869085390543      2.32211908079099      0.11171046676502
  N   -1.02659495902412     -1.58053485065789      0.22996870408808
  O   -2.21617390573757     -1.56425705649596      0.53895690013803
  O   -0.26200987799763     -2.53442321261164      0.27695438626756
  N   -1.07048854927263     -0.07284391606641     -1.56509258088419
  H   -2.03610666208452     -0.35286642773605     -1.65848281460806
  H   -0.85138550197986      0.85525116405771     -1.90202743568724
