14
Coordinates from ORCA-job run
  C   0.58451201444428      0.23489334457936      0.29099117299167
  C   -0.57234559800298     -0.24939317594068     -0.24943698819068
  N   1.81067554045934     -0.00454448901846     -0.49498352758112
  O   2.75167250238429     -0.51056941094836      0.11715896044349
  O   1.82679502173540      0.39817906773369     -1.65149667675863
  N   0.83457350127116      0.90452896728427      1.42132131441109
  H   0.06939513319463      1.12864552310559      2.03282108243323
  H   1.77612011236979      1.11329900314821      1.69669067782133
  N   -1.82398007134891     -0.01283987341104      0.44793285378683
  O   -1.79307580218297      0.57058020374861      1.54284469090050
  O   -2.84343243161125     -0.48008990067897     -0.05914624788609
  N   -0.57691122609657     -0.97203008133567     -1.44421618684183
  H   -0.79305621985815     -0.39434962431192     -2.24739223862977
  H   -1.24994247675807     -1.72430955395464     -1.40108888690001
