14
Coordinates from ORCA-job run
  C   -0.55890379406931     -0.23274430437046      0.34146968630508
  C   0.56245198854908      0.24819463416480     -0.31048750564302
  N   -1.83229210801232     -0.10412115125429     -0.35732731508964
  O   -2.79062322657018     -0.71967956229297      0.11841312736814
  O   -1.90133331614150      0.61788774998572     -1.35812404102801
  N   -0.64517787371796     -0.99367302989006      1.48647924686778
  H   -1.61023129696484     -1.16608919996587      1.73121856674970
  H   -0.04455827899201     -0.70096770948749      2.23858727141009
  N   1.87787933557187      0.04582584856254      0.30810110102517
  O   2.86943020358066      0.24485790513056     -0.39575721179148
  O   1.92512380442811     -0.37001868416556      1.46989179629679
  N   0.66270950326102      1.00769470575953     -1.43667613478284
  H   1.60945696611783      1.07052350301053     -1.77801014879523
  H   -0.12493190704045      1.05230929481303     -2.05677843889255
