14
Coordinates from ORCA-job run
  C   -0.53087600888931     -0.38508349745814      0.22284125100442
  C   0.53028025172252      0.38457234586510     -0.22289116382566
  N   -1.80794897440248     -0.28492856520540     -0.47397490768940
  O   -1.89034044669374      0.40826694702531     -1.49448411798250
  O   -2.75503320694505     -0.90798063129194      0.01487362131045
  N   -0.53896074124760     -1.36048496186205      1.18589755437180
  H   0.15900655148502     -1.25727624285886      1.90289123982973
  H   -1.47123756022925     -1.60265530612955      1.48585819242180
  N   1.80758002228924      0.28495481595801      0.47386125413274
  O   1.89066914918657     -0.40811123600312      1.49433246981986
  O   2.75413345760436      0.90937330844722     -0.01428361274674
  N   0.53867267759108      1.35801452531587     -1.18731150843749
  H   1.47076879512807      1.60578246558917     -1.48292572310235
  H   -0.15771396659943      1.25455603260838     -1.90568454910668
