14
Coordinates from ORCA-job run
  C   0.57506561384317      0.31814659865592      0.21685099088772
  C   -0.57560236150532     -0.31825557460780     -0.21685596141404
  N   1.67812713006660      0.48488046912756     -0.72250917272987
  O   1.52989004750401      0.14143063641879     -1.90092936797194
  O   2.72186639515712      0.96504654095034     -0.27059737832425
  N   0.80873850591449      0.94969589966125      1.41032717097339
  H   1.78832112673936      1.12949000453768      1.57059318056236
  H   0.27266173913770      0.60541061221184      2.18864861446499
  N   -1.67842258898733     -0.48473390483409      0.72257940613745
  O   -1.52991739044185     -0.14030192675059      1.90074524165027
  O   -2.72244662399543     -0.96411686384783      0.27055133447447
  N   -0.80845274129581     -0.95196331242937     -1.40975183404245
  H   -0.27118265250267     -0.60789249110251     -2.18744374195052
  H   -1.78864619963403     -1.12683668799118     -1.57220848271758
