14
Coordinates from ORCA-job run
  C   -0.54495583374775     -0.38810774663334      0.19351134473175
  C   0.57528665847163      0.27227444617130     -0.28145434303680
  N   -1.83299694792597     -0.13158146968462     -0.43885175375424
  O   -1.87907176370434      0.51483554173170     -1.49255528161374
  O   -2.82791744396202     -0.57204964396914      0.14366621203444
  N   -0.63414716556175     -1.33736725860674      1.17715711716745
  H   0.16850967801917     -1.39736749377668      1.78192045768761
  H   -1.54264566589581     -1.37572616516293      1.61379800211194
  N   1.82595547505869      0.15887309318024      0.45981673324397
  O   1.91815618424632     -0.66083096907867      1.38154454743302
  O   2.73467203215931      0.92276863409250      0.12272498328684
  N   0.72145991612348      1.00812131824098     -1.42709911222321
  H   -0.14037460473087      1.29231836072926     -1.86290015106766
  H   1.45806948144994      1.69483935276613     -1.37127875600139
