14
Coordinates from ORCA-job run
  C   0.41976047071780      0.45815869621303      0.31446084367200
  C   -0.40869669434834     -0.36433504075041     -0.42969111470860
  N   1.85024479299315      0.17833248464248      0.33906646494878
  O   2.32333564746223     -0.65737149836515     -0.44063267038753
  O   2.51600452276182      0.79647132298810      1.17431717881015
  N   0.10387311713413      1.58681866931057      1.02392163211034
  H   -0.87758272575458      1.70647818836776      1.21372832382925
  H   0.74435633665571      1.77376549229477      1.78053178097256
  N   -1.85287537625673     -0.19942839177274     -0.31255229586352
  O   -2.54883622319499     -1.08176454487245     -0.82255394650530
  O   -2.30988796694029      0.77818986208275      0.29186137555234
  N   -0.07339829167153     -1.32011182933096     -1.35161957944592
  H   0.88773736393530     -1.61831542447030     -1.32281778335922
  H   -0.77503497349368     -2.03688798633747     -1.45802020962535
