14
Coordinates from ORCA-job run
  C   0.49855404287177      0.38004928380284      0.29212153734352
  C   -0.50305563526061     -0.37957050094291     -0.28632765129679
  N   1.78463391233971      0.46583801670998     -0.38919679851443
  O   1.95870396667972     -0.16381877456530     -1.43954201937750
  O   2.68243750377254      1.07275602988752      0.20219198811132
  N   0.43451855594825      1.20543384958211      1.38573706246289
  H   -0.25164463212420      0.95928092097630      2.07725264751672
  H   1.35026009359875      1.46416125014913      1.72107193314738
  N   -1.81297398107862     -0.42595753048690      0.35960631696238
  O   -1.95987555646615      0.08569920032430      1.47421006104092
  O   -2.71166955908125     -0.99707415202891     -0.26372185820788
  N   -0.43386518337521     -1.22165604615609     -1.36284333307502
  H   0.30371175563313     -1.01763836450425     -2.01640914648352
  H   -1.34073528345781     -1.42750318274784     -1.75515073963001
