14
Coordinates from ORCA-job run
  C   0.49743758028826      0.32545718814737      0.35441230596650
  C   -0.49836961062324     -0.32252788350746     -0.35675164883107
  N   1.86631822669012      0.26103893918975     -0.14330315190038
  O   2.12115997835638     -0.43655694359400     -1.13189078444702
  O   2.70831728844187      0.92848928790563      0.46481721233569
  N   0.41481110508826      0.94770421743175      1.57301682410538
  H   1.21432487720661      1.53167211335699      1.76654561427529
  H   -0.49016513414910      1.32378993975898      1.79962309529645
  N   -1.86643856127674     -0.26321398973513      0.14481924980109
  O   -2.70419342344700     -0.94668530494109     -0.45113259403840
  O   -2.12408985097728      0.44581935815910      1.12432568417643
  N   -0.41777932010182     -0.94556875956432     -1.57474193741112
  H   0.49043728368910     -1.30997795968595     -1.80779915734736
  H   -1.21177043918543     -1.53944020292160     -1.76094071198147
