14
Coordinates from ORCA-job run
  C   -0.55735035145876     -0.33929591158904      0.23240791304973
  C   0.55590408474507      0.34195891829133     -0.23002515025429
  N   -1.79598213495605     -0.25424471021568     -0.53261621331857
  O   -1.85641307304433      0.50232744093434     -1.50856858249214
  O   -2.73078068316327     -0.96548046963182     -0.15259410901133
  N   -0.71941197960377     -1.02145989772067      1.40992962474907
  H   0.12608303482174     -1.39758893425916      1.80443347598934
  H   -1.52918484556989     -1.62311223181949      1.40241910311468
  N   1.79617064830681      0.25194866240252      0.53110580336776
  O   2.73778504654303      0.94767379996752      0.13919604845396
  O   1.85186610538085     -0.49355988936962      1.51599525195581
  N   0.71606111288575      1.02340667992857     -1.40858013776834
  H   -0.12765731439792      1.41103266894618     -1.79543187835851
  H   1.53291034951076      1.61539387413501     -1.40767114947717
