14
Coordinates from ORCA-job run
  C   -0.57051483093003     -0.25238488703970      0.30903776040641
  C   0.53569604649616      0.37742005865081     -0.23543559520538
  N   -1.81672114290678     -0.26342652853698     -0.44768641102470
  O   -1.92334850203214      0.43820024427927     -1.46080414586615
  O   -2.70660427042462     -1.00863468251458     -0.02838882241593
  N   -0.70749433421820     -0.84854137560923      1.53488159296385
  H   0.15896522197958     -1.05488835455827      2.00424607707872
  H   -1.42147728010934     -1.56089151016145      1.55409415758602
  N   1.82482885102509      0.23534255158044      0.43098311980223
  O   1.87888960236110     -0.27851080047514      1.55482907655163
  O   2.81237596845428      0.63077421321585     -0.19460632245455
  N   0.60844399167040      1.20358128298962     -1.32562916298484
  H   1.51889690777290      1.21253654110275     -1.75979573974691
  H   -0.19093622913839      1.17042324707659     -1.93672558469041
