14
Coordinates from ORCA-job run
  C   0.54608018723214      0.37618006974338     -0.21243753217947
  C   -0.51222290924983     -0.46180209775594      0.09494679778765
  N   1.83232906957684      0.15174260036216      0.43675993731345
  O   2.67886987247800      1.03900242285924      0.29844164248201
  O   2.01256587156108     -0.87853191494631      1.09708548100259
  N   0.59932619898585      1.40174078101624     -1.11892999480759
  H   1.29353258171437      2.09803300509760     -0.89364132968165
  H   -0.29651079190124      1.73324417510747     -1.43695798117071
  N   -1.83974876671843     -0.13230995755208     -0.41008670133799
  O   -1.96933045981290      0.76884351078038     -1.24744630075584
  O   -2.78086514492027     -0.77929114879056      0.05764046641760
  N   -0.50338826368709     -1.64527149542544      0.78495638763416
  H   0.32791628413623     -1.81243999760551      1.32774795456189
  H   -1.38755372939475     -1.85913995289065      1.22092117273390
