14
Coordinates from ORCA-job run
  C   -0.53877410003440     -0.30396334182444      0.26998074220242
  C   0.54685520822397      0.33386188928484     -0.27553868077729
  N   -1.82830834620954     -0.15672217266629     -0.38353113946357
  O   -2.77185654585535     -0.80242516151976      0.07616359020717
  O   -1.90102841340730      0.53195013719659     -1.41135149023340
  N   -0.49449616203870     -1.17776734225558      1.34997486208592
  H   -1.35353757767957     -1.70943391681951      1.39585953714998
  H   -0.29552342805826     -0.73080880947930      2.23332668748952
  N   1.85043755293101      0.13503643483759      0.38966097801116
  O   2.83880653341763      0.15292223952463     -0.34626468708369
  O   1.87127778859712     -0.04096295260558      1.60415235802613
  N   0.64303411405162      1.22872511524247     -1.29109835350698
  H   1.57053386061910      1.29620751969762     -1.68328401945450
  H   -0.13742048455734      1.24338036138673     -1.92805038465287
