14
Coordinates from ORCA-job run
  C   -0.63970840910656     -0.12165106772372     -0.18257527859752
  C   0.61690663248847      0.22995632292989      0.15859265965574
  N   -1.11995745404308     -1.50179621032896     -0.04003160819998
  O   -0.44576529230582     -2.41106641655026     -0.50972797936801
  O   -2.21486192145281     -1.61223093012519      0.51031985768630
  N   -1.62141402903398      0.69138486277627     -0.73478558914521
  H   -2.48103532271720      0.70975840291759     -0.20380267970789
  H   -1.30696110374266      1.60758708761590     -1.01048404383137
  N   1.61627958916074     -0.77029111918782      0.55348872910871
  O   1.31543574090017     -1.59890564229696      1.40505076775144
  O   2.71334100376780     -0.64568010052718      0.01051828708984
  N   1.14052993225281      1.51450177543435      0.23651252104491
  H   0.46311026557923      2.25344389782602      0.13916318509579
  H   1.96410036825290      1.65398913724007     -0.33223882858275
