14
Coordinates from ORCA-job run
  C   -0.64410326771101     -0.11550044235119      0.03546215411883
  C   0.65306148749037      0.28663254559745      0.03651319025096
  N   -1.02293358784834     -1.48131155302078      0.34598727688846
  O   -0.35724138007355     -2.11921296895204      1.16289761430509
  O   -2.03182239964904     -1.89426966132087     -0.23305622959466
  N   -1.63185139519325      0.78028029017724     -0.41399088537054
  H   -1.95044534956950      0.52253018099145     -1.34346794190396
  H   -2.43344592583085      0.73832314015923      0.20577997504417
  N   1.79511878376472     -0.58191280073585      0.26353442718073
  O   1.87608380736911     -1.60226105140139     -0.41633072358526
  O   2.62084421511391     -0.19655709594949      1.09312795946661
  N   0.98571563072190      1.58536536619053     -0.13551409775179
  H   1.93013282539643      1.87906196585520     -0.29023216081875
  H   0.20888655601909      2.19983208476052     -0.31171055822990
