14
Coordinates from ORCA-job run
  C   0.61905925806436      0.26703331608995     -0.03259220879636
  C   -0.65815580736049     -0.16105978585414      0.03445547349958
  N   1.74117664658215     -0.67030760228568     -0.16567628023512
  O   1.82585838284944     -1.60299811285456      0.62459035512178
  O   2.54455905044967     -0.38901036542643     -1.05405031021990
  N   1.07519668078927      1.57632176411563      0.05160341440659
  H   1.63434063238407      1.86436873614025     -0.73945591770074
  H   0.37393170757441      2.25271141226315      0.30692535577900
  N   -0.98607931820724     -1.58831295026973      0.12825583801336
  O   -0.45610540595703     -2.36741062300601     -0.65572699026589
  O   -1.82581551405142     -1.86981137265909      0.98233224835615
  N   -1.80970742869517      0.61495668690513     -0.01417837304257
  H   -1.65687636442479      1.58247678683570     -0.24857065817239
  H   -2.41938251999723      0.49104211000582      0.78208805325650
