14
Coordinates from ORCA-job run
  C   -0.56222276379290     -0.10471196566371      0.33184456036095
  C   0.58920722955796      0.25922996431440     -0.28076455444993
  N   -1.18741583921133     -1.40078633099486      0.08998972407852
  O   -0.84616536027656     -2.04074052385968     -0.90251547608110
  O   -2.05280079163355     -1.73936737084437      0.90007296401805
  N   -1.15815789836023      0.79739127502958      1.22580688377164
  H   -1.00702246602031      0.51387193099330      2.18782991350521
  H   -2.15819046540574      0.84927757357309      1.07427280805596
  N   1.37686927584742     -0.63361471678948     -1.14335324864456
  O   1.88415427304464     -1.61784063061152     -0.62335806512116
  O   1.51412170986096     -0.25100589818055     -2.30335880979594
  N   1.22357424517283      1.44812295916801     -0.07385465204990
  H   1.75354640902670      1.78932013951725     -0.86263437570724
  H   0.62950244219012      2.12985359434854      0.37902232805950
