14
Coordinates from ORCA-job run
  C   0.54646200418682      0.30691845762100     -0.29400829592494
  C   -0.54635156908758     -0.30719262508017      0.29399637165788
  N   1.88227873882098     -0.05129893312896      0.16828052869175
  O   2.83159088203036      0.44056638563247     -0.44899845770982
  O   2.00717573604777     -0.81776977720462      1.13034490815306
  N   0.56835027691408      1.33227882664423     -1.20328489761687
  H   1.46834410858429      1.44055370229525     -1.64602446916685
  H   -0.24223102192098      1.39450296322495     -1.79568256793875
  N   -1.88215615351017      0.05111447290391     -0.16825639888134
  O   -2.83142665146995     -0.43982250409770      0.44979138332188
  O   -2.00697954608709      0.81679793584169     -1.13094960409731
  N   -0.56837415273471     -1.33248488098834      1.20322355346413
  H   -1.46776358640311     -1.44017365405788      1.64727469151893
  H   0.24308093462929     -1.39599036960582      1.79429325452825
