14
Coordinates from ORCA-job run
  C   0.56023672117069      0.28514557917163     -0.29039607586077
  C   -0.56037493510014     -0.28376343738793      0.29131416856688
  N   1.86790763901040      0.00258752370429      0.28825937520028
  O   2.82975221142558      0.60481215347459     -0.19806313614322
  O   1.95824962393805     -0.80362985187451      1.22135461469787
  N   0.64925281123176      1.01181615907098     -1.44911892338445
  H   -0.18314205582008      1.51705644313113     -1.70125574017680
  H   1.52695911973215      1.50156612832340     -1.53515208942044
  N   -1.86807304486953     -0.00321481486896     -0.28910182438010
  O   -2.82810101671534     -0.61502763290249      0.18861320446157
  O   -1.95949641621741      0.80930689627804     -1.21649372704692
  N   -0.65072648490895     -1.00977645755232      1.45000425112424
  H   -1.52692502624629     -1.50278769164986      1.53356212442750
  H   0.18248085336912     -1.51209099691797      1.70547377793437
