14
Coordinates from ORCA-job run
  C   0.55190331669597      0.30950836618676     -0.28082053819954
  C   -0.55201477980912     -0.30917031039972      0.28113379319127
  N   1.81994212208328      0.26403392581610      0.43769783125925
  O   2.80235526865420      0.73462541667769     -0.14335227600349
  O   1.86047272673721     -0.23691198197691      1.56734737465949
  N   0.61776915509425      1.09350916307501     -1.40293471289919
  H   1.56288357223887      1.22965177938463     -1.72825483701368
  H   -0.08290004476415      0.90275167181528     -2.09894892807505
  N   -1.81974899585597     -0.26439762654906     -0.43794591672598
  O   -1.86059492627409      0.23765556936268     -1.56710966472258
  O   -2.80184053660193     -0.73673315670568      0.14224720527914
  N   -0.61792679135251     -1.09324834245505      1.40332197647784
  H   0.08096406107936     -0.90061678516906      2.10063816359180
  H   -1.56326414792537     -1.22965768906267      1.72798052918070
