14
Coordinates from ORCA-job run
  C   -0.54370944809168     -0.30919965727512      0.29642093707219
  C   0.54410552855772      0.30887432619288     -0.29671569170821
  N   -1.87787774711895     -0.01670010543215     -0.21419412184517
  O   -2.81028086007093     -0.66396476891711      0.27148969431400
  O   -2.01731161608844      0.84019657126448     -1.09454049482696
  N   -0.57676526481923     -1.10016037248603      1.41520422232787
  H   0.27263514527905     -1.60333845658969      1.60790533351947
  H   -1.44209753295979     -1.61075328968741      1.50565649271169
  N   1.87822945746793      0.01711150118275      0.21439864385692
  O   2.81037263206262      0.66584333188299     -0.26981077966813
  O   2.01767105962947     -0.84066694906649      1.09387078055722
  N   0.57717515685708      1.09974194438992     -1.41548306299844
  H   -0.27313878808299      1.60082174289274     -1.60953774821413
  H   1.44199227737814      1.61119418164824     -1.50566420509830
