14
Coordinates from ORCA-job run
  C   0.51197366817963      0.39722263995757     -0.22153747119086
  C   -0.53701854405346     -0.34290421934509      0.30654935604195
  N   1.86501208475970      0.12641155219200      0.24953459149893
  O   2.77646760459406      0.72136592357176     -0.33135273495946
  O   2.02012834924305     -0.61269077322126      1.22693217755920
  N   0.46790735937076      1.43467579164069     -1.09931088430176
  H   -0.40741303620426      1.78329621506446     -1.44151254561973
  H   1.34618217573278      1.84164011910206     -1.36907314999159
  N   -1.85785084181983     -0.15721624636658     -0.26477248444429
  O   -2.04235667239951      0.77095884786545     -1.06408092775060
  O   -2.72183020553132     -0.98594794232896      0.04043567414676
  N   -0.50528100706507     -1.31756651902037      1.26854773895050
  H   -1.30598520429937     -1.92902837898220      1.23536620242846
  H   0.39106426949283     -1.72821701012955      1.46527445763251
