14
Coordinates from ORCA-job run
  C   0.59587279342889      0.26426074311830     -0.10955787873121
  C   -0.65081302872520     -0.15125222829268      0.21714854681339
  N   1.46111775757683     -0.51271108211750     -0.99054460605646
  O   1.18851375033570     -1.69507678256036     -1.18759164187678
  O   2.43764146711636      0.08484651836513     -1.44811926354808
  N   1.05028426510710      1.48579133357848      0.41020249810763
  H   1.99985487888039      1.40189574588512      0.75249029618824
  H   1.04220403810752      2.21123339771925     -0.29864244458125
  N   -1.29119518964736     -1.34664536911419     -0.35052959002557
  O   -1.58494250419248     -2.21822317996960      0.46492224221121
  O   -1.54463672670338     -1.33606584640284     -1.54730841947467
  N   -1.50829753628331      0.54961588594473      1.01235638386163
  H   -1.04104946471822      1.27900685419054      1.53449323143863
  H   -2.15455450028283     -0.01767599034438      1.54168064567330
