14
Coordinates from ORCA-job run
  C   -0.52217591733587     -0.41752765797341      0.16750679079857
  C   0.52379119429572      0.41732110757612     -0.18349663334154
  N   -1.88474289954350     -0.03134402017018     -0.19372916571170
  O   -2.77230072077117     -0.84968808019988      0.06130990906920
  O   -2.09043561224711      1.08041503844271     -0.69127288257134
  N   -0.49314511796610     -1.54850801262329      0.93840505751769
  H   0.38117558047297     -2.04616699148649      0.93322838962755
  H   -1.33756791868903     -2.09579444115638      0.87223884155839
  N   1.87565187629208      0.02724136807142      0.19141896219555
  O   2.06374406948784     -1.07583447311187      0.71758964903713
  O   2.76806098202732      0.85357878636303     -0.01983767675497
  N   0.50292083076541      1.54074211120325     -0.97667253321258
  H   -0.36015426183588      2.05746485428324     -0.94268460077383
  H   1.34517791504733      2.08910041078173     -0.87300410743813
