14
Coordinates from ORCA-job run
  C   0.53976372293148      0.34234523288177     -0.26493048593961
  C   -0.53767609203882     -0.34993941193417      0.26041111455497
  N   1.83110082554395      0.23987709808118      0.40528434242876
  O   1.91582153855244     -0.38395879469072      1.46935389896530
  O   2.78400941750924      0.80184759269034     -0.14243978021201
  N   0.56001229886525      1.24532446177488     -1.29623475231893
  H   1.49206866027691      1.42814481993253     -1.63609474433033
  H   -0.15955935320956      1.11693555376974     -1.98720933470103
  N   -1.83141465464557     -0.23933935779854     -0.40416910974432
  O   -1.91539853331968      0.38028883941760     -1.47065293463946
  O   -2.79151081585385     -0.76920785889756      0.16265130563564
  N   -0.55912451509271     -1.25283116062867      1.29136576721169
  H   -1.49190610073829     -1.42701661515791      1.63423318563819
  H   0.16481360121920     -1.13247039944044      1.97943152745113
