14
Coordinates from ORCA-job run
  C   0.52708131474398      0.39155094673404     -0.21925461689955
  C   -0.52704541699253     -0.39146842187093      0.21997123101740
  N   1.83170722051285      0.22486632189748      0.41037349400996
  O   2.71758128549387      1.01170836529147      0.06358009534022
  O   1.99214310211794     -0.66950392777467      1.24879609335204
  N   0.56898525209099      1.25632493905089     -1.28170706932779
  H   1.36692262705233      1.87276884522255     -1.25059889500730
  H   -0.31517668003876      1.66466329342447     -1.53353169697631
  N   -1.83122307759187     -0.22494643312516     -0.41002900792546
  O   -2.71744789609412     -1.01156056190746     -0.06338614031857
  O   -1.99142827038239      0.66881816101684     -1.24925804643946
  N   -0.56889440422196     -1.25617509088434      1.28278384365693
  H   -1.36715860578147     -1.87226848319159      1.25111616096609
  H   0.31495354909115     -1.66677795388360      1.53214455455180
