14
Coordinates from ORCA-job run
  C   0.53150905677491      0.40016625359113     -0.19090270148128
  C   -0.53169045768402     -0.40027911325588      0.19120803406440
  N   1.86786545461531      0.06012257867951      0.28312994505748
  O   2.77166797063725      0.85454835865039      0.00698416526502
  O   2.03653274555891     -0.97952032042345      0.93077330058492
  N   0.54458750197002      1.44355880528562     -1.07929867697628
  H   -0.32842554238905      1.93361555626666     -1.17629678091521
  H   1.38049659865865      2.00395360425528     -1.00991981697789
  N   -1.86802284057884     -0.06023260594324     -0.28317487542143
  O   -2.77158242788521     -0.85526294246783     -0.00800923322161
  O   -2.03662148814997      0.97952939260808     -0.93058168261172
  N   -0.54504333097583     -1.44303466399497      1.08048694375367
  H   -1.38045394063895     -2.00412781323522      1.01015915333540
  H   0.32818070008682     -1.93303709001609      1.17644222554454
