14
Coordinates from ORCA-job run
  C   -0.51544043810795     -0.44163395046049      0.15490039560768
  C   0.54051928243712      0.34940728582830     -0.26503485370650
  N   -1.86098833379461     -0.12235772065225     -0.30783583725410
  O   -2.78788939164784     -0.71992811230961      0.24604452486334
  O   -2.01732248826184      0.72382166054515     -1.19640906403742
  N   -0.49208558363658     -1.57184259580421      0.92815380274206
  H   -1.35703404423443     -1.73798548934381      1.41972787163009
  H   0.36299784748431     -1.71932974147545      1.43852648905839
  N   1.85442964049778      0.14257940123750      0.33173239538515
  O   2.04931877422046     -0.84084673268460      1.05639340305994
  O   2.71028970493243      0.99677490456291      0.08441667330025
  N   0.56508140631261      1.30610798238750     -1.24536654725210
  H   -0.33991839864256      1.63801632694824     -1.53579708001809
  H   1.28604202244110      1.99821678122084     -1.10845217337871
