14
Coordinates from ORCA-job run
  C   -0.52707904977014     -0.36505867875203      0.27225654301868
  C   0.55404597286719      0.23672644428899     -0.34877745323735
  N   -1.85431276626571     -0.19470278346925     -0.30645785157749
  O   -2.80654808398076     -0.56170888970788      0.38767149295145
  O   -1.97214340139306      0.31347053685234     -1.42798551357584
  N   -0.54563685692383     -1.18334560149483      1.37055566255546
  H   0.29537011448717     -1.16915517102172      1.92380854278237
  H   -1.42360066636258     -1.16555639824493      1.86690297334158
  N   1.84760787981997      0.22440569106046      0.32388866584217
  O   2.72171239346929      0.95249855451913     -0.15437818483237
  O   2.00743996780008     -0.47866208693499      1.32900669095166
  N   0.62222060464004      0.82437514104122     -1.58447952603545
  H   -0.26899021433110      1.04825278288107     -1.99598824949466
  H   1.34891410594344      1.52046045898241     -1.65502379269020
