14
Coordinates from ORCA-job run
  C   -0.55538779342735     -0.30212109097181      0.28208173957645
  C   0.55535332769360      0.30223113306092     -0.28206010174570
  N   -1.87321284836645      0.01586523906603     -0.25448682109895
  O   -1.98004222575727      0.88194616484852     -1.13043819855725
  O   -2.82599797430661     -0.62036980450933      0.20551287157555
  N   -0.62505707395401     -1.09976836850546      1.39445784586332
  H   0.21225557321000     -1.61793449452253      1.60031940768525
  H   -1.49967683678270     -1.59775207303351      1.46313242622000
  N   1.87321621794521     -0.01647659340788      0.25396528539799
  O   1.97999579708549     -0.88325359921309      1.12923673428080
  O   2.82605221439526      0.61989832524049     -0.20573801302655
  N   0.62496375913256      1.10047817349738     -1.39400946360161
  H   1.49975145607224      1.59816554064072     -1.46269169164982
  H   -0.21221359293997      1.61909144780956     -1.59928202091948
