14
Coordinates from ORCA-job run
  C   0.65336295643733      0.25614642461898      0.03441355315720
  C   -0.65387510938516     -0.09053752353096     -0.03226168227285
  N   1.75539532197239     -0.71378576930003      0.11451197093437
  O   2.54925776202099     -0.68070461462729     -0.82316181736766
  O   1.83056870474989     -1.39860747525656      1.12546864279453
  N   1.10112407383732      1.53787417189095      0.15878796034698
  H   2.00419979659968      1.71334861714487     -0.25749740647008
  H   0.38402092833026      2.21878220112030     -0.05357317236544
  N   -1.07787513816694     -1.48288746456804     -0.13376486711079
  O   -0.24904557993616     -2.32522864320785     -0.47223482757190
  O   -2.26863008244413     -1.70059061434475      0.09993949422066
  N   -1.61790459562455      0.92822761589625      0.01212020978112
  H   -2.33271797924658      0.77906729763263     -0.68984173282875
  H   -2.07688105914434      0.95889577653150      0.91609367475260
