14
Coordinates from ORCA-job run
  C   -0.59180419079004     -0.10305294388316      0.27612112888183
  C   0.61410522303271      0.25785785361895     -0.22321758187274
  N   -1.13399226213745     -1.44414368727896      0.08687170962212
  O   -2.33585997130413     -1.57692663376211      0.32731449200447
  O   -0.36951791181851     -2.34280876807980     -0.25825844457233
  N   -1.33667448844125      0.85485968906094      0.98077353366042
  H   -1.72166714231511      0.45963146984541      1.83021668558389
  H   -2.11143639713865      1.19866921475870      0.42371276355325
  N   1.44134202425887     -0.60801210576943     -1.07586589175405
  O   2.53890044964936     -0.90486350191267     -0.60900260787478
  O   1.00882262462671     -0.88474209441399     -2.18620944572327
  N   1.15196610964573      1.50448993599480     -0.10022358928409
  H   2.16105909793648      1.53143420580262     -0.07639837562432
  H   0.68475683479529      2.05860736601871      0.60516562339961
