14
Coordinates from ORCA-job run
  C   -0.50557771141193     -0.45621541831449      0.14521500844430
  C   0.53795812960605      0.36148986961870     -0.25342347191427
  N   -1.84359243019905     -0.19017938503972     -0.36932925090420
  O   -1.99551170337913      0.62801715399525     -1.28448413105939
  O   -2.77016028972518     -0.80169088861040      0.16965697925276
  N   -0.47254146254655     -1.57113868666000      0.94089413588771
  H   -1.34755396166867     -1.75218432817401      1.40913411609070
  H   0.36790259680009     -1.67668534989366      1.48517119848877
  N   1.83602394613798      0.21195115910740      0.39399663114032
  O   2.03769356236618     -0.74963819633333      1.14541763065383
  O   2.67011332240857      1.09086875461243      0.16002242799086
  N   0.56653930927119      1.29840103762862     -1.25229274618142
  H   1.25530018749798      2.02016192164284     -1.10336927951311
  H   -0.33759349515752      1.58884235642036     -1.58660924837686
