14
Coordinates from ORCA-job run
  C   0.55461198583106      0.23716625370083     -0.34032885466017
  C   -0.55444479957761     -0.23655643836003      0.33974765210261
  N   1.87988151085971     -0.12698889688927      0.14587803993637
  O   1.98478281151407     -0.92136213608679      1.08750761876344
  O   2.84139235593419      0.39876586884524     -0.42277007388286
  N   0.60571749733238      0.92968512371334     -1.52246817575913
  H   -0.20706067185640      1.48739094134596     -1.72345940231426
  H   1.50473564145304      1.35871944767546     -1.68225194141759
  N   -1.88041463826976      0.12729495304815     -0.14596272449284
  O   -2.84153637920047     -0.39909055185635      0.42257654066439
  O   -1.98564205541706      0.92271261506621     -1.08656855876648
  N   -0.60513227396089     -0.93176149846739      1.51938226615467
  H   -1.50544777352555     -1.35586399661775      1.68409395386166
  H   0.20755678888330     -1.48811168511762      1.72362365981020
