16
Coordinates from ORCA-job run
  C   0.59805529919078     -0.42836926130431      0.11001791744215
  C   -0.49031779422179      0.68768795320228      0.16915062318699
  Cl  0.23315193463786     -1.70681332645217      1.31258234375312
  H   -0.18979491911435      1.45663976378834     -0.54566028762478
  C   0.75726067021534     -1.06567167827969     -1.26455666851627
  H   -0.13991207350009     -1.62506025208340     -1.52713008936117
  H   0.92305860294713     -0.29282260112682     -2.01814375234328
  H   1.60731006743486     -1.74839877094576     -1.25502434107080
  C   1.84069466121085      0.22876590749041      0.51882128566996
  N   2.81868229665032      0.80697998657325      0.81984269380307
  N   -0.76901132276111      1.27847896528920      1.42892197188754
  H   -0.92945572427572      0.58459394511604      2.14679096017381
  H   -0.03742221379958      1.91802796277574      1.70659790759674
  N   -1.76717772004968      0.11577168427757     -0.39244374539461
  O   -1.91872613453099      0.20451493596791     -1.60958375038546
  O   -2.53539563003382     -0.41532521428859      0.40081693118299
