16
Coordinates from ORCA-job run
  C   0.84352565300478     -0.12915133642970     -0.11198103949348
  C   -0.43723854682367      0.48486877783770      0.46858848690008
  Cl  2.26227862491901      0.64605927329950      0.66405661329735
  H   -0.31650114896324      0.54552588138529      1.55982630808143
  C   0.88740194926227     -1.61978651806930      0.22547384429942
  H   0.09213175845817     -2.14394085764744     -0.30540875542251
  H   1.84721813231202     -2.03223764280210     -0.08536950893954
  H   0.78410389627322     -1.76154123906211      1.30426117140091
  C   0.91507722718050      0.03658744955936     -1.56249758780452
  N   0.97529376435237      0.07344027384684     -2.73487111013656
  N   -1.59673041450216     -0.24054789409421      0.00997696593819
  H   -2.41249668603767      0.35261409631182      0.11411194594662
  H   -1.74146595530229     -1.05902756414450      0.58770078819859
  N   -0.64013630718956      1.92786119763451      0.04321219268142
  O   -1.70247925113274      2.42310886443718      0.41105862532520
  O   0.24001730418901      2.49616723793719     -0.58813894027259
