16
Coordinates from ORCA-job run
  C   0.82216534422715     -0.22241824711644      0.13490578490904
  C   -0.40699644100934      0.63704473414320      0.49625872394209
  Cl  1.62780663104590     -0.57317785203241      1.71567956988697
  H   -0.06525133489883      1.48792641516882      1.09498442058147
  C   0.52824012144005     -1.54676725359525     -0.55604269825997
  H   1.46127107592088     -2.09894876571899     -0.67464973483499
  H   -0.16670267326943     -2.13256639575657      0.04308610773330
  H   0.08215734530444     -1.36145676134157     -1.53073250343938
  C   1.74683704686028      0.59127632210222     -0.65344084934008
  N   2.47369138208559      1.24313550116175     -1.30752036676174
  N   -1.45330597373166     -0.16049143995262      1.06995181469642
  H   -2.18248187024194      0.44235568718135      1.43457529108003
  H   -1.08298031812218     -0.69917327539568      1.84440398735840
  N   -0.97687348320303      1.29610640148830     -0.74440351085050
  O   -1.21102014153645      2.49870639694628     -0.64122039220281
  O   -1.19555671087144      0.59744853271762     -1.72683564449826
