16
Coordinates from ORCA-job run
  C   0.66604351387272     -0.41046156662666      0.13791734027667
  C   -0.36898505745779      0.73339957575562      0.07363484264269
  Cl  0.43076193827716     -1.35070713336948      1.65052492799323
  H   -0.17816526394684      1.29810237699293     -0.84198079143481
  C   0.61318064640032     -1.36965159392065     -1.04588668916198
  H   1.44168230894563     -2.07422643184366     -0.97095852674910
  H   0.69808111445823     -0.81246515997653     -1.98107986679660
  H   -0.32305198783148     -1.92544050045590     -1.04997970892045
  C   1.98265539755165      0.22724187987986      0.20017818356757
  N   3.05259761872881      0.71188715539512      0.18218843744975
  N   -0.30067147419425      1.56926080002604      1.20585289036994
  H   -0.84469785578065      2.41226377456909      1.08275118347019
  H   -0.60735803651266      1.08639858283460      2.04046805524057
  N   -1.75362359813237      0.11516229305194     -0.16736304740982
  O   -2.04433495968994     -0.13921808181148     -1.33424425178616
  O   -2.46311430468854     -0.07154597050084      0.81597702124830
