16
Coordinates from ORCA-job run
  C   0.66918436655064     -0.41580243469606      0.10094234083033
  C   -0.39009789720934      0.70486874374299      0.17502747871659
  Cl  0.39063238881896     -1.59565763987296      1.42722977776285
  H   -0.17322747544774      1.41579340720410     -0.62578114539608
  C   0.69284875184629     -1.16893702403060     -1.22447677374646
  H   -0.22737129096326     -1.73432764620449     -1.36253181560729
  H   0.80328406258242     -0.46477407221936     -2.05158611537280
  H   1.53562804569816     -1.86044773279515     -1.22617818064940
  C   1.96539340074272      0.22597271721350      0.32914088666097
  N   3.02251442430736      0.72619052361946      0.44031627614128
  N   -0.39361081498115      1.34431189100750      1.43030168185686
  H   -0.94981874648575      2.18800384731363      1.42009074678248
  H   -0.72510834420008      0.72658998860820      2.15980403137475
  N   -1.74664915047614      0.11039192574383     -0.23057177300593
  O   -1.97857658548626      0.04743950611656     -1.43607813901149
  O   -2.49402513529682     -0.24961600075115      0.67335072266334
