16
Coordinates from ORCA-job run
  C   0.41857792679360     -0.60370534387023      0.11964945232883
  C   -0.33492001582936      0.75719327298083      0.23616690567055
  Cl  -0.57430944748690     -1.91835237897685      0.82581840941011
  H   0.33548785654835      1.52197489034789     -0.16152764347028
  C   0.80322078587610     -0.97771231004686     -1.30633318353999
  H   1.35921466344503     -0.16019165751513     -1.77024545068594
  H   1.42330705462465     -1.87441937016086     -1.29500045212996
  H   -0.08973275444754     -1.17515792455996     -1.89846657714726
  C   1.61397986228675     -0.44965707985707      0.95044821320233
  N   2.57574285752974     -0.26755311082377      1.60103698421341
  N   -0.81041664127442      1.14691923916693      1.51512803567986
  H   -1.33498007931103      0.40960451674855      1.96644961580276
  H   -0.05633580167775      1.46441262323776      2.10828133506379
  N   -1.49659842155634      0.72440846345990     -0.72444432730513
  O   -1.26689947277936      1.09154864899319     -1.87533591330094
  O   -2.56533837274150      0.30968752087569     -0.29162540379216
