16
Coordinates from ORCA-job run
  C   0.38026219832592     -0.63909692358126      0.00295733902574
  C   -0.33093983556987      0.69561141949333      0.38557459818185
  Cl  -0.73281301268259     -2.02184169624833      0.25365464722177
  H   0.40669822043727      1.49101275507798      0.25987323449241
  C   0.90584981903444     -0.67329941950000     -1.42654876678828
  H   1.54238854435389      0.19461222386335     -1.61197413828447
  H   0.07727207715690     -0.65829263513926     -2.13372446504534
  H   1.48437651381322     -1.58444080837674     -1.58153124737197
  C   1.48124843435496     -0.77214744768832      0.95857831893278
  N   2.37126750911536     -0.81967225511121      1.72476179598103
  N   -0.92799625608605      0.78638786574292      1.66957948867199
  H   -0.23202184201193      0.90255564602330      2.39303862821843
  H   -1.52311864192794     -0.00635194554655      1.86919800793104
  N   -1.38133252576467      0.97374808487292     -0.65976201444851
  O   -2.50545411301517      0.53336135542627     -0.45014596636654
  O   -1.01368708953374      1.59785378069160     -1.65352946035192
