16
Coordinates from ORCA-job run
  C   0.84454398210444     -0.17063241126343      0.16219900260320
  C   -0.46041662115166      0.58190103945608      0.48299064189353
  Cl  1.52920794083344     -0.61383007443224      1.78024714585341
  H   -0.20993894824948      1.46398157430693      1.08962061610910
  C   0.66146717063113     -1.44588282380919     -0.64680236710028
  H   0.30783265267792     -1.19819610674090     -1.64650119600842
  H   1.61724895014334     -1.96527223206474     -0.72280131905815
  H   -0.06572219987033     -2.08749616798251     -0.15242951431914
  C   1.81133449944854      0.73856707201570     -0.45197593890301
  N   2.61249219968395      1.45884860745610     -0.92075565372725
  N   -1.45412421039583     -0.29592938676444      1.04318995582413
  H   -2.29245195903725      0.24052661806617      1.23311013584011
  H   -1.11354199938360     -0.67753306527887      1.91687110519060
  N   -1.09577627794842      1.16969975529952     -0.76189431928162
  O   -0.54080346474927      1.03917589819914     -1.84719848853995
  O   -2.15035171473693      1.76207170353666     -0.55686980637626
