16
Coordinates from ORCA-job run
  C   0.54835042042074     -0.48050903296156      0.14774833048166
  C   -0.38269121775574      0.76879505376405      0.06663102699537
  Cl  0.14740908404694     -1.45209012544716      1.59978954431004
  H   -0.06063859152738      1.34335624782540     -0.80441913114470
  C   0.49237835218140     -1.37533995689332     -1.08394961013589
  H   -0.48884647631535     -1.84129289886547     -1.16743554176314
  H   0.67934936504954     -0.78525495898764     -1.98376866285976
  H   1.24765764789608     -2.15750584824565     -1.00230110062400
  C   1.89659597517099      0.06013673963090      0.32939214204668
  N   2.96334009154594      0.54085727510811      0.44044240142668
  N   -0.46135484140705      1.61434652445374      1.20344596102675
  H   -0.63656987695180      1.09413763069169      2.05266014128118
  H   0.36756688625744      2.18471629788888      1.29759497919751
  N   -1.76933046077355      0.28795627210339     -0.27817493152831
  O   -2.51622339501759      0.02577603297344      0.65723515196717
  O   -2.02699296282062      0.17091474696120     -1.47489070067724
