16
Coordinates from ORCA-job run
  C   0.59629385158282     -0.42772532979867      0.12155079835735
  C   -0.49728930461243      0.68427731781111      0.16387370003297
  Cl  0.20299187911136     -1.72139647593738      1.29821375654168
  H   -0.17906809357608      1.46320313422515     -0.53221815718359
  C   0.79543966090725     -1.04780865183023     -1.25569053582207
  H   -0.09242231417429     -1.60656130215632     -1.54963223310165
  H   0.97951903977170     -0.26550372804888     -1.99521881323923
  H   1.64703584275725     -1.72828186525970     -1.23080914155373
  C   1.82484474245903      0.22870894462607      0.57203294894642
  N   2.79248959452462      0.80590415434208      0.90654735049018
  N   -0.81361643191162      1.25837448789634      1.42236200617634
  H   -0.09317681836707      1.89788696794532      1.72778013526816
  H   -0.99026077128908      0.55536583824431      2.12734844320664
  N   -1.75568982898634      0.11528860636740     -0.44073144122247
  O   -1.87321135599647      0.21864657858644     -1.66045576057638
  O   -2.54387969220065     -0.42837867701304      0.32404694367940
