16
Coordinates from ORCA-job run
  C   0.79447021262448     -0.19012977088081     -0.09576900350400
  C   -0.49989905436460      0.38129472149446      0.51136132203920
  Cl  2.19749818164133      0.70758431022333      0.56161923330231
  H   -0.49146615285103      0.19726164975856      1.58662824563089
  C   0.92850738143526     -1.66264004181120      0.28195788594130
  H   0.07059434148748     -2.21444687332168     -0.10105212186845
  H   1.84856823282607     -2.06828552989140     -0.13953961371557
  H   0.96852104116569     -1.75501839539967      1.36906493114206
  C   0.78835244555475     -0.05265050638844     -1.55263970286222
  N   0.76453065331059     -0.02332076227813     -2.72712763027578
  N   -1.63002355221657     -0.21426976880579     -0.10994554372199
  H   -2.47981126055743     -0.02381129102662      0.40505894354478
  H   -1.73231647750837      0.11518291960304     -1.06383893394692
  N   -0.49797799189210      1.90141759291245      0.39091909770535
  O   -0.63553812652128      2.35174840547615     -0.74383315133714
  O   -0.39400987413427      2.54908334033575      1.42813604192618
