16
Coordinates from ORCA-job run
  C   0.84032878206461     -0.21193180860065      0.12998624251534
  C   -0.41854115320194      0.58640201522090      0.51704647091630
  Cl  1.55438831775597     -0.73766563618030      1.71065908074013
  H   -0.11005314100821      1.43482138802408      1.14455192757854
  C   0.57507394234709     -1.45086151515073     -0.71191378331682
  H   -0.16111952937091     -2.07784433637724     -0.21214819241764
  H   1.50481440961207     -2.00635086036501     -0.83880713459849
  H   0.19767158645020     -1.15595021042413     -1.68986050683035
  C   1.82841304937784      0.67169316745886     -0.48734276642961
  N   2.64479445597502      1.35954086397265     -0.97804727462080
  N   -1.43349187456347     -0.26545308403795      1.07954748779513
  H   -1.08310923230609     -0.69254223581659      1.92795649397403
  H   -2.23956852418927      0.30120923125250      1.31575004237950
  N   -1.06487693921633      1.24442285502457     -0.68630790809138
  O   -0.55385999514538      1.12219710582962     -1.79387036216243
  O   -2.08186415458120      1.87931306016942     -0.42619981743145
