16
Coordinates from ORCA-job run
  C   0.81822278896190     -0.14557297876898     -0.07266692205331
  C   -0.49505488456411      0.45529393867484      0.45928782832573
  Cl  2.18473088258228      0.69992160430295      0.72351105805253
  H   -0.46933648736240      0.41159785275425      1.55275517650545
  C   0.87865843707764     -1.62748741481950      0.28578977886746
  H   0.75213963592621     -1.75465549806292      1.36366141170758
  H   1.84822974328979     -2.03461184909024     -0.00141928889643
  H   0.10014497430563     -2.16787396155422     -0.25495431885292
  C   0.94242184649023      0.01540046008919     -1.52041820606160
  N   1.09997601197421      0.06563222628727     -2.68342106718845
  N   -1.61102258830008     -0.19692558694905     -0.18312608077520
  H   -1.89755607401390     -1.00384225261345      0.35589214992210
  H   -2.40382490731886      0.42490479441124     -0.27590069184902
  N   -0.56257559055290      1.92633796334725      0.15548379951283
  O   -0.43469277955685      2.68967301844383      1.10956884444569
  O   -0.75146100893880      2.24420768354756     -1.01504347166244
