16
Coordinates from ORCA-job run
  C   0.81796394244408     -0.18030374416332      0.15639547054773
  C   -0.40448792088081      0.69817732275400      0.57386705011283
  Cl  1.60993226563766     -0.64796179914851      1.70520527074705
  H   -0.02622656123615      1.54083735336169      1.15279954499861
  C   0.45535489042506     -1.44578700070685     -0.60620477213038
  H   -0.02247165217427     -1.19449713636691     -1.55358142701409
  H   1.35966438281196     -2.02256602291062     -0.80162274702219
  H   -0.22030214138092     -2.06000410734754     -0.01033065490605
  C   1.77404999888681      0.62227254258703     -0.60321935646644
  N   2.53309243099782      1.25366043924593     -1.24122043761153
  N   -1.47090745446431      0.06402300473017      1.27136628280957
  H   -1.18376372681831     -0.23160258399195      2.19375611123665
  H   -1.86237952926760     -0.70813751109839      0.74967081058347
  N   -0.98094034357269      1.29628059835675     -0.68377478920487
  O   -1.74205180705308      0.57791020495876     -1.32866215582634
  O   -0.63452677435525      2.43669843973976     -0.97344420085402
