16
Coordinates from ORCA-job run
  C   0.81351705890304     -0.21434798289694      0.13904885316028
  C   -0.36784692642929      0.70134188258076      0.59497096989822
  Cl  1.61272909733654     -0.74245064965071      1.66414429295408
  H   0.05229340925500      1.51679111142434      1.18387543502681
  C   0.38938727126117     -1.44933696110359     -0.64147420567318
  H   1.26707718240750     -2.05633225407880     -0.86480622883104
  H   -0.09503997575474     -1.16105746284589     -1.57489085916275
  H   -0.29906433178082     -2.04860943915708     -0.04503858232100
  C   1.78625429610594      0.56700965947890     -0.62155031884681
  N   2.55800369243219      1.18181189907814     -1.26046777385602
  N   -1.44591822248017      0.09303348281378      1.29736000999555
  H   -1.87971316077068     -0.64678783535550      0.76275890599718
  H   -1.15404446029360     -0.23938378972235      2.20554740030645
  N   -0.94123497222603      1.34706317282522     -0.63992090894266
  O   -0.55585479873253      2.47934547315054     -0.91189290065976
  O   -1.73954515923351      0.67190969345917     -1.28666408904534
