16
Coordinates from ORCA-job run
  C   0.76915958256410     -0.14063113718254     -0.07024736148805
  C   -0.52212816418165      0.50957832652595      0.48361516771951
  Cl  2.18909733084118      0.75735464216767      0.55119829686123
  H   -0.50891787876435      0.41296387734353      1.57001674146565
  C   0.86020358953915     -1.58648944829017      0.41201432398528
  H   0.84982588014386     -1.61075341389300      1.50363214272460
  H   0.02357819848326     -2.16789337824888      0.02037966003405
  H   1.78878104864267     -2.03598410881276      0.05993126482259
  C   0.78795024020339     -0.11611835920012     -1.53241754702308
  N   0.77609102585295     -0.20101703441612     -2.70450492274019
  N   -1.74780850738633      0.01761404399592     -0.05115915606807
  H   -1.74023030117282     -0.04625165689962     -1.06098686035065
  H   -2.04405357333151     -0.84681932794101      0.37492478767655
  N   -0.49247164326572      1.99269634068806      0.21829294118272
  O   -0.41555234249296      2.74091884004983      1.18597251614480
  O   -0.57252448567524      2.32083179411326     -0.96166199494696
