16
Coordinates from ORCA-job run
  C   0.85452178756909     -0.10082948288366     -0.01402077804440
  C   -0.50731580636239      0.43873074381965      0.44317659460771
  Cl  2.14142391274517      0.64737445659585      0.98573427481502
  H   -0.52359646465669      0.42260493673459      1.54253969621346
  C   0.90449407079218     -1.61084627530436      0.22058829458365
  H   0.19810093493269     -2.11316549462561     -0.44099167933753
  H   0.67394083163066     -1.83412628368143      1.26537188625413
  H   1.90810279803356     -1.97685033976515      0.00417128586040
  C   1.09865402227148      0.17342440213006     -1.42894537562273
  N   1.30670436967143      0.30051195722396     -2.57787110053918
  N   -1.57711219508543     -0.27882675020213     -0.20611112708736
  H   -1.76524949295736     -1.14026599954817      0.29098209984534
  H   -2.41823329144927      0.28593204438525     -0.16504480285804
  N   -0.70327746314162      1.90369127244395      0.09661154844569
  O   -1.81982672034598      2.34475021518813      0.35718582413272
  O   0.23066870635246      2.53789059748907     -0.37437664126888
