16
Coordinates from ORCA-job run
  C   0.87902115040153     -0.21723852744579      0.14066374531277
  C   -0.32320621300663      0.62830061936082      0.63080414785401
  Cl  1.84552892336478     -0.60953754442424      1.60088325161257
  H   0.04916350967129      1.44494976635139      1.24878093065090
  C   0.46528395576586     -1.51670799802233     -0.53776563394870
  H   1.35575931249095     -2.06239559113817     -0.84985462030726
  H   -0.08862941231944     -2.13139465146587      0.17148461447039
  H   -0.15062340245202     -1.30628527277922     -1.41385053574872
  C   1.73085481154202      0.57328485750370     -0.74821329559187
  N   2.41516396670556      1.17380125609077     -1.49135585823032
  N   -1.26632481477531     -0.16252042216935      1.32845508814912
  H   -1.83619016088008     -0.69703068335253      0.68466370049012
  H   -1.86486188597940      0.40765535142784      1.91024791371123
  N   -0.92391766712014      1.32649744630819     -0.59508078043896
  O   -0.56284045656119      2.47808780558450     -0.81541283192269
  O   -1.72218161684778      0.67153358817028     -1.26444983606258
