16
Coordinates from ORCA-job run
  C   0.76967437677203     -0.13764304120595     -0.06625911784329
  C   -0.52736926552749      0.50115778312431      0.48724470533306
  Cl  2.18248400502221      0.75582582378892      0.57784323573202
  H   -0.52165716440919      0.38972815557923      1.57229407683501
  C   0.86179354692057     -1.58975214185874      0.39670435960677
  H   1.79422360213322     -2.03149334213948      0.04499051230824
  H   0.02980297791907     -2.16830051097180     -0.00884977531204
  H   0.84381586056133     -1.62925956970301      1.48777865590981
  C   0.79909216075642     -0.09290983955516     -1.52777969695196
  N   0.79727468696337     -0.15900247203086     -2.70118138711306
  N   -1.74810633923024      0.01348350440751     -0.06322770615471
  H   -2.04174099348297     -0.86033611679040      0.34533227024515
  H   -1.73311230951529     -0.03296578701208     -1.07399387311436
  N   -0.50050031110081      1.98771399877707      0.24251454675263
  O   -0.43201567285080      2.72277379799414      1.22087846093151
  O   -0.57365916093143      2.33197975759630     -0.93328926716477
