16
Coordinates from ORCA-job run
  C   0.79925754816433     -0.14599802613739     -0.12869981851761
  C   -0.49695167035930      0.36250336492701      0.52783821700669
  Cl  2.17651581340535      0.84129121646009      0.44950809672877
  H   -0.42992539191378      0.20040418948908      1.60460217931165
  C   1.03431670948303     -1.60149554715613      0.26546903169469
  H   1.12819022748389     -1.67150317291634      1.35094097593720
  H   1.95609372531320     -1.96183088920609     -0.19181942527791
  H   0.19321512611212     -2.20836630802312     -0.06859028563355
  C   0.72005645154441     -0.03674201872013     -1.58586511089225
  N   0.64228231411917     -0.03479874496438     -2.75830496624516
  N   -1.61763951701845     -0.30802154901106     -0.03037052568091
  H   -2.45339643675039     -0.15518221894580      0.51887016385363
  H   -1.78078064246412     -0.00658225386847     -0.98493729810373
  N   -0.58808285862838      1.87807463632233      0.38186438533369
  O   -0.47593696795269      2.55088194292377      1.40207186565710
  O   -0.80421443053840      2.29736537882660     -0.75257748517228
