16
Coordinates from ORCA-job run
  C   0.78851602786953     -0.15940735484871     -0.17537774514496
  C   -0.45569561667480      0.39649442099223      0.54176515785462
  Cl  2.21004685415769      0.84419147842975      0.24661843200336
  H   -0.30782177766545      0.30237507272961      1.61850699342583
  C   1.04283976663859     -1.59326848476994      0.28099188999408
  H   1.93115602039621     -1.98486512793338     -0.21523888046217
  H   1.20822893622704     -1.60491099044383      1.36010648672917
  H   0.17898872538209     -2.21058788050300      0.03685260214578
  C   0.60573593552674     -0.12711121911020     -1.62691453175565
  N   0.44535818893166     -0.17945639117727     -2.78988512162334
  N   -1.61472607068452     -0.30229365256913      0.11069757997822
  H   -1.84917315276542     -0.05393787183055     -0.84448194377118
  H   -2.40661919998687     -0.11109188118373      0.71072304012901
  N   -0.55629904707788      1.90083011404458      0.30668250047328
  O   -0.89809142853020      2.24792118760301     -0.82104663347730
  O   -0.32144416174443      2.63711858057056      1.26000017350125
