16
Coordinates from ORCA-job run
  C   0.61774298605423     -0.40194510413046      0.10032519903573
  C   -0.54554311150292      0.63088995557373      0.21544140457758
  Cl  0.26507102946026     -1.83916279057034      1.11224576763552
  H   -0.25365377579690      1.50008040671388     -0.37798963811758
  C   0.90670102792075     -0.85359709840637     -1.32559282123001
  H   1.79715101699456     -1.48279355058715     -1.33594272928291
  H   0.06684533007253     -1.42604169289923     -1.71777743896302
  H   1.07064853130422      0.01498282951330     -1.96714086268359
  C   1.78459100279903      0.27253290385110      0.67181372674173
  N   2.69947786959364      0.86711759557843      1.10874618488362
  N   -0.94439638446187      1.04202884660244      1.51368164398464
  H   -1.10228157939343      0.25580888095344      2.12958860684315
  H   -0.27766578688526      1.68485999666252      1.91824309006772
  N   -1.74179016222770      0.05830739148442     -0.50210850863341
  O   -2.52159792350396     -0.61251564803918      0.16386604172145
  O   -1.82030007042717      0.28944707769947     -1.70739966658062
