16
Coordinates from ORCA-job run
  C   0.68443178673155     -0.39212941406204      0.09116474960304
  C   -0.44150234581917      0.65326427827820      0.24156796146969
  Cl  0.39031915930347     -1.75990122015151      1.21888623506172
  H   -0.21560749202871      1.47984460866942     -0.43629558775804
  C   0.83810258859424     -0.94845018665077     -1.31986686651473
  H   -0.03652600232419     -1.53288707694551     -1.60079899759216
  H   1.71822091725440     -1.59079009281033     -1.35587455835623
  H   0.96061791030555     -0.12986194029996     -2.03201250200029
  C   1.92330829192659      0.27330038661779      0.49871687696635
  N   2.94022387446283      0.80372951506677      0.75283950374546
  N   -0.56378654765056      1.10830168462629      1.56904702369535
  H   -0.90122309007898      0.37751938300697      2.18196873574970
  H   -1.16992906378117      1.91435207569423      1.63563896235073
  N   -1.73178875835650      0.05594904592995     -0.33910439013204
  O   -2.51395025576780     -0.46363563711274      0.45047723407605
  O   -1.88091097277156      0.15239459014324     -1.55535438036460
