16
Coordinates from ORCA-job run
  C   0.66448710708419     -0.43413853965980      0.02723969924825
  C   -0.41015933124360      0.62891586315456      0.34061309743088
  Cl  0.29985624151628     -1.94336465893390      0.93192949852435
  H   -0.14171298389244      1.53826512361869     -0.20234133068908
  C   0.79682873295842     -0.77344702210529     -1.45304245562204
  H   -0.10397935618248     -1.26465022445896     -1.81733723448961
  H   1.64488401683232     -1.44452539353142     -1.59062017271263
  H   0.96148406520029      0.13797648059368     -2.03134974175634
  C   1.93223003966441      0.09982662447648      0.52876186836348
  N   2.97220074626706      0.53444887093385      0.85985214652034
  N   -0.51605222161146      0.87940062578670      1.72295476998984
  H   -1.08288856637159      1.69416715249310      1.91406874965183
  H   -0.89276136176589      0.08029015199260      2.21609212380643
  N   -1.72544827424454      0.19162125119431     -0.32068439481783
  O   -2.53531795167242     -0.40467342493276      0.38207869201364
  O   -1.86465090253855      0.48088711937816     -1.50721531546147
