16
Coordinates from ORCA-job run
  C   0.54301333062436     -0.49851065200949      0.08113605994881
  C   -0.46111899328001      0.68124253119908      0.26231167571117
  Cl  -0.07728761477216     -1.96476329075035      0.90549936034491
  H   -0.01019820913909      1.55295466643130     -0.21666779594942
  C   0.84931878158809     -0.83445838103996     -1.37297330762620
  H   -0.03941252766380     -1.22891274205125     -1.86431344701467
  H   1.63843764203746     -1.58566036724749     -1.41584498177583
  H   1.17564893822788      0.06282581980417     -1.90325691256652
  C   1.76028959109102     -0.07589673708801      0.77584619023738
  N   2.74076312825224      0.30539176496046      1.29991399333617
  N   -0.86916616237543      1.00968325838600      1.58117849592101
  H   -0.14011393819736      1.49825641236813      2.08228295085692
  H   -1.17536727849959      0.19639901237334      2.09818356904285
  N   -1.68493855282983      0.37587200885625     -0.56364433583732
  O   -2.59244067053502     -0.23287049703649     -0.00933395116877
  O   -1.65742746452875      0.73844719284430     -1.73831756346051
