16
Coordinates from ORCA-job run
  C   0.79014677483329     -0.15930698060363     -0.16273924083889
  C   -0.46798126357800      0.38647421705695      0.53755286466490
  Cl  2.20247308805091      0.83606702309521      0.30703462838931
  H   -0.34854081786479      0.26272966210540      1.61491859912365
  C   1.03351004084329     -1.60083454828267      0.27501456330025
  H   1.18321778713483     -1.63021770209461      1.35602093921598
  H   1.92760210187350     -1.98783240748239     -0.21432497597953
  H   0.17139036652132     -2.21117369831866      0.00792158772143
  C   0.63816582661366     -0.10417380837775     -1.61722429098703
  N   0.50039501145527     -0.14169102782176     -2.78361755032610
  N   -1.62069932706289     -0.29273936869208      0.06053607785637
  H   -1.82882023400383     -0.02202525449736     -0.89467136180079
  H   -2.42652087764480     -0.11155955285719      0.64496150684849
  N   -0.55283288730883      1.89601294958545      0.33955111387690
  O   -0.38214155938170      2.60482365775418      1.32673750438979
  O   -0.82136403048125      2.27544683943092     -0.79767196545473
