16
Coordinates from ORCA-job run
  C   0.87460575251867     -0.23632287330383      0.13463123446613
  C   -0.31843966256524      0.60023119269778      0.66054553611172
  Cl  1.82548348658486     -0.71739657165305      1.57840507910098
  H   0.06149402645130      1.37953046405635      1.32064471941345
  C   0.44733180957222     -1.49279964240778     -0.61300511539851
  H   1.33267764478767     -2.03439227986652     -0.94629377159941
  H   -0.15829694754151     -1.22854292770382     -1.48174456994498
  H   -0.12124537997595     -2.13548450623681      0.05898779759265
  C   1.74399700296372      0.58566454562335     -0.70769320246458
  N   2.44366766269206      1.21057257873543     -1.41564795063114
  N   -1.27649157658069     -0.21172723064165      1.31237707584637
  H   -1.86906119987572      0.33588560201991      1.92106864529557
  H   -1.85099972079368     -0.70304515864330      0.63912317713455
  N   -0.90285187333870      1.36726838094590     -0.53186260279759
  O   -1.70795303143227      0.75866949731392     -1.23577835270136
  O   -0.52391799346674      2.52288892906410     -0.69275769942386
