16
Coordinates from ORCA-job run
  C   0.81521012423792     -0.20681320413888      0.13886191984275
  C   -0.37186585959363      0.70493785854816      0.58749020332195
  Cl  1.62337083365409     -0.71046496562277      1.66769391987034
  H   0.04335113371934      1.52972389521814      1.16678996954504
  C   0.39902382715193     -1.45454556447459     -0.62548380893633
  H   1.28090151898375     -2.05736101533177     -0.84340109375736
  H   -0.28313817744802     -2.05214550486737     -0.02036705909923
  H   -0.08973372208711     -1.18154545842562     -1.56111292889328
  C   1.77895505429459      0.57383581737575     -0.63385925967891
  N   2.54142567935686      1.19075294722984     -1.28195025006323
  N   -1.44373745607409      0.09686165639547      1.29949182690352
  H   -1.14757337407574     -0.21941669422346      2.21204134165325
  H   -1.87093998811267     -0.65526632712694      0.77672569860766
  N   -0.95264444479447      1.33270303955341     -0.65311956429677
  O   -1.74532960691859      0.64354150998112     -1.29193070632773
  O   -0.57727554229416      2.46520200990951     -0.93787020869165
