16
Coordinates from ORCA-job run
  C   0.76051348030059     -0.14323772014802     -0.12949116500390
  C   -0.48114518597876      0.51788960290414      0.51685970950855
  Cl  2.22666637243530      0.76168442167407      0.36043745540971
  H   -0.38024031358334      0.43843054213383      1.60006360725829
  C   0.88974422004940     -1.58159343558120      0.36611436015951
  H   0.02456650541476     -2.16820134586806      0.05191917798631
  H   1.78706411725356     -2.03756399511669     -0.05239126941984
  H   0.96702390968917     -1.58918934629979      1.45528628836971
  C   0.66051338152584     -0.14121071362235     -1.58870558628307
  N   0.55371076425069     -0.24191776862750     -2.75470211464883
  N   -1.74716851063127      0.02028812745271      0.09065532218425
  H   -1.82090741919921     -0.05354013924461     -0.91595545933594
  H   -2.00222260307369     -0.84247950047858      0.54610069959043
  N   -0.47295589730669      1.99613383889117      0.22709453322725
  O   -0.65015264721306      2.30609476344817     -0.94721636382140
  O   -0.31501017393330      2.75941266848270      1.17293080481897
