16

C	-0.492266	-0.027478	-1.443857
C	0.0	0.0	0.0
F	-1.880653	-0.125366	-1.471215
H	1.093089	0.0	0.0
C	-0.14437	1.248775	-2.099401
N	0.085163	2.263143	-2.643478
C	0.059065	-1.114016	-2.272729
N	0.464114	-1.929331	-3.014249
N	-0.424819	-1.260335	0.691187
O	-0.709092	-2.23655	-0.001738
O	-0.422969	-1.247987	1.918745
C	-0.49679	1.211977	0.764701
H	-0.082369	2.115627	0.31496
H	-1.588284	1.269859	0.771791
H	-0.129758	1.148763	1.786595
Br	3.332462	0.0	0.0
