16

C	-0.487748	-0.103651	-1.441919
C	0.0	0.0	0.0
F	-1.87782	-0.193599	-1.46827
H	1.092087	0.0	0.0
C	-0.129209	1.133561	-2.164543
N	0.052977	2.133322	-2.753623
C	0.056523	-1.23749	-2.21157
N	0.439124	-2.082481	-2.93187
N	-0.42899	-1.221462	0.754164
O	-0.464703	-1.13608	1.978003
O	-0.683331	-2.240811	0.114717
C	-0.49551	1.252076	0.69786
H	-0.096655	2.130561	0.18916
H	-1.586691	1.301181	0.718271
H	-0.113845	1.254414	1.716199
Br	3.332568	0.0	0.0
