16

C	-0.480143	-0.016658	-1.457097
C	0.0	0.0	0.0
F	-0.106676	1.198608	-2.013124
H	1.093191	0.0	0.0
C	0.115519	-1.08024	-2.283216
N	0.573961	-1.896355	-2.992451
C	-1.953756	-0.090847	-1.541866
N	-3.12629	-0.072947	-1.607027
N	-0.436165	-1.253237	0.677977
O	-0.292718	-1.313886	1.893642
O	-0.889386	-2.16126	-0.024221
C	-0.499089	1.20956	0.764149
H	-1.589781	1.218592	0.853054
H	-0.16141	2.112324	0.25599
H	-0.055924	1.190309	1.758146
Br	3.34827	0.0	0.0
