16

C	-0.463455	0.009773	-1.461973
C	0.0	0.0	0.0
F	0.039373	1.171851	-2.025503
H	1.093222	0.0	0.0
C	0.048608	-1.130295	-2.239282
N	0.458423	-2.034347	-2.867056
C	-1.933545	0.083101	-1.589845
N	-3.093992	0.233732	-1.696075
N	-0.468713	-1.242407	0.669712
O	-1.195435	-2.012914	0.029841
O	-0.10915	-1.409367	1.828469
C	-0.500162	1.20051	0.779795
H	-1.588686	1.193817	0.890794
H	-0.187234	2.111985	0.2704
H	-0.031632	1.182525	1.76356
Br	3.358825	0.0	0.0
