16

C	-0.477312	-0.040059	-1.45782
C	0.0	0.0	0.0
F	-0.083384	1.155106	-2.039569
H	1.093189	0.0	0.0
C	0.100191	-1.130192	-2.260468
N	0.525262	-1.948963	-2.985859
C	-1.952472	-0.09038	-1.54744
N	-3.123002	-0.046492	-1.6316
N	-0.446967	-1.23475	0.699896
O	-0.938088	-2.139958	0.017639
O	-0.287495	-1.278257	1.913984
C	-0.493622	1.226605	0.740716
H	-0.155465	2.116973	0.211901
H	-1.583467	1.241716	0.832842
H	-0.045966	1.227903	1.733121
Br	3.345278	0.0	0.0
