15

C	0.0	0.0	0.0
C	-0.260957	0.012659	-1.558845
Br	1.975575	0.0	0.0
H	-1.342373	0.016196	-1.651641
C	-0.504402	1.198186	0.662204
N	-0.553026	2.217346	1.261628
C	-0.50671	-1.207006	0.643794
N	-0.551035	-2.229707	1.238785
N	0.207997	-1.237419	-2.143194
H	-0.184843	-1.318947	-3.073111
H	1.21794	-1.239229	-2.218399
N	0.215603	1.268093	-2.12435
H	1.225509	1.265757	-2.203813
H	-0.182192	1.371247	-3.050125
H	-2.065518	0.0	0.0
