15

C	0.0	0.0	0.0
C	-0.231378	0.191619	-1.602565
Br	1.962582	0.0	0.0
H	0.585166	-0.407229	-2.025572
C	-0.471601	1.084188	0.836494
N	-0.544279	2.018372	1.558688
C	-0.509134	-1.296627	0.410905
N	-0.577904	-2.448089	0.680251
N	-0.131941	1.611704	-1.868921
H	-0.141261	1.727054	-2.87607
H	0.743784	1.971118	-1.506489
N	-1.421462	-0.279856	-2.259046
H	-2.20687	0.128906	-1.759664
H	-1.490547	-1.280606	-2.104824
H	-1.971749	0.0	0.0
