15

C	0.0	0.0	0.0
C	-0.237539	-0.397515	-1.566695
Br	1.95661	0.0	0.0
H	0.589796	0.124544	-2.064126
C	-0.518176	1.336937	0.239751
N	-0.581499	2.513399	0.361642
C	-0.479667	-0.96691	0.966221
N	-0.555443	-1.788674	1.8133
N	-1.422179	0.005002	-2.27754
H	-1.477483	1.018746	-2.249591
H	-2.211606	-0.326006	-1.727047
N	-0.16541	-1.84002	-1.64054
H	0.709729	-2.166306	-1.247809
H	-0.208722	-2.093772	-2.621208
H	-1.986762	0.0	0.0
