13

C	-0.395482	-0.028806	-1.473683
C	0.0	0.0	0.0
Br	0.153198	-1.728676	-2.280721
H	1.095863	0.0	0.0
H	0.24063	0.70878	-1.979089
N	-1.818138	0.120323	-1.672787
H	-2.136383	0.938238	-1.16338
H	-2.016055	0.25343	-2.657751
C	-0.533112	-1.105091	0.774975
N	-0.90564	-1.999878	1.441508
C	-0.420661	1.270158	0.569051
N	-0.729788	2.327311	0.985281
H	2.513217	0.0	0.0
