13

C	-0.259496	-0.092433	-1.514631
C	0.0	0.0	0.0
Br	0.005955	1.790013	-2.320076
H	1.097515	0.0	0.0
H	-1.297084	-0.272046	-1.793248
N	0.621824	-1.055477	-2.005401
H	0.614843	-1.132877	-3.011762
H	1.565712	-0.883025	-1.636468
C	-0.448589	-1.230079	0.637
N	-0.79307	-2.22155	1.168544
C	-0.563456	1.150103	0.677449
N	-1.034799	2.065297	1.246585
H	2.571532	0.0	0.0
