13

C	-0.260473	-0.117411	-1.512651
C	0.0	0.0	0.0
Br	-0.012136	1.755503	-2.346374
H	1.097493	0.0	0.0
H	-1.297281	-0.308529	-1.786936
N	0.627304	-1.080949	-1.989699
H	0.620151	-1.173749	-2.994956
H	1.569914	-0.897586	-1.621584
C	-0.449691	-1.220201	0.654094
N	-0.799611	-2.20232	1.198793
C	-0.564025	1.15912	0.66086
N	-1.036861	2.078547	1.22141
H	2.573472	0.0	0.0
