13

C	-0.264424	-0.104276	-1.512508
C	0.0	0.0	0.0
Br	0.004448	1.767564	-2.336385
H	1.097546	0.0	0.0
H	-1.303671	-0.281566	-1.788476
N	0.611588	-1.075561	-1.995926
H	1.557073	-0.903056	-1.631174
H	0.598689	-1.162347	-3.001557
C	-0.446823	-1.224723	0.646953
N	-0.77775	-2.213336	1.191195
C	-0.564174	1.153944	0.670144
N	-1.035714	2.068031	1.240589
H	2.57317	0.0	0.0
