13

C	-0.377094	-0.059863	-1.47867
C	0.0	0.0	0.0
Br	0.129397	-1.799641	-2.226055
H	1.095884	0.0	0.0
H	0.2923	0.641135	-1.993315
N	-1.790122	0.128691	-1.707009
H	-1.968752	0.229711	-2.699861
H	-2.088297	0.975528	-1.234498
C	-0.540146	-1.08363	0.798019
N	-0.913944	-1.960325	1.487529
C	-0.422214	1.28565	0.532237
N	-0.768679	2.342666	0.918101
H	2.514395	0.0	0.0
