13

C	-0.272588	0.112793	-1.528172
C	0.0	0.0	0.0
Br	-0.093499	2.014984	-2.059508
H	1.095764	0.0	0.0
H	-1.30645	-0.127975	-1.782038
N	0.634676	-0.69382	-2.268176
H	0.273439	-1.633915	-2.370626
H	1.548158	-0.693413	-1.802306
C	-0.435706	-1.326397	0.407383
N	-0.776548	-2.420867	0.672634
C	-0.572316	1.016018	0.856689
N	-1.004682	1.833509	1.583145
H	2.571121	0.0	0.0
