13

C	-0.258898	-0.108746	-1.513683
C	0.0	0.0	0.0
Br	-0.000308	1.76829	-2.336367
H	1.097446	0.0	0.0
H	-1.295857	-0.29453	-1.791325
N	0.626424	-1.072558	-1.994922
H	1.56959	-0.894175	-1.626189
H	0.619282	-1.159213	-3.000534
C	-0.448596	-1.224173	0.648097
N	-0.795282	-2.210203	1.187676
C	-0.565052	1.155793	0.666135
N	-1.038711	2.076	1.224914
H	2.574363	0.0	0.0
