15

C	0.0	0.0	0.0
C	-0.540663	-0.234231	-1.392396
F	1.347471	0.0	0.0
H	-1.583224	0.096093	-1.39655
H	0.039778	0.389091	-2.073304
N	-0.260571	1.511645	0.373587
O	-0.329663	1.770777	1.572542
O	-0.271144	2.338505	-0.531757
N	-0.540252	-0.860316	0.953044
H	-0.281944	-0.551998	1.882786
H	-1.561973	-0.814651	0.863573
N	-0.358507	-1.645998	-1.750913
H	-0.863973	-1.7959	-2.617064
H	-0.837744	-2.198358	-1.048487
Br	-3.810221	0.0	0.0
