15

C	0.0	0.0	0.0
C	-0.305653	0.26802	-1.488458
F	1.370345	0.0	0.0
H	0.0635	-0.639866	-1.977353
H	0.372554	1.07776	-1.758841
N	-0.304216	1.242894	0.874872
O	-0.30954	2.342203	0.329689
O	-0.445869	1.045339	2.078927
N	-0.573628	-1.16033	0.509886
H	-0.555566	-1.158046	1.522158
H	-1.554492	-1.161416	0.223141
N	-1.617413	0.580459	-1.974011
H	-2.306363	-0.125787	-1.743209
H	-1.965528	1.419499	-1.529999
Br	-4.165482	0.0	0.0
