15

C	0.0	0.0	0.0
C	-0.52346	0.202337	-1.401518
F	1.40146	0.0	0.0
H	-0.039102	1.086229	-1.825401
H	-1.598872	0.378451	-1.30236
N	-0.259005	1.229093	0.874367
O	-0.464124	2.301204	0.314488
O	-0.150052	1.062303	2.0843
N	-0.536395	-1.108079	0.603848
H	-0.721305	-1.850459	-0.050716
H	-0.128819	-1.366785	1.484768
N	-0.289382	-1.031541	-2.15583
H	-0.999678	-1.128567	-2.867641
H	0.617073	-1.001346	-2.604036
Br	-4.082295	0.0	0.0
