15

C	0.0	0.0	0.0
C	-0.378096	0.177833	-1.482276
F	1.370543	0.0	0.0
H	0.406791	0.822916	-1.882605
H	-0.23165	-0.817588	-1.915413
N	-0.257961	1.328742	0.785075
O	-0.424843	1.232298	1.998655
O	-0.182492	2.383868	0.16156
N	-0.559143	-1.100534	0.639331
H	-1.559549	-1.119946	0.432114
H	-0.449367	-1.017402	1.643445
N	-1.654293	0.701179	-1.885473
H	-2.442055	0.174492	-1.516765
H	-1.766631	1.641358	-1.530508
Br	-4.291651	0.0	0.0
