15

C	0.0	0.0	0.0
C	-0.621745	0.194143	-1.378116
F	1.401551	0.0	0.0
H	-1.350475	1.003891	-1.291083
H	0.177147	0.504308	-2.057221
N	-0.193577	1.26851	0.862
O	-0.197857	2.349629	0.281847
O	-0.20252	1.113395	2.077961
N	-0.523016	-1.076163	0.665342
H	-0.747013	-1.843324	0.050964
H	-0.098079	-1.288327	1.550979
N	-1.249992	-1.049581	-1.824514
H	-1.293586	-1.049385	-2.835126
H	-2.212624	-1.007926	-1.475168
Br	-4.027744	0.0	0.0
