15

C	0.0	0.0	0.0
C	-0.620727	0.261297	-1.366759
F	1.401663	0.0	0.0
H	0.166796	0.645627	-2.023908
H	-1.381313	1.032831	-1.225702
N	-0.189544	1.232626	0.919101
O	-0.254159	2.338469	0.390139
O	-0.136243	1.025729	2.127976
N	-0.532588	-1.096975	0.611466
H	-0.178385	-1.329823	1.51809
H	-0.809498	-1.828999	-0.021292
N	-1.20974	-0.970039	-1.892294
H	-1.193467	-0.937651	-2.904191
H	-2.186764	-0.954934	-1.584007
Br	-3.986283	0.0	0.0
