15

C	-0.552019	0.030635	-1.434896
C	0.0	0.0	0.0
Br	0.300632	-1.471164	-2.455203
H	1.092793	0.0	0.0
N	-1.97987	-0.059416	-1.417138
H	-2.257574	-0.964019	-1.05002
H	-2.356755	0.040667	-2.352521
C	-0.157963	1.263253	-2.118327
N	0.123492	2.209948	-2.753369
C	-0.487311	-1.225375	0.658205
N	-0.943096	-2.145631	1.231361
N	-0.427148	1.221657	0.655734
H	-1.387931	1.166077	0.960055
H	0.182437	1.411109	1.438847
Br	3.43859	0.0	0.0
