15

C	-0.540657	0.044162	-1.440125
C	0.0	0.0	0.0
Br	-0.010909	-1.57512	-2.404798
H	1.096701	0.0	0.0
N	-1.981722	0.117667	-1.40029
H	-2.197397	0.903615	-0.790234
H	-2.347163	0.307946	-2.326036
C	0.065762	1.180892	-2.151634
N	0.431672	2.141208	-2.723639
C	-0.506833	-1.179473	0.696201
N	-0.930481	-2.064661	1.341902
N	-0.463734	1.236551	0.664886
H	0.355752	1.821642	0.79267
H	-0.828837	1.02215	1.583668
Br	3.405308	0.0	0.0
