15

C	-0.436794	-0.004241	-1.463274
C	0.0	0.0	0.0
Br	-2.606009	-0.035851	-1.393323
H	1.096077	0.0	0.0
N	0.032553	1.10888	-2.100887
H	-0.21984	1.223347	-3.069304
H	-0.033095	1.933101	-1.51776
C	-0.171136	-1.243317	-2.175374
N	0.052652	-2.228055	-2.776198
C	-0.477616	-1.178536	0.726952
N	-0.861285	-2.080967	1.37456
N	-0.380479	1.274994	0.591078
H	0.293469	1.505062	1.311666
H	-1.310614	1.229251	0.988633
Br	3.387071	0.0	0.0
