13

C	0.0	0.0	0.0
C	-0.48043	0.02155	-1.445263
F	1.372729	0.0	0.0
H	-0.210702	-0.91186	-1.93637
H	-1.570992	0.165576	-1.439559
C	-0.43191	1.141233	0.828583
N	-0.546005	2.058212	1.553971
C	-0.425068	-1.269056	0.625014
N	-0.532075	-2.334146	1.109189
N	0.170986	1.106815	-2.221298
O	0.42045	0.863183	-3.40091
O	0.376694	2.17844	-1.659012
Cl	-3.252914	0.0	0.0
