13

C	0.0	0.0	0.0
C	-0.484091	0.001461	-1.444227
F	1.370353	0.0	0.0
H	-0.225165	0.945661	-1.91993
H	-1.572634	-0.152785	-1.438146
C	-0.426032	1.255227	0.651387
N	-0.528122	2.307972	1.163042
C	-0.428368	-1.158194	0.808564
N	-0.564909	-2.067927	1.538834
N	0.175379	-1.06431	-2.238993
O	0.400456	-2.140895	-1.692599
O	0.412665	-0.800265	-3.416749
Cl	-3.257822	0.0	0.0
