13

C	0.0	0.0	0.0
C	-0.51758	-0.057353	-1.428466
F	1.353054	0.0	0.0
H	-1.618851	-0.018323	-1.387132
H	-0.176228	-0.973828	-1.910246
C	-0.444063	1.174294	0.777227
N	-0.619669	2.097109	1.479715
C	-0.427613	-1.236893	0.693355
N	-0.540935	-2.274838	1.231655
N	-0.02036	1.064906	-2.263664
O	0.374328	2.087551	-1.708767
O	-0.078613	0.890117	-3.478847
Cl	-3.313623	0.0	0.0
