13

C	0.0	0.0	0.0
C	-0.481578	-0.076384	-1.442467
F	1.37484	0.0	0.0
H	-0.220606	-1.043701	-1.867243
H	-1.571124	0.075518	-1.443959
C	-0.435352	1.193994	0.748
N	-0.576484	2.143878	1.424264
C	-0.421552	-1.223002	0.709702
N	-0.537498	-2.248952	1.270863
N	0.177556	0.947938	-2.288657
O	0.37674	2.058824	-1.804577
O	0.442769	0.617313	-3.443312
Cl	-3.257773	0.0	0.0
