13

C	0.0	0.0	0.0
C	-0.460058	-0.077197	-1.449418
F	1.378679	0.0	0.0
H	-1.550692	0.052589	-1.469614
H	-0.162237	-1.032632	-1.876058
C	-0.425227	1.195744	0.751418
N	-0.533224	2.138921	1.442835
C	-0.426158	-1.222912	0.707709
N	-0.519265	-2.261726	1.248281
N	0.188824	0.969757	-2.277381
O	0.332481	2.087954	-1.789165
O	0.505078	0.647035	-3.421611
Cl	-3.21153	0.0	0.0
