13

C	0.0	0.0	0.0
C	-0.419898	-0.028189	-1.465992
F	1.377936	0.0	0.0
H	-0.059973	-0.952604	-1.917137
H	-1.508984	0.060801	-1.535161
C	-0.43874	1.163859	0.78855
N	-0.539573	2.088404	1.506546
C	-0.428976	-1.247177	0.659977
N	-0.51496	-2.295121	1.18516
N	0.217303	1.074983	-2.234961
O	0.535074	0.819592	-3.395444
O	0.343897	2.166413	-1.688665
Cl	-3.170606	0.0	0.0
