13

C	0.0	0.0	0.0
C	-0.459817	0.013236	-1.45239
F	1.377347	0.0	0.0
H	-0.024204	0.883874	-1.941166
H	-1.558879	0.032757	-1.463642
C	-0.40218	1.300789	0.577931
N	-0.474176	2.414426	0.947251
C	-0.459815	-1.121715	0.833247
N	-0.643392	-2.006639	1.583638
N	0.018552	-1.166827	-2.2123
O	-0.010481	-2.262291	-1.659716
O	0.371624	-0.963261	-3.373362
Cl	-3.254412	0.0	0.0
