15
Coordinates from ORCA-job run
  C   -0.45813553490720      0.28072487483360     -0.31232588887561
  C   0.81829902025077     -0.44446430024091     -0.70657763290537
  F   -1.15130667496752      0.51022132666761     -1.53069928189883
  H   0.53972418726554     -1.34801837753564     -1.25439188981860
  H   1.36152239196710      0.20917560966206     -1.40939927151111
  C   -1.37121795445993     -0.53902662610896      0.56820616056621
  H   -0.86937783589689     -0.78714181950369      1.50089381964539
  H   -1.64274179126775     -1.46137971435214      0.05340689289566
  H   -2.28778811273473      0.02020350188773      0.77365119566338
  N   -0.12063527659058      1.51858514589778      0.31000154555838
  H   0.34426000726629      2.12405611122192     -0.35682113842345
  H   -0.95010760469120      1.99096816025587      0.64747482799603
  N   1.56223813472230     -0.81277815464571      0.49024847316079
  H   1.81049558926141      0.03332030799467      0.98791522582117
  H   2.41477145478240     -1.29544604603419      0.23741696212598
