15
Coordinates from ORCA-job run
  C   -0.45745966615526      0.30079457946987     -0.43613605247256
  C   0.83787354910374     -0.46728098813329     -0.66282742838039
  F   -1.04040581378715      0.48630973238075     -1.69284860274073
  H   0.58751756709121     -1.48660910505418     -0.96838308836069
  H   1.34655363533813      0.02148628564789     -1.50019677345315
  C   -1.45992281131016     -0.46923634263096      0.40248904458850
  H   -1.74875182573948     -1.39632626065370     -0.09852146109804
  H   -2.35865135831216      0.13283956332514      0.55696562511718
  H   -1.01697615423872     -0.70756660402305      1.37092333540446
  N   -0.12158648024546      1.61287875648497      0.06219066339990
  H   0.33931026725622      1.49201716792384      0.95729763974375
  H   -0.97381371954662      2.13958163178933      0.22058112606864
  N   1.62992807057837     -0.48259938649591      0.56980954722012
  H   2.06824343077124     -1.38217368988902      0.70628042044260
  H   2.36814130919611      0.20588465985832      0.51137600452044
