15
Coordinates from ORCA-job run
  C   -0.43087989359875      0.28764970235157     -0.31336273468715
  C   0.84987807893266     -0.36979236599147     -0.82267614171258
  F   -1.23170377794152      0.49093162534805     -1.47043806006915
  H   0.57541531293644     -1.26667653204623     -1.38331471342236
  H   1.30785030772337      0.32022868033566     -1.54090558878952
  C   -1.24161661356521     -0.58448941408970      0.61884871829592
  H   -0.69905558845286     -0.77015427221223      1.54544542519421
  H   -2.18577614874369     -0.08991866603310      0.85952611111642
  H   -1.47258256846194     -1.53420808475545      0.13375902863093
  N   -0.11352191873814      1.53014184223567      0.30614960614495
  H   -0.94451324858030      1.97392033275472      0.67757836849852
  H   0.31043198291162      2.15632107442107     -0.36865205541123
  N   1.82915998442069     -0.71483060365878      0.19449627183589
  H   1.94135388119862      0.07241978883800      0.82174401488851
  H   1.50456020995900     -1.50054310749781      0.74280174948665
