15
Coordinates from ORCA-job run
  C   0.66932499516200     -0.83946832413682     -0.06846184254044
  C   -0.74807939581473     -0.35789907105343     -0.41095483610225
  F   0.54113153750313     -1.71977924850371      1.00730274155100
  H   -1.33896543868195     -1.25926829556867     -0.61067908003877
  H   1.05457450492721     -1.42711348407833     -0.90791185958340
  C   1.64126589770935      0.25289228240754      0.30952045847061
  H   1.31380949949453      0.76375726466023      1.21572405634818
  H   2.62252087810115     -0.18349675646910      0.50222186294675
  H   1.73829914428281      0.98209423936355     -0.49765116806206
  C   -0.70114241354135      0.42728461833820     -1.64523592804814
  N   -0.63663368061885      1.07251343973279     -2.62411273228184
  C   -1.41190865735496      0.42938696449506      0.72217862586541
  H   -1.35571441158237     -0.14837216578557      1.64542852577640
  H   -2.46186091886155      0.61256939909632      0.48872850192365
  H   -0.92662154072441      1.39389913750193      0.87490267377489
