15
Coordinates from ORCA-job run
  C   0.64979437729468     -0.85194138500235     -0.09629319116973
  C   -0.76777947701962     -0.33935635299621     -0.39010170690173
  F   0.53750903956589     -1.73861522180947      0.97602106409179
  H   -1.38218567398978     -1.22739124145680     -0.57784990216829
  H   0.99643291523047     -1.44011107267210     -0.95203253136838
  C   1.65511140104564      0.21736844125274      0.25950356704559
  H   2.63233778396558     -0.24066341997980      0.41953690717411
  H   1.36584311062718      0.72812849457739      1.17861005592638
  H   1.74306427401118      0.95025841751493     -0.54531282466451
  C   -0.74351669401384      0.45508035535422     -1.61903410502825
  N   -0.69690415855612      1.10770570078727     -2.59389814326487
  C   -1.37961123218203      0.45138414407700      0.76957514883200
  H   -0.87062602713076      1.40477175467235      0.91417421011056
  H   -2.43245611610776      0.65739628440357      0.57109421766097
  H   -1.30601352274072     -0.13501489872275      1.68600723372437
