15
Coordinates from ORCA-job run
  C   0.66229875568318     -0.84436152258672     -0.09221700548606
  C   -0.75149120474722     -0.34096887257994     -0.41725939960821
  F   0.53007679497131     -1.74939845274210      0.96222492787003
  H   -1.35181167282100     -1.23057891897534     -0.64045643993675
  H   1.03901886262627     -1.41489306717217     -0.94718202755806
  C   1.64599301041075      0.22946339750066      0.30792236008639
  H   2.62262388936472     -0.22139500179651      0.49047278373433
  H   1.75034491015262      0.97409283979810     -0.48406249329203
  H   1.32499086814056      0.72508071564802      1.22477553098322
  C   -0.70224025177756      0.47699924846150     -1.62994688893247
  N   -0.65042064413899      1.15535046190946     -2.58693068606333
  C   -1.40471172937588      0.42211877712880      0.73836018858061
  H   -2.45421421489077      0.61920207728765      0.51454343693142
  H   -0.91162857175936      1.37878531378002      0.91349801752953
  H   -1.34882880183863     -0.17949699566143      1.64625769516140
