9
Coordinates from ORCA-job run
  C   0.85045150758437      0.11761154208395     -0.43662845752616
  C   -0.28991382394699     -0.25262087808225      0.50696137408962
  Cl  2.38739497672057     -0.51515394162988      0.20037884362539
  H   -0.35390645253990     -1.33841587500518      0.61058343545823
  H   0.69437194569874     -0.31558965471850     -1.42334449116864
  H   0.94567914111507      1.19866003703354     -0.52550150751830
  H   -0.10481522477030      0.16255770011302      1.50052016137641
  C   -1.56250378927576      0.25933130237604     -0.00038808738970
  N   -2.56675828058580      0.68261976782926     -0.43458127094684
