9
Coordinates from ORCA-job run
  C   0.89933869897359      0.21055131512676     -0.27385503730788
  C   -0.35497614817820     -0.40301252142208      0.34085420424782
  Cl  2.33026566221960     -0.72721291117069      0.21734970000542
  H   -0.27494243634684     -0.40898990229785      1.43053851718662
  H   1.03798881538516      1.23511630051845      0.06777843130665
  H   0.84663983114842      0.19428661957735     -1.36135644556268
  H   -0.46522143555860     -1.43956754795410      0.01336549789955
  C   -1.54266911050898      0.35524762390235     -0.05078280839980
  N   -2.47542387713415      0.98458102371981     -0.38289205937570
