9
Coordinates from ORCA-job run
  C   0.91324519701550      0.22973965524667     -0.20273127581463
  C   -0.40742807095851     -0.48316138150761      0.07155146696044
  Cl  2.18035193907145     -0.96813614672687     -0.56017348669238
  H   -0.69925180876740     -1.08016686987405     -0.79578676883758
  H   1.23213313221659      0.80409254964203      0.66567584044968
  H   0.82623292827118      0.89092541420821     -1.06350616906921
  H   -0.29739887463215     -1.16492741923353      0.91827357827779
  C   -1.46257167671244      0.48564318846328      0.36657658483151
  N   -2.28631276550422      1.28799100978188      0.59912022989439
