9
Coordinates from ORCA-job run
  C   0.99809918477310     -0.01747431084535     -0.10707382941491
  C   -0.43853373251122     -0.50368104582689      0.03674094136974
  Cl  1.15419096396607      1.11376750056327     -1.47042826728989
  H   -0.77746379651911     -0.94638848007101     -0.90289546795843
  H   1.32794383372785      0.49864126888428      0.79353033729926
  H   1.65478583717321     -0.86457385698033     -0.30280895474215
  H   -0.47758506730615     -1.28229608305709      0.80560555361517
  C   -1.35670856827188      0.56970890339718      0.41386387198660
  N   -2.08472865503187      1.43229610393593      0.73246581513461
