13

C	-0.451106	0.122593	-1.453639
C	0.0	0.0	0.0
F	-1.768546	0.436196	-1.550026
H	1.095697	0.0	0.0
H	0.155051	0.864956	-1.972074
N	-0.233121	-1.188968	-2.173313
O	0.882172	-1.345113	-2.653756
O	-1.176757	-1.970084	-2.206446
C	-0.521798	-1.197104	0.654259
N	-0.945418	-2.155021	1.184892
C	-0.433904	1.199983	0.717252
N	-0.772474	2.174319	1.278097
Br	3.291953	0.0	0.0
