13

C	-0.381128	0.063115	-1.467287
C	0.0	0.0	0.0
F	-1.732452	-0.024468	-1.65847
H	1.097409	0.0	0.0
H	-0.004016	0.976786	-1.923991
N	0.22247	-1.068567	-2.256795
O	0.618817	-0.77827	-3.382234
O	0.201509	-2.184181	-1.750789
C	-0.540936	-1.151558	0.718149
N	-0.986538	-2.027946	1.359948
C	-0.458671	1.23616	0.635721
N	-0.820915	2.240638	1.124414
Br	3.277682	0.0	0.0
