13

C	-0.501115	-0.07719	-1.44483
C	0.0	0.0	0.0
F	0.052603	-1.145106	-2.056266
H	1.096882	0.0	0.0
H	-1.58906	-0.134205	-1.518642
N	-0.117753	1.172783	-2.20471
O	-0.90157	2.109452	-2.061312
O	0.898636	1.151621	-2.88176
C	-0.460935	-1.202702	0.695638
N	-0.859597	-2.170027	1.228427
C	-0.492333	1.190252	0.692173
N	-0.883904	2.13448	1.270586
Br	3.28783	0.0	0.0
