13

C	-0.353944	-0.038276	-1.484343
C	0.0	0.0	0.0
F	0.131475	1.059601	-2.092555
H	1.097716	0.0	0.0
H	0.031496	-0.943562	-1.953651
N	-1.85506	-0.053816	-1.682813
O	-2.412196	1.00764	-1.933563
O	-2.386772	-1.152737	-1.545014
C	-0.466161	-1.186903	0.71034
N	-0.823656	-2.144677	1.288134
C	-0.497388	1.22107	0.629068
N	-0.895345	2.200425	1.140376
Br	3.282128	0.0	0.0
