16

C	0.0	0.0	0.0
C	-0.519865	0.01569	-1.461719
Cl	1.780573	0.0	0.0
H	-0.249486	0.950707	-1.956497
C	-0.417756	1.242994	0.661076
N	-0.762493	2.249077	1.162626
N	-0.451872	-1.14049	0.768411
H	-0.386487	-1.920657	0.103436
H	-1.442205	-0.991143	0.964173
N	-1.989219	-0.16267	-1.365563
H	-2.456417	0.363753	-2.100094
H	-2.074426	-1.172707	-1.557767
N	-0.052563	-1.063645	-2.293699
O	0.94049	-0.84709	-3.103033
O	-0.374828	-2.27748	-1.789314
H	-2.852051	0.0	0.0
