16

C	0.0	0.0	0.0
C	-0.534501	0.207133	-1.447682
Cl	1.79238	0.0	0.0
H	-1.59134	0.48141	-1.251572
C	-0.360431	1.156711	0.848774
N	-0.519764	2.067389	1.573188
N	-0.554061	-1.165013	0.610748
H	-0.380183	-1.955281	-0.003408
H	-1.589221	-0.951678	0.572763
N	-0.504388	-0.929692	-2.299617
H	-1.306784	-1.510884	-2.095221
H	0.360176	-1.451936	-2.248386
N	0.16314	1.354928	-2.107601
O	0.9866	1.114909	-2.98854
O	-0.118838	2.479281	-1.691801
H	-2.913765	0.0	0.0
