16

C	0.0	0.0	0.0
C	-0.528641	0.062702	-1.443006
Cl	1.799481	0.0	0.0
H	-1.635959	0.089994	-1.257116
C	-0.393813	1.192141	0.776625
N	-0.611512	2.138007	1.43813
N	-0.522148	-1.146915	0.684113
H	-0.351301	-1.960832	0.10023
H	-1.556552	-0.957718	0.659055
N	-0.147951	-1.037124	-2.265556
H	-0.861383	-1.749811	-2.294289
H	0.753292	-1.419825	-2.011834
N	-0.206912	1.344011	-2.175146
O	-0.694998	1.45366	-3.296583
O	0.467571	2.208183	-1.612476
H	-2.903231	0.0	0.0
