16

C	0.0	0.0	0.0
C	-0.389342	0.235752	-1.496963
Cl	1.836151	0.0	0.0
H	0.454507	0.703737	-2.008958
C	-0.308226	1.224208	0.77245
N	-0.504707	2.115072	1.514809
N	-0.603297	-1.182043	0.507454
H	-0.417523	-1.250184	1.503939
H	-1.631155	-1.014803	0.39295
N	-1.572851	0.959936	-1.619679
H	-2.351582	0.562164	-0.993183
H	-1.87299	1.012372	-2.585526
N	-0.393899	-1.181325	-2.166145
O	-1.470523	-1.634744	-2.537741
O	0.699295	-1.718419	-2.330532
H	-3.193737	0.0	0.0
