19

C	0.0	0.0	0.0
C	-0.439114	-0.000552	-1.462711
F	1.421928	0.0	0.0
H	-1.534006	-0.000555	-1.446838
C	-0.458012	1.249622	0.719502
H	-1.550814	1.274221	0.712088
H	-0.105113	1.221998	1.754497
H	-0.074573	2.138816	0.221665
C	-0.458003	-1.249079	0.720453
H	-1.550805	-1.273681	0.713082
H	-0.07458	-2.138648	0.223272
H	-0.105075	-1.220682	1.755417
N	0.007527	-1.2418	-2.099692
H	1.019847	-1.222312	-2.16213
H	-0.364531	-1.281401	-3.040962
N	0.007512	1.240221	-2.100631
H	1.019829	1.2207	-2.163038
H	-0.364528	1.279093	-3.041937
Br	-4.097285	0.0	0.0
