19

C	0.0	0.0	0.0
C	-0.310496	0.444505	-1.446641
F	1.416803	0.0	0.0
H	0.231812	1.401008	-1.549843
C	-0.465704	1.031271	1.002912
H	-0.067856	0.790637	1.992512
H	-0.112351	2.027841	0.720376
H	-1.557394	1.030852	1.050993
C	-0.492721	-1.386033	0.33512
H	-0.105133	-2.108924	-0.38214
H	-1.585372	-1.396835	0.304723
H	-0.171043	-1.659127	1.344905
N	-1.680701	0.696423	-1.81054
H	-2.305465	-0.046022	-1.508948
H	-2.035776	1.523486	-1.348705
N	0.199411	-0.573993	-2.36316
H	-0.060735	-0.277224	-3.295554
H	1.208696	-0.611001	-2.295271
Br	-4.456417	0.0	0.0
