19

C	0.0	0.0	0.0
C	-0.445763	-0.022065	-1.493145
F	1.403233	0.0	0.0
H	0.473869	-0.234351	-2.049636
C	-0.443219	1.237003	0.75567
H	-0.033842	1.195642	1.76874
H	-1.533947	1.26266	0.818989
H	-0.086104	2.13447	0.253151
C	-0.40488	-1.254095	0.754818
H	-1.490106	-1.308357	0.850288
H	-0.05131	-2.144087	0.235097
H	0.042477	-1.213114	1.752662
N	-0.891154	1.315111	-1.918127
H	-1.05217	1.271592	-2.919627
H	-1.807102	1.467367	-1.498115
N	-1.368475	-1.121059	-1.756132
H	-1.580807	-1.124843	-2.748173
H	-2.251171	-0.935151	-1.273967
Br	-4.171086	0.0	0.0
