19

C	0.0	0.0	0.0
C	-0.439994	0.005466	-1.469419
F	1.418959	0.0	0.0
H	-1.526067	0.139978	-1.46257
C	-0.453941	1.257924	0.708902
H	-0.070176	1.262402	1.733784
H	-0.093143	2.137703	0.177385
H	-1.54669	1.269664	0.731167
C	-0.459779	-1.237829	0.736721
H	-0.144332	-1.180602	1.781826
H	-1.551953	-1.285175	0.696536
H	-0.030248	-2.140819	0.297999
N	-0.158541	-1.243111	-2.190581
H	-0.850053	-1.93832	-1.932442
H	0.75129	-1.591376	-1.903378
N	0.177671	1.146687	-2.133213
H	-0.060562	1.071253	-3.115778
H	1.183993	1.033688	-2.062138
Br	-4.041196	0.0	0.0
