19

C	0.0	0.0	0.0
C	-0.457744	0.048221	-1.487257
F	1.40234	0.0	0.0
H	0.475407	-0.002243	-2.058499
C	-0.420974	1.21536	0.807507
H	-1.509181	1.253664	0.89494
H	0.012083	1.133164	1.808692
H	-0.067339	2.127861	0.329646
C	-0.406771	-1.2774	0.718261
H	0.041577	-1.264125	1.716463
H	-1.492295	-1.334512	0.816114
H	-0.052506	-2.150558	0.171095
N	-1.084089	1.340331	-1.80445
H	-1.216117	1.356839	-2.812175
H	-2.018985	1.317705	-1.393538
N	-1.235255	-1.136626	-1.845358
H	-2.139431	-1.076252	-1.373609
H	-1.430985	-1.080516	-2.8408
Br	-4.070167	0.0	0.0
