19

C	0.0	0.0	0.0
C	-0.48747	-0.076271	-1.458345
F	1.407354	0.0	0.0
H	-1.536519	0.244231	-1.447378
C	-0.444417	1.302749	0.63557
H	-0.010441	1.391184	1.635487
H	-0.106611	2.157654	0.043911
H	-1.534824	1.315364	0.705125
C	-0.448191	-1.189377	0.821242
H	-1.540022	-1.251522	0.798158
H	-0.122708	-1.066243	1.858048
H	-0.001867	-2.09952	0.417248
N	-0.336577	-1.437739	-1.981897
H	-0.491021	-1.35491	-2.980591
H	-1.100225	-1.996958	-1.613359
N	0.25271	0.799644	-2.361885
H	1.232956	0.744329	-2.10871
H	-0.050428	1.75514	-2.225887
Br	-4.033764	0.0	0.0
