19

C	0.0	0.0	0.0
C	-0.336304	-0.005045	-1.513031
F	1.416375	0.0	0.0
H	0.448903	0.627508	-1.950873
C	-0.435108	1.291117	0.661857
H	-1.522656	1.328566	0.745014
H	-0.103252	2.147755	0.071755
H	0.009779	1.350169	1.660346
C	-0.493066	-1.207204	0.760747
H	-0.195289	-1.130438	1.809836
H	-1.586399	-1.245521	0.713844
H	-0.076247	-2.129662	0.353014
N	-1.607387	0.604527	-1.789663
H	-2.371707	0.280325	-1.195723
H	-1.861031	0.405373	-2.749472
N	-0.18679	-1.315327	-2.166174
H	0.708016	-1.721185	-1.906552
H	-0.920533	-1.927856	-1.823736
Br	-4.446874	0.0	0.0
