19

C	0.0	0.0	0.0
C	-0.334508	-0.040515	-1.512815
F	1.416364	0.0	0.0
H	0.451996	-0.684964	-1.930614
C	-0.493487	1.228679	0.725156
H	-0.08077	2.13967	0.287361
H	-0.191887	1.18297	1.775269
H	-1.587068	1.262041	0.678991
C	-0.434705	-1.271849	0.69766
H	-0.101089	-2.143753	0.13125
H	-1.522232	-1.307519	0.780104
H	0.010211	-1.303898	1.697609
N	-0.185511	1.248771	-2.207583
H	0.708663	1.664292	-1.962098
H	-0.918529	1.873653	-1.884186
N	-1.605329	-0.659462	-1.770847
H	-2.369956	-0.315836	-1.188466
H	-1.856841	-0.494649	-2.737687
Br	-4.442297	0.0	0.0
