12

C	0.0	0.0	0.0
C	-0.480463	-0.147026	-1.467525
Cl	1.786201	0.0	0.0
H	-0.121388	-1.119326	-1.820219
H	-0.331078	0.952653	0.413953
H	0.059769	0.615721	-2.037812
C	-0.455408	-1.10332	0.841042
N	-0.713145	-2.070351	1.455527
N	-1.883326	-0.019974	-1.71685
H	-2.241455	0.895658	-1.478996
H	-2.477084	-0.655463	-1.192088
Cl	-4.592651	0.0	0.0
