12

C	0.0	0.0	0.0
C	-0.450717	0.06128	-1.485787
Cl	1.786177	0.0	0.0
H	-0.034354	0.991615	-1.887875
H	-0.344263	0.871423	0.558635
H	0.065984	-0.761795	-1.991223
C	-0.448633	-1.228632	0.644626
N	-0.718453	-2.271273	1.112951
N	-1.850752	-0.010516	-1.767756
H	-2.406465	0.711528	-1.322192
H	-2.277853	-0.872323	-1.450053
Cl	-4.531996	0.0	0.0
