12

C	0.0	0.0	0.0
C	-0.489939	-0.03935	-1.475646
Cl	1.785515	0.0	0.0
H	0.169978	0.64246	-2.022152
H	-0.322675	0.92998	0.47083
H	-0.292689	-1.047844	-1.85325
C	-0.463783	-1.140654	0.782557
N	-0.729787	-2.134073	1.350034
N	-1.850114	0.32631	-1.731025
H	-2.556275	-0.205598	-1.221643
H	-2.027336	1.291441	-1.485199
Cl	-4.539497	0.0	0.0
