12

C	0.0	0.0	0.0
C	-0.49521	-0.177517	-1.444986
Cl	1.789995	0.0	0.0
H	0.109655	-0.960821	-1.912054
H	-0.357452	0.940335	0.418313
H	-1.533835	-0.499738	-1.383475
C	-0.395152	-1.114031	0.865488
N	-0.572788	-2.047704	1.555
N	-0.445648	1.032892	-2.243536
H	-1.199853	1.63642	-1.937602
H	0.434467	1.517288	-2.11296
Cl	-3.434819	0.0	0.0
