16

C	-0.403363	-0.040714	-1.461041
C	0.0	0.0	0.0
F	-1.780805	-0.282679	-1.603366
H	1.097751	0.0	0.0
H	0.117232	-0.860565	-1.964934
C	-0.123022	1.212585	-2.183488
N	0.059237	2.20928	-2.777274
C	-0.456338	-1.288057	0.681367
H	-0.08265	-2.166928	0.148001
H	-0.04734	-1.324466	1.693967
H	-1.547047	-1.351919	0.739056
C	-0.52824	1.236997	0.713691
H	-0.229261	1.208502	1.764203
H	-1.621506	1.287458	0.666518
H	-0.115438	2.15106	0.281178
Cl	3.458177	0.0	0.0
