16

C	-0.412734	0.002486	-1.461581
C	0.0	0.0	0.0
F	-0.035982	-1.171464	-2.100909
H	1.097026	0.0	0.0
H	0.079211	0.827815	-1.985168
C	-1.877441	0.135606	-1.62829
N	-3.03983	0.251998	-1.7428
C	-0.520174	-1.235469	0.71917
H	-1.615801	-1.24785	0.765714
H	-0.178017	-2.143225	0.220492
H	-0.131048	-1.250916	1.739912
C	-0.460407	1.289589	0.674126
H	-0.044226	1.337287	1.683321
H	-0.09492	2.168862	0.135363
H	-1.552313	1.351611	0.746422
Cl	3.484923	0.0	0.0
