16

C	-0.513627	-0.004227	-1.427149
C	0.0	0.0	0.0
F	-0.103833	1.126905	-2.121558
H	1.096508	0.0	0.0
H	-1.612584	0.017838	-1.426203
C	-0.097765	-1.192075	-2.194064
N	0.172957	-2.14724	-2.818231
C	-0.484371	-1.252744	0.722467
H	-1.58018	-1.320435	0.733898
H	-0.133845	-1.22989	1.755997
H	-0.082968	-2.158963	0.263663
C	-0.469171	1.271171	0.695963
H	-1.563259	1.312126	0.7698
H	-0.119007	2.156227	0.163379
H	-0.052652	1.306146	1.703526
Cl	3.484329	0.0	0.0
