13

C	0.0	0.0	0.0
C	-0.530336	0.307198	-1.390632
Br	2.016912	0.0	0.0
H	-0.313577	-0.545267	-2.036765
H	-1.640906	0.343083	-1.192147
C	-0.279981	1.123532	0.925947
N	-0.436004	1.920047	1.779987
N	-0.578934	-1.229565	0.399939
H	-1.626414	-0.993124	0.327492
H	-0.376635	-1.39427	1.381866
C	-0.05226	1.544229	-1.981805
N	0.303586	2.537272	-2.502637
H	-2.892251	0.0	0.0
