13

C	0.0	0.0	0.0
C	-0.420992	0.126098	-1.461573
Br	1.968948	0.0	0.0
H	0.059723	-0.694706	-2.007325
H	-0.029776	1.060942	-1.880193
C	-0.423404	1.164908	0.785095
N	-0.55547	2.167823	1.387256
N	-0.393503	-1.225285	0.659359
H	-0.143645	-1.99247	0.040817
H	-1.422501	-1.138877	0.654756
C	-1.907725	0.053694	-1.680314
N	-2.630223	0.01997	-2.636864
H	-2.456889	0.0	0.0
