14
Coordinates from ORCA-job run
  C   -0.62790385105023      0.13193898294021     -0.38519099442337
  C   0.74328803006575     -0.51932635278883     -0.62574178862505
  Cl  -1.69886165362520     -0.33544762896966     -1.75227770417413
  H   0.59483600738734     -1.60139520950105     -0.58031530237556
  H   1.06840970339623     -0.26972242848442     -1.64359274329156
  C   -0.46720280475258      1.58692359577240     -0.41328506717457
  N   -0.28065408395984      2.74690858418936     -0.41159027893576
  C   -1.25950694067126     -0.31470853835831      0.92393065404501
  H   -0.58692384050854     -0.05974039954199      1.74284058906538
  H   -1.40624722932133     -1.39658258330086      0.89962740016805
  H   -2.22596902256697      0.16864445245748      1.07038280301166
  N   1.65914826869354     -0.10758756328060      0.42640703499868
  H   2.38550753955656     -0.79797636701793      0.55827401129720
  H   2.10207987735654      0.77107145588420      0.18953138641401
