14
Coordinates from ORCA-job run
  C   -0.54559003388448      0.13647343884141     -0.19771516748251
  C   0.82052413427121     -0.55022229320337     -0.06046593474324
  Cl  -1.23445398151776     -0.23860397339157     -1.81000112181374
  H   0.66361113066444     -1.61134179966842     -0.27046596188391
  H   1.11418454553770     -0.45773978193575      0.99661221636511
  C   -0.35632851857568      1.58540046891383     -0.10756898424868
  N   -0.17261524361831      2.73760818829501      0.02938206708644
  C   -1.51983445456313     -0.34019718159855      0.87259535232709
  H   -2.49498002802408      0.12843753825663      0.73973048495185
  H   -1.63866541387837     -1.42296483345551      0.79737521066140
  H   -1.13774702950267     -0.08767228805310      1.86475104407915
  N   1.77940557985945     -0.00716210492140     -1.00003317723496
  H   2.48877796784555     -0.68766529589847     -1.23089084354402
  H   2.23371134538615      0.81364991781926     -0.62230518451999
