14
Coordinates from ORCA-job run
  C   -0.55124383568577      0.12958020726893     -0.18830708667213
  C   0.82736630113455     -0.53661250835892     -0.07718360766535
  Cl  -1.25855545846910     -0.24203032167624     -1.79334694976561
  H   1.13508383030815     -0.44819204656887      0.97628737634372
  H   0.68366481035215     -1.59824254719370     -0.29408067207215
  C   -0.38284780876635      1.58044929404970     -0.08841578037306
  N   -0.20622191351606      2.73354347547970      0.05077026611126
  C   -1.50154156281532     -0.37209759295918      0.89211681277099
  H   -1.60485886074503     -1.45584855752513      0.80837041009211
  H   -2.48581536412398      0.08238817813495      0.77849879704304
  H   -1.10843856947390     -0.12305012570801      1.88086057264913
  N   1.76360858857150      0.02870771184639     -1.02627077841460
  H   2.20680085838205      0.85658301012569     -0.65060913953771
  H   2.48299898484710     -0.63717817691532     -1.26869022050964
