14
Coordinates from ORCA-job run
  C   -0.64570345384655      0.13170817810427     -0.35419762004740
  C   0.72041100149320     -0.49831411080857     -0.66829335018903
  Cl  -1.77132359710730     -0.32190825456112     -1.68138639701833
  H   0.99741651926925     -0.22434669433242     -1.69422463610722
  H   0.58625656063412     -1.58293873841885     -0.63885987159921
  C   -0.50254756760528      1.58881756340465     -0.36064903820024
  N   -0.32914112348166      2.75071301776829     -0.34495246703179
  C   -1.21347854392303     -0.34732672560459      0.97252360005610
  H   -0.50752368941154     -0.10122968209897      1.76562139190194
  H   -2.17718573140116      0.12251993062752      1.17153215410296
  H   -1.35033226043424     -1.43003353917454      0.93311967382840
  N   1.67767309636252     -0.09702588855969      0.35068625514360
  H   2.41602842547151     -0.78185840807681      0.43652217542134
  H   2.10045036398016      0.79122335173084      0.11255812973888
