14
Coordinates from ORCA-job run
  C   -0.64366084612387      0.13837701607297     -0.35450123979849
  C   0.72414580575681     -0.48856829117603     -0.68395640829799
  Cl  -1.79036196042822     -0.33923844101184     -1.66384620328341
  H   0.99144041816307     -0.19139793303024     -1.70496974326209
  H   0.58733616652487     -1.57192153246248     -0.68988388554930
  C   -0.52131631302238      1.59806106603000     -0.38256222146253
  N   -0.39276099183237      2.76501861135591     -0.39122592337712
  C   -1.19636102652993     -0.32561681562705      0.98292630794383
  H   -1.32574062219471     -1.40958726689566      0.96398513905880
  H   -0.48437019416135     -0.05427001017106      1.76154842207896
  H   -2.16077587600682      0.14408349602354      1.17966332866320
  N   1.69051344640370     -0.10430091126290      0.31827599813218
  H   2.23097171172543      0.70072360600423      0.05713883154920
  H   2.29094028172577     -0.86036259384940      0.60840759760475
