17
Coordinates from ORCA-job run
  C   0.90221932130635     -0.01616125464288     -0.03217949989384
  C   -0.55358136168279      0.10983457211635     -0.50680983093472
  Br  1.93847199306993      1.65184718845452     -0.43087158680496
  H   -0.46650040556827      0.09824141635587     -1.60814235098892
  N   0.96941621922243     -0.15254466749441      1.48778491324829
  O   1.62946394669021     -1.08343763292890      1.93505191760832
  O   0.37687286268151      0.69075682734292      2.14121258361548
  N   1.47861702512875     -1.16745482413578     -0.60182047696160
  H   1.63853771882591     -1.03089872847130     -1.59139677525739
  H   2.33612480622616     -1.43345786964529     -0.13495413949020
  C   -1.33550410834876      1.35330730531087     -0.11670552007130
  H   -2.27971972661693      1.34906887429261     -0.66950553140104
  H   -0.80185270809637      2.26736698308348     -0.37102633511402
  H   -1.55205350280441      1.35036774241503      0.94919268697832
  N   -1.21512833038079     -1.06579944177308      0.04205089156803
  H   -0.85076432810462     -1.90948534966272     -0.38013541391115
  H   -2.21361942154833     -1.01255114061727     -0.11174553218930
