17
Coordinates from ORCA-job run
  C   0.87276733387777     -0.18131583163708      0.05786449659043
  C   -0.41743591732185      0.36737739294077     -0.55768154220746
  Br  2.28968831100248     -0.18459483013798     -1.42700172090601
  H   -0.16923689739747      1.31162753043475     -1.05123270418037
  N   1.49265210401021      0.78797231152292      1.05111415113254
  O   2.15918185896620      0.29541245452821      1.95322020940209
  O   1.29989313698080      1.98263369197329      0.85883278646933
  N   0.67325111267817     -1.40246521147754      0.66529596231260
  H   0.15125283606381     -2.01097897235262      0.04583321464380
  H   1.50620138032384     -1.82111124639613      1.05268921003601
  C   -1.46894667047843      0.61385891767276      0.51776894907492
  H   -2.36296122821851      1.04000667162745      0.05359252168648
  H   -1.73658509775128     -0.32147615513944      1.00977282419775
  H   -1.11801307806534      1.32518483321883      1.26467245953377
  N   -0.90120695437569     -0.66714905918007     -1.47281995733242
  H   -0.39018041209774     -0.62507776959093     -2.34666023860307
  H   -1.88032181819697     -0.50890472800718     -1.67526062185040
