17
Coordinates from ORCA-job run
  C   0.83573724044929     -0.25084095980384     -0.13116137913256
  C   -0.46789215805910      0.42062528756394     -0.61530509543339
  Br  2.09740328320928     -0.46568978739750     -1.59624074034431
  H   -0.17925404215785      1.37905248604465     -1.05192042438016
  N   1.52430471400151      0.75174401655958      0.84315106231439
  O   1.75905737020628      0.34219776363853      1.97681850423898
  O   1.72442753957830      1.88520486728277      0.42752278781564
  N   0.60132583794252     -1.51261024921437      0.45512972452549
  H   1.46772766744490     -1.99166788081147      0.66617346338840
  H   0.08017734613189     -1.40424221643138      1.31753315853528
  C   -1.40054550956337      0.66851828139149      0.56810004704674
  H   -2.24915553822763      1.25285069740528      0.21261163303739
  H   -1.79859937796323     -0.27366303228629      0.95549147865625
  H   -0.92173347068737      1.21522166602982      1.38341990867062
  N   -1.17106199048287     -0.34928756190621     -1.61970179488832
  H   -1.25553923035886     -1.30950645540977     -1.30397371743612
  H   -0.64637968146369     -0.35890692265523     -2.48564861661433
