17
Coordinates from ORCA-job run
  C   0.87444534536256     -0.16247262471441      0.08165987875597
  C   -0.40992584146065      0.35988349070709     -0.56818541412834
  Br  2.33223902989180     -0.12761390870680     -1.36406194151713
  H   -0.16844670301160      1.31058112003357     -1.05259355769821
  N   1.44540396879009      0.81622497929468      1.09489051474148
  O   1.23120642239215      2.00709897448901      0.90214475825286
  O   2.09835964468679      0.33469503300513      2.01272440630128
  N   0.68603482661180     -1.38998460519518      0.67861256310012
  H   1.51544022311415     -1.79093054129589      1.09130500294296
  H   0.19406747731135     -2.00842295981129      0.04478129311916
  C   -1.49642133174601      0.58054250744129      0.47769625541192
  H   -1.75548561431060     -0.36102077278039      0.96231197798434
  H   -1.18303677861376      1.29987456115962      1.23355460909014
  H   -2.38710976583240      0.98554726987219     -0.01112724075742
  N   -0.84525314346623     -0.68269530788144     -1.49866793295919
  H   -1.82150539858120     -0.54449002958821     -1.72816797414214
  H   -0.31101236113822     -0.62681718602896     -2.35787719849780
