17
Coordinates from ORCA-job run
  C   0.77331161899232     -0.04417047504526      0.29217770060959
  C   -0.70964874905485     -0.09590561854118     -0.10394072843943
  Br  1.21916568076062      1.71518466178983      1.12959701370404
  H   -0.87351322883002     -1.16654025882931     -0.30613773612671
  N   1.08029524170262     -1.05802572041232      1.40314795481378
  O   2.25798929728487     -1.34835156465460      1.56714854718937
  O   0.13826518075661     -1.50465865909279      2.04846179162988
  N   1.62248142746648     -0.39886902838336     -0.77367000415315
  H   2.57045772478044     -0.52632923723175     -0.43837562782728
  H   1.61281310033295      0.31154263342559     -1.49298624305479
  C   -0.93975274325806      0.68375617697433     -1.39274009699082
  H   -0.41231298974248      0.23937610277273     -2.23707213157121
  H   -0.64216401832865      1.72680694726185     -1.26630337705112
  H   -2.00482316430372      0.66581738961778     -1.63680303596314
  N   -1.57431428427851      0.44122434585311      0.92778261389906
  H   -1.60755072646059     -0.18618476009951      1.71929489392481
  H   -2.51069936782003      0.54532706459484      0.55941846540712
