17
Coordinates from ORCA-job run
  C   0.71109433951436     -0.13990310997595      0.27919098256012
  C   -0.73744841824774     -0.13224913287484     -0.26291133651342
  Br  0.84765860606799      1.14722624985951      1.84000846438060
  H   -0.77719926341675     -1.03178644026097     -0.88810467317413
  N   1.07387624209084     -1.48470766777724      0.91922656000225
  O   0.16013831289693     -2.25518494824019      1.19180514350540
  O   2.26527340518389     -1.69260337403216      1.11015464517174
  N   1.67291142276944      0.06906015127759     -0.71252619376134
  H   2.61002407575362     -0.08595244158508     -0.36038513966834
  H   1.59583017006648      0.98613871986202     -1.12843220515476
  C   -0.96052356865885      1.08841832621329     -1.14911971644414
  H   -0.34527932119211      1.06469365598431     -2.04936291684545
  H   -2.00725427085614      1.08965184533745     -1.45340739615682
  H   -0.76531195566247      2.01439539012035     -0.60030718873623
  N   -1.81284688454125     -0.21912226500062      0.69662601992580
  H   -1.83701790140612      0.60977636423262      1.27716643396095
  H   -1.69492499036213     -1.02785132314010      1.29037851694778
