17
Coordinates from ORCA-job run
  C   0.81853795395733     -0.20963516566065      0.03366864211376
  C   -0.41117348303773      0.45371482736804     -0.61878581363928
  Br  2.27712250514837     -0.32944165851809     -1.37871279527997
  H   -0.05760404965254      1.37206500187638     -1.08971432404052
  N   1.45522163876055      0.70914799810643      1.06952070827032
  O   1.96429073464921      0.17665227373525      2.04981591665500
  O   1.42935230120836      1.90898557397078      0.82872349682418
  N   0.52874820357518     -1.42682401114754      0.64521919861445
  H   1.30606858230721     -1.78566866211862      1.18403100408720
  H   0.20715061803939     -2.10759855587681     -0.02817621684535
  C   -1.45182678416280      0.79559619323469      0.44156655588484
  H   -1.06421843428569      1.49629469293510      1.18078438766653
  H   -1.78730642456331     -0.10590518227401      0.95821896383302
  H   -2.30516195341419      1.25716087809973     -0.05723226088578
  N   -1.03210991389379     -0.36782412012163     -1.63828489685370
  H   -0.37118210352389     -0.66669772403234     -2.34361675542850
  H   -1.50490939111165     -1.16902235957673     -1.24002581097621
