17
Coordinates from ORCA-job run
  C   0.86177497889416     -0.03409683382238      0.04298218917623
  C   -0.66950909108324     -0.03601880050774     -0.01632620153476
  Br  1.57046904824790      1.73841387408630      0.37131792921001
  H   -0.92250830710076     -1.08405748003522     -0.21949564555763
  N   1.21660588994277     -0.93643640958722      1.26963041681639
  O   0.94714870921231     -2.11851416372114      1.06332147262137
  O   1.70013197893476     -0.47294762429433      2.28578067715476
  N   1.42928446143935     -0.54396944550309     -1.15289399222492
  H   1.14986662090632     -1.51251885393846     -1.26626818680546
  H   2.44008852720609     -0.48159098137126     -1.14336333065136
  C   -1.20649368398725      0.83288508940404     -1.14799350766454
  H   -2.28280754764601      0.66772015330254     -1.24503930410503
  H   -1.04361878858227      1.89030491410781     -0.93028176543302
  H   -0.72556367447822      0.59637160387764     -2.09786159110279
  N   -1.17971130472065      0.26142541451744      1.31267290085321
  H   -1.13693192071959      1.25903361448405      1.48849628070588
  H   -2.14722589646567     -0.02600407099898      1.38432165854167
