17
Coordinates from ORCA-job run
  C   0.96266729956173     -0.04213649839495     -0.11713727459081
  C   -0.49781875251777      0.14657536543032     -0.56534567203209
  Br  2.06514518900889      1.53478888486617     -0.43373775140118
  H   -0.41689484191166      0.06662911363282     -1.65427658734229
  N   1.03079557111862     -0.23561176589689      1.43104355322835
  O   0.16171960362669      0.28492519895437      2.12297760694177
  O   1.96716780537435     -0.90532795082485      1.84812606159113
  N   1.52066735947397     -1.14418339376134     -0.78892825096537
  H   0.87546232389841     -1.92150863232064     -0.68047093410364
  H   2.42838055034793     -1.38374001269555     -0.41030421891647
  C   -1.19629954966482      1.46176889001867     -0.23922786735601
  H   -2.19806262603478      1.42758380446451     -0.67639278821415
  H   -0.67312813728545      2.31544126981893     -0.67051420926558
  H   -1.28834561045459      1.61149927497570      0.83453926851211
  N   -1.19520738371304     -1.05606656722279     -0.09638535168703
  H   -1.59036541829343     -0.88210273412387      0.82101285966013
  H   -1.95588338253504     -1.28053424692060     -0.72497844405887
