17
Coordinates from ORCA-job run
  C   0.89525843056109     -0.11516151627279     -0.02678906068939
  C   -0.53760175826126      0.15175359848165     -0.51292916732071
  Br  2.10708162723478      1.41590403736148     -0.47475215216004
  H   -0.45073807750222      0.09247695456410     -1.61272107017197
  N   0.94455279637906     -0.20699129395598      1.49737338555495
  O   0.44584837791594      0.71690499116039      2.11935126810283
  O   1.49858689403629     -1.18854724735049      1.97871406316412
  N   1.34384752825501     -1.34101801946357     -0.55464868887212
  H   2.16743541232720     -1.68196243069466     -0.07555824735657
  H   1.51870811411741     -1.25587569991907     -1.54750853496641
  C   -1.17992239203563      1.48572039616216     -0.16990270018197
  H   -1.39471457938629      1.54464988539875      0.89472981481986
  H   -2.11944453319659      1.56378941041825     -0.72519996854157
  H   -0.55065227062657      2.32693196433324     -0.45518881613042
  N   -1.32400730456912     -0.92533101225158      0.07251372205894
  H   -2.31054114171068     -0.76871115271285     -0.08788562012654
  H   -1.05369712353842     -1.81753286525903     -0.31959822718298
