17
Coordinates from ORCA-job run
  C   0.87136969922550      0.00054851298406      0.01179366535400
  C   -0.66433328662896     -0.00715775489746     -0.05501010327982
  Br  1.59982151646527      1.77370764670759      0.19618765618211
  H   -0.91523412983954     -1.04236511359743     -0.32653933188656
  N   1.22154201293848     -0.80575125527282      1.30564047489670
  O   0.77389758682117     -1.95429157118188      1.27008872831885
  O   1.88569657982058     -0.32614325231518      2.20715888085182
  N   1.43416648036916     -0.62368416118986     -1.13247962314850
  H   1.14004697344731     -1.59327302854961     -1.17362318950985
  H   2.44493230187760     -0.56654931137004     -1.13816511392734
  C   -1.18540623040267      0.91679704753951     -1.14282683683803
  H   -1.09623678271588      1.95873808386272     -0.83066319409772
  H   -2.24010468174056      0.69762527825725     -1.32894062435822
  H   -0.62856720820966      0.78036395109523     -2.06947688024354
  N   -1.19478474014372      0.35010827323994      1.25041857677911
  H   -2.02807250702479      0.91431075305513      1.16196360874164
  H   -1.41873358425927     -0.47298409836716      1.79347330616534
