17
Coordinates from ORCA-job run
  C   0.84316793627896     -0.14638613940363     -0.02426116463154
  C   -0.56219225427626      0.18773655561710     -0.57542183214977
  Br  2.10796134206840      1.39933216160625     -0.27715164900855
  H   -0.41507159343688      0.14104989979268     -1.66361380831905
  N   0.85941368257018     -0.36009299518205      1.48771859537001
  O   0.01756827580104      0.22891985397508      2.15443306894581
  O   1.73361068713033     -1.09759036883673      1.92784860133481
  N   1.31263726415378     -1.34037723726004     -0.59858241706469
  H   2.17809624393968     -1.65058822491111     -0.17468954906225
  H   1.42204262594466     -1.24051588839900     -1.59940011147769
  C   -1.14445703268873      1.55748348419243     -0.25983000994474
  H   -0.51322837033419      2.36212477072837     -0.63197754997240
  H   -1.28893098553433      1.69222733595929      0.81059729766066
  H   -2.11522507197946      1.61607926285378     -0.75489242803640
  N   -1.52086520259676     -0.84521738138324     -0.22210539245055
  H   -1.11297495504578     -1.76382300238165     -0.34591723790358
  H   -1.80155259199466     -0.73936208696753      0.74524558670991
