17
Coordinates from ORCA-job run
  C   0.99518810687842     -0.01176891937556     -0.16781973293212
  C   -0.48065785338712      0.12510295190598     -0.60377085412915
  Br  2.05820616168737      1.52263461010505     -0.71586146290582
  H   -0.41083429958112      0.16143946155126     -1.69546180050103
  N   1.01158027847216     -0.01136982690130      1.39960058383054
  O   1.16599512409971     -1.11095468900519      1.92611632284464
  O   0.80486880432050      1.04294795705732      1.98756597161315
  N   1.53940827324197     -1.17945944770313     -0.71191037307992
  H   2.46301171266958     -1.38128828087075     -0.35353387806201
  H   0.89683915403605     -1.94304013440909     -0.52980218812497
  C   -1.22147648045591      1.35879079924052     -0.10387068649652
  H   -1.38614030589753      1.31280217785961      0.97395919803234
  H   -0.68751767574292      2.28297002094271     -0.32373862011022
  H   -2.19605069236893      1.39567316316433     -0.59722859727755
  N   -1.13228626666727     -1.13920286500125     -0.25154412329786
  H   -1.54452300733605     -1.08099927107019      0.67291082007867
  H   -1.87461103396892     -1.34327770749031     -0.90761057948217
