17
Coordinates from ORCA-job run
  C   0.92123367549077     -0.22267833192091     -0.10093141389392
  C   -0.36952750266744      0.36463274109225     -0.67837039110022
  Br  2.31048298533151     -0.36022096926627     -1.44227296404883
  H   -0.10439086751227      1.32382706112324     -1.12912804460825
  N   1.45402323670956      0.82270686248847      0.92850104161088
  O   1.59959683641712      1.97141277585319      0.53435958556671
  O   1.64084465607868      0.42044307749809      2.07334999112727
  N   0.70890246410020     -1.49476547529056      0.48137461092192
  H   0.19438531518524     -1.39729168923128      1.34921442116635
  H   1.58644130310832     -1.95495150703083      0.68723490596969
  C   -1.39433877591400      0.60472380256501      0.43792161169648
  H   -1.02583509056787      1.26305856668245      1.22901230873916
  H   -1.72097980499818     -0.34053785790096      0.88013624899863
  H   -2.27726062159218      1.08031234277911      0.00448651633180
  N   -0.82265633610391     -0.52184361086549     -1.73426893579575
  H   -1.64459276642048     -0.13404690302725     -2.17990806830806
  H   -1.05732870664505     -1.42578088554826     -1.34171142437387
