17
Coordinates from ORCA-job run
  C   0.91219845675006     -0.02313265847098     -0.22256781537595
  C   -0.57318910316383      0.19319472869513     -0.63836222856231
  Br  2.04323766695636      1.35637690550420     -0.97041245473708
  H   -0.51084005452578      0.39241401294236     -1.71257319372283
  N   0.95014565035475      0.10245354332799      1.32646671617973
  O   0.55879259871253     -0.91661030065727      1.90207743346713
  O   1.24090610652419      1.15816291157325      1.86688035174785
  N   1.38580588937554     -1.28754225873995     -0.65873221712595
  H   2.38936041904831     -1.36310163362560     -0.54566198188497
  H   0.93528287030757     -2.01501534097049     -0.11669211438784
  C   -1.21228893118409      1.38058921890621      0.06542478677917
  H   -0.59901479986961      2.27926331416477     -0.00118195610742
  H   -1.38379550777390      1.16032462598056      1.12295998337524
  H   -2.18172936510902      1.57136280130726     -0.39489844197998
  N   -1.41042204326915     -0.97543814365067     -0.47056998572957
  H   -1.45028960760551     -1.27093609306065      0.49732310018154
  H   -1.09516024552841     -1.74236563322611     -1.04947998211677
