17
Coordinates from ORCA-job run
  C   0.79628301648625     -0.04696145404287      0.18835699011442
  C   -0.69555236841551      0.02674988429188     -0.22738799248508
  Br  1.30452212223443      1.40679945379358      1.35917835823336
  H   -0.81729731035758     -0.82434586388515     -0.91138518324616
  N   0.90388548081067     -1.37560244848503      1.00595775929334
  O   0.86990700976860     -1.36989679292044      2.22752309189310
  O   0.92225072694714     -2.37634045767261      0.28932656512244
  N   1.64825652486419     -0.05782481420429     -0.93903050842226
  H   2.62630000826844     -0.07872629621549     -0.67808788158521
  H   1.43376404644440     -0.85659787987065     -1.52472403815726
  C   -0.99324265078298      1.31380423515082     -0.98197074257095
  H   -1.98497257601735      1.22850053730051     -1.42792235223165
  H   -0.25288058476498      1.50181417290965     -1.75857300203407
  H   -1.00260434430199      2.16427910605909     -0.29730559276394
  N   -1.65078600804906     -0.14804542173890      0.84311668492147
  H   -1.58953065044730     -1.06149685864491      1.27346793186869
  H   -1.51830244268736      0.55489089817480      1.56045991204976
