17
Coordinates from ORCA-job run
  C   0.89239147405510     -0.13199723446536     -0.03138393533665
  C   -0.53777592496638      0.16142327087603     -0.50997397823687
  Br  2.13039645055557      1.37527389711683     -0.48927461317722
  H   -0.45825876110406      0.09880098825933     -1.61013196185846
  N   0.94870417907153     -0.22254918098590      1.49220178767013
  O   1.48387234662926     -1.21528428770049      1.97207332062570
  O   0.47414824262841      0.71321561017455      2.11553037229034
  N   1.31467738256840     -1.36687034419489     -0.56028293238392
  H   2.13510346515603     -1.72201787970526     -0.08610014575341
  H   1.48471201419642     -1.28609625570220     -1.55434653515058
  C   -1.15242207078800      1.50792426008412     -0.16570129034461
  H   -0.51125551735330      2.33638990498035     -0.46173446220139
  H   -1.35498167286578      1.57523980363758      0.90079259230833
  H   -2.09630105646999      1.60067402322859     -0.71129831162666
  N   -1.34111019319797     -0.89935749871756      0.08242570547801
  H   -1.08767281917891     -1.79767023410069     -0.30707253909827
  H   -2.32522753893632     -0.72609884278503     -0.07572307320446
