17
Coordinates from ORCA-job run
  C   0.96241046165771     -0.02870440988615     -0.11282404010488
  C   -0.50827349015092      0.18723801813001     -0.60720273642826
  Br  2.09750254445780      1.35961472632660     -0.84796578580334
  H   -0.40535769706596      0.35307490842274     -1.68546788235424
  N   0.92264976378033      0.08140294962822      1.40841644028666
  O   1.22477978613576      1.12326447141734      1.96822575612786
  O   0.46716661989421     -0.92576055436541      1.95470117095114
  N   1.57829119657014     -1.28783893674686     -0.39931717058288
  H   1.00738420881443     -2.04323594750299     -0.04239851428329
  H   1.73240827187906     -1.39072145764396     -1.39371742457768
  C   -1.16368939738683      1.40526432768232      0.02917009620201
  H   -1.37129361408389      1.22077800789293      1.08724565132105
  H   -2.11620685699124      1.58597560147098     -0.46913201684940
  H   -0.54171330932606      2.29668245078297     -0.04615167534071
  N   -1.37507514364814     -0.95972668349383     -0.43177048615911
  H   -1.05437430431047     -1.76151909492862     -0.95782290591338
  H   -1.45460904022594     -1.21578837718629      0.54501152350842
