17
Coordinates from ORCA-job run
  C   0.78368157227020      0.06290076677972      0.37431217648020
  C   -0.60632330891051     -0.15104787739555     -0.28540447349173
  Br  0.73806446620362      1.53114835970142      1.63277649820736
  H   -0.43135279956896     -0.98562148545612     -0.97699168380338
  N   1.06278792604916     -1.24751091444689      1.12584968203871
  O   0.94031286149447     -1.31752877872388      2.33899303373193
  O   1.32716277809912     -2.17962056910917      0.36866152319695
  N   1.90389163811099      0.24886390758378     -0.49825411297447
  H   1.87386951614322     -0.42702591149128     -1.25278666182069
  H   1.92203042326861      1.18934704695662     -0.86637287334894
  C   -1.04695299066255      1.06391152147231     -1.08756238553311
  H   -0.27617769861814      1.40039211436401     -1.78320154892758
  H   -1.30660358818998      1.89365834617311     -0.42755864913482
  H   -1.93609900449360      0.79274873135236     -1.65758503388295
  N   -1.66804608903958     -0.55418443154769      0.61118038122094
  H   -1.48467222748532     -1.45256590351724      1.03964206752178
  H   -1.79657347467075      0.13113507730450      1.34630206051981
