17
Coordinates from ORCA-job run
  C   0.82790551582527     -0.16963458806563      0.02502711920659
  C   -0.43771997016584      0.44191839088123     -0.60869253345313
  Br  2.28042561413091     -0.19568443275113     -1.39872948836056
  H   -0.13321796429856      1.38361340406812     -1.06760696061972
  N   1.42710513004135      0.76401407047672      1.07035331710169
  O   1.97196778731412      0.24261343244560      2.03718299982731
  O   1.33857192629765      1.96461130724027      0.84930423508254
  N   0.60346466999219     -1.40838446401920      0.62026277517508
  H   0.30803059700972     -2.09341194496971     -0.06082845821993
  H   1.40258620085473     -1.73786097725934      1.14577977647836
  C   -1.48589093222213      0.71608058662752      0.46393931684747
  H   -1.12795061701794      1.42461635395668      1.21062629648567
  H   -2.36496417865335      1.14143640615350     -0.02221041392259
  H   -1.77196709866338     -0.20831732066387      0.96972054212544
  N   -1.02533900390559     -0.39353865408854     -1.63671103122543
  H   -0.35557135767026     -0.64917510093896     -2.35067971495567
  H   -1.45543631886890     -1.22289646909327     -1.24773777757315
