17
Coordinates from ORCA-job run
  C   0.84859619190964     -0.19739233448168     -0.14080602535737
  C   -0.49726756279066      0.40105964338620     -0.60538788902082
  Br  2.10938034948454     -0.31082365541311     -1.61823567785439
  H   -0.27088439527239      1.38191241155252     -1.02883367778231
  N   1.48118895292512      0.82881549054835      0.84571634080748
  O   1.74254853684706      0.41720876991737      1.97281846086800
  O   1.61353269107960      1.97782657144370      0.44618228924018
  N   0.69551891075363     -1.48116234103923      0.42499447063161
  H   1.59136469866236     -1.91030422819422      0.62025068718380
  H   0.17862944241128     -1.41784354697952      1.29451715536931
  C   -1.43392807467562      0.57416116364422      0.58823797126401
  H   -2.32049265227508      1.10813471110041      0.24650072684939
  H   -1.76794808759779     -0.39609647746003      0.96662453547947
  H   -0.98358104394197      1.14023468835123      1.40652616649557
  N   -1.16001940609130     -0.39464983634168     -1.61690937792276
  H   -1.18415975307132     -1.36289573138740     -1.31575750795794
  H   -0.64247879835711     -0.35918529864713     -2.48643864829325
