17
Coordinates from ORCA-job run
  C   0.99803268563467     -0.07815029555513     -0.05114638554427
  C   -0.42499168175111      0.11906943899440     -0.62769357022093
  Br  2.17816762430150      1.33816165002061     -0.74466818775431
  H   -0.25733395088988      0.33434435363283     -1.68744208913436
  N   0.87556387074635      0.15006577346541      1.49566466769929
  O   0.17947230051363     -0.70340356017912      2.03906102998557
  O   1.38339738629625      1.11669557754112      2.04143867165129
  N   1.48684204935956     -1.35498139563230     -0.28519848664910
  H   0.86214063889986     -1.91742888677135     -0.84531719216772
  H   2.46991162924892     -1.43668555766204     -0.47841706277340
  C   -1.16235154323883      1.29576038411871      0.00595294184628
  H   -1.43341670962719      1.06967176154683      1.03992603671030
  H   -2.08525729525311      1.48173410493179     -0.54832179021644
  H   -0.56724808431988      2.21100376878930     -0.00820867220845
  N   -1.13329722311327     -1.15706351284447     -0.57891594732733
  H   -1.39754104627033     -1.37117689182110      0.37593239643097
  H   -1.97209065053711     -1.09761671257548     -1.14264636032739
