17
Coordinates from ORCA-job run
  C   1.03094607090936     -0.03297276859070     -0.06128123645989
  C   -0.43728509818087      0.11951776635157     -0.55676104052128
  Br  2.12030118008171      1.40746599383445     -0.76988190549165
  H   -0.33858201223225      0.19310383984868     -1.64676149460799
  N   0.99978071605700      0.07060615129561      1.46722320732215
  O   0.96129439900295     -0.99619875000801      2.07061546747701
  O   0.91801115177079      1.18628755067664      1.96886625292297
  N   1.65904098923718     -1.26904500751211     -0.38243058267984
  H   1.84320510788231     -1.31415754407009     -1.37649505599647
  H   1.02968026197391     -2.01561207718199     -0.10556380276513
  C   -1.17179257780299      1.35044257392556     -0.04378900074790
  H   -2.11619620388581      1.44813568304024     -0.58465691658705
  H   -0.59416918393903      2.26369853401087     -0.17837810869568
  H   -1.39416924983760      1.25155467109342      1.02118798798725
  N   -1.13071630214566     -1.11643793638471     -0.20413798554596
  H   -1.91771204184828     -0.94021169281803      0.40460428089344
  H   -1.46063720704272     -1.60717698751140     -1.02236006650397
