17
Coordinates from ORCA-job run
  C   0.86276831167358     -0.10654207875910      0.06968936335231
  C   -0.68616276514425      0.00260069581556      0.01015090160979
  Br  1.67683098895219      1.64048249482381      0.23736845320675
  H   -1.00888719910070     -1.04125783429819     -0.09850488419004
  N   1.14523251095397     -0.92728866853832      1.33640718977534
  O   0.86529680966242     -2.11698182702912      1.20148418553476
  O   1.52258401844484     -0.38776721993497      2.36505415853151
  N   1.51426494868017     -0.80879374135668     -0.99482197303712
  H   1.02714184217413     -1.67626626724482     -1.18800478394021
  H   1.56137787042167     -0.23745827837601     -1.82660295013456
  C   -1.15320649582387      0.78619994311580     -1.20724335344054
  H   -0.91256166758090      1.84603557295954     -1.10558749625680
  H   -2.23686396835160      0.68926784459906     -1.28004572234237
  H   -0.70785280915136      0.41537944282223     -2.13207053756887
  N   -1.32328533385247      0.52654730001948      1.19880395631891
  H   -0.98170825082971      1.45752829903345      1.40663437933892
  H   -1.16396881112809     -0.05968567765172      2.00828911324222
