17
Coordinates from ORCA-job run
  C   1.00106528031435     -0.03021336513908     -0.19549609431305
  C   -0.47848361720764      0.12557028062482     -0.61929296567051
  Br  2.07855921095300      1.45607713736953     -0.84570844085583
  H   -0.42329938745250      0.22934186922452     -1.70716392401404
  N   1.01012579440376      0.05745824256093      1.37131493160292
  O   1.08831553952059      1.14653584367306      1.92210519913920
  O   0.83711803295431     -1.02393265564936      1.93285138092908
  N   1.51329784804989     -1.23506443420482     -0.67664110477108
  H   2.42779900277101     -1.45923404369560     -0.31022167730813
  H   0.83402943662682     -1.97003323850801     -0.51394116074491
  C   -1.17879728606557      1.34129529242202     -0.02343175473128
  H   -1.32904761394440      1.21990977681881      1.05222446225498
  H   -0.62153710120660      2.26418712786750     -0.18454075854309
  H   -2.16152430180490      1.44282003535152     -0.48991351250816
  N   -1.15242742491707     -1.14330791919584     -0.34104453301281
  H   -1.92952369046517     -1.26736091979629     -0.97661127289448
  H   -1.51466972252987     -1.15504902972370      0.60551122544118
