17
Coordinates from ORCA-job run
  C   0.94634833324834     -0.14844675617521     -0.05126006524563
  C   -0.39280129999597      0.41708312917435     -0.61076341105067
  Br  2.28697866610581     -0.08654269106285     -1.48035182358066
  H   -0.15726171076476      1.39476007843047     -1.03994194441478
  N   1.38497267119560      0.82799897781566      1.03598914349042
  O   1.33829146025627      0.42434985852258      2.19495329238945
  O   1.63899933564105      1.97130914575037      0.68058126008665
  N   0.95262638342783     -1.45278307293922      0.50178595566900
  H   0.49387922600837     -1.48256405052848      1.40214747909497
  H   0.56684445542800     -2.12454300085949     -0.14638793004903
  C   -1.40706765826115      0.59467234956412      0.51242913884348
  H   -1.07671657743598      1.31133979252470      1.26507820939617
  H   -2.33699928341778      0.95905854494531      0.07501556805586
  H   -1.61797306725351     -0.35683939963300      1.00980326745088
  N   -0.98015496068779     -0.39975053734616     -1.64994035742456
  H   -1.30669407376194     -1.28675377358267     -1.28707236605243
  H   -0.33327189973239     -0.56234859460050     -2.41106541665912
