17
Coordinates from ORCA-job run
  C   0.99242184957016     -0.05893383379605     -0.11922741035131
  C   -0.47236049040844      0.08285760964315     -0.59850436137229
  Br  2.08435054760782      1.35125157881815     -0.95504184734480
  H   -0.38590222943344      0.25619520157441     -1.67558010734938
  N   0.97787144060585      0.23077693598641      1.42090513857022
  O   0.33652620622035     -0.60850422213676      2.04737090570806
  O   1.51135382562546      1.22344948384214      1.88999216395153
  N   1.49596094126539     -1.33505381913597     -0.33485562908939
  H   2.46168973248067     -1.39722363301695     -0.60769450797552
  H   0.84653469604031     -1.92996961392007     -0.82999154857711
  C   -1.19083342483972      1.27008594831574      0.03739179153733
  H   -1.38227609373331      1.08335548783058      1.09666056288490
  H   -0.62049139964341      2.19619910361603     -0.05808287382559
  H   -2.15481490724901      1.41257389078840     -0.45659271992791
  N   -1.14425785930365     -1.20473586053553     -0.44628906590962
  H   -2.02495840964504     -1.18544198630157     -0.94523486250397
  H   -1.32981442516000     -1.38488227157211      0.53377437157486
