17
Coordinates from ORCA-job run
  C   0.83922393587396     -0.16532503041404     -0.03537386033200
  C   -0.56585475807319      0.19871691946554     -0.56813807389450
  Br  2.13426308130645      1.35053111184454     -0.31489966233977
  H   -0.43449997566565      0.14548415569265     -1.65805547302127
  N   0.87314431222425     -0.37300403842794      1.47726464145558
  O   1.74039221631935     -1.12415569331181      1.90783213421578
  O   0.05142974589225      0.23360561633719      2.15318988626948
  N   1.27332511136840     -1.37205255871830     -0.61073677579921
  H   1.37074948733435     -1.27959974283001     -1.61348965747651
  H   2.13734850105754     -1.70000884162935     -0.19736696654529
  C   -1.11349758210981      1.58176319546347     -0.24890385498978
  H   -0.46809168882635      2.37163565174725     -0.62831657285561
  H   -2.08772335327206      1.66176819806228     -0.73406298367992
  H   -1.24420669417734      1.72099836994351      0.82273870653990
  N   -1.54283132320898     -0.81155235632376     -0.19883625392794
  H   -1.15700761450894     -1.73917765824730     -0.32636063321225
  H   -1.80616340153422     -0.69762729865392      0.77251539959330
