17
Coordinates from ORCA-job run
  C   0.96346968482202     -0.02602887945326     -0.10942817609298
  C   -0.50619281737644      0.18243836807578     -0.61062538550413
  Br  2.09593469511792      1.36387605650996     -0.84718589934124
  H   -0.39937952776313      0.34513259909323     -1.68903419697872
  N   0.91731046337248      0.09064563776341      1.41087783825534
  O   1.20834814420935      1.13797775348656      1.96622015433065
  O   0.46580984602291     -0.91691852176032      1.95959695838647
  N   1.58519020135266     -1.28368099345986     -0.38881299674429
  H   1.02019273408671     -2.03986504544943     -0.02425774194481
  H   1.73729721200125     -1.39283143759513     -1.38285080549184
  C   -1.16911200649469      1.40059675612848      0.01744877846500
  H   -1.37979617314281      1.22089231096726      1.07576255645991
  H   -2.12029141320475      1.57565755837927     -0.48542684938792
  H   -0.55034927107231      2.29403859085874     -0.06001062991741
  N   -1.36961920603969     -0.96664049345192     -0.43372348993805
  H   -1.46105586591507     -1.21041568938929      0.54520797351994
  H   -1.03675669997642     -1.77387457070349     -0.94375808807593
