13
Coordinates from ORCA-job run
  C   -0.73132361813398      0.17267521711576      0.07628659596056
  C   0.71878839778696      0.41969206752030      0.43404636793357
  F   -1.47415107056913      0.49300416438975      1.17740482582289
  H   1.00094018675247     -0.22739816370905      1.26426070698251
  H   0.86130026917934      1.46580142748224      0.70425980110438
  N   -0.99206422289689     -1.31981364594165     -0.15909510116490
  O   -1.81491553232191     -1.61206676461652     -1.01303595318499
  O   -0.39895328951827     -2.07170280508920      0.60185265657757
  C   -1.19340709420623      0.94449706978302     -1.07547893790989
  N   -1.54463499679714      1.64774524719473     -1.94839884142941
  N   1.62934576373519      0.11186752979124     -0.70555296927538
  O   1.16225523414991     -0.55090558898047     -1.63004009199174
  O   2.77581997283966      0.52560424505985     -0.60550905942517
