13
Coordinates from ORCA-job run
  C   -0.58419238831455      0.21850768134476      0.12927769597456
  C   0.71028123655726      0.55803907374305     -0.58235067411190
  F   -0.42807613894173      0.28361023862858      1.46663726892215
  H   0.61694986427973      0.36689223613635     -1.65129725535127
  H   0.97760717337300      1.59734131696685     -0.39704142694652
  N   -1.05307852728255     -1.20520660119322     -0.23894272519315
  O   -1.10089527624333     -1.41478500682031     -1.44166422685503
  O   -1.35730597254474     -1.94082676485031      0.67827728654970
  C   -1.64933073825344      1.12551748494322     -0.30949585414967
  N   -2.47897342244140      1.87668945207792     -0.66733556133432
  N   1.83707156193183     -0.28081657383580     -0.06831173709500
  O   2.92904297500298      0.26734294327986      0.00941553832274
  O   1.57989965287692     -1.45130548042094      0.19383167126770
