13
Coordinates from ORCA-job run
  C   -0.62019371100974      0.20190253599996      0.06564431127450
  C   0.71678175317053      0.57852147574329     -0.54124152112444
  F   -0.58622970444310      0.31335279253443      1.40852690432291
  H   0.91990007418958      1.63554943168658     -0.37589725878243
  H   0.72801739683180      0.34259738789832     -1.60534078886987
  N   -0.99208683856256     -1.25295089068058     -0.29411789925450
  O   -0.93519425783737     -1.49602119059848     -1.48997766777679
  O   -1.33228937847995     -1.97810664690644      0.61875361748561
  C   -1.68140228040513      1.04466346892492     -0.49376726170660
  N   -2.52126811268208      1.74182829139025     -0.92879122315050
  N   1.82666554878343     -0.18700533369219      0.10574802130644
  O   1.60641904534941     -1.36702617378872      0.35895706157495
  O   2.87188046509518      0.42269485148865      0.29250370470071
