13
Coordinates from ORCA-job run
  C   -0.62411284554791      0.27979616109993     -0.01175035662009
  C   0.80009753974047      0.48592860023528     -0.48793576883050
  F   -0.71864147708179      0.47438396386267      1.31873336547294
  H   0.89689414909425      0.18987346432636     -1.53240562888955
  H   1.09365325002039      1.52574214387275     -0.35148078970995
  N   -1.10501842425399     -1.15213611437146     -0.33107157481296
  O   -1.62133177801750     -1.77603236725419      0.57404171837439
  O   -0.94049169208437     -1.48087767319864     -1.49619561882749
  C   -1.52797457368661      1.18357170646464     -0.72991318432439
  N   -2.22677211801625      1.93014785654672     -1.30869218860563
  N   1.75353915377013     -0.34615757200865      0.30952369962754
  O   1.37666166868276     -1.47071498299047      0.62278283516502
  O   2.84449714738042      0.15647481341505      0.54636349198067
