14

C	0.0	0.0	0.0
C	-0.228026	0.012411	-1.579042
Cl	1.772994	0.0	0.0
H	0.087491	-0.990152	-1.884548
H	0.514057	0.716655	-1.950126
N	-0.435531	1.274546	0.649403
O	-0.527337	1.29169	1.878201
O	-0.431004	2.281445	-0.072728
C	-0.559994	-1.136529	0.697919
N	-0.626827	-2.182635	1.25099
N	-1.473288	0.342368	-2.226098
H	-2.198489	-0.223386	-1.79821
H	-1.70035	1.288884	-1.939214
H	-2.075472	0.0	0.0
