14

C	0.0	0.0	0.0
C	-0.235116	0.197684	-1.567877
Cl	1.7719	0.0	0.0
H	0.044181	-0.775265	-1.986664
H	0.529132	0.914962	-1.865396
N	-0.442403	1.183441	0.796854
O	-0.53513	1.05259	2.018717
O	-0.437502	2.270475	0.201559
C	-0.545091	-1.216898	0.559654
N	-0.62195	-2.318787	0.987437
N	-1.474342	0.645618	-2.158254
H	-1.638853	1.578989	-1.790033
H	-2.217445	0.085024	-1.747882
H	-2.078732	0.0	0.0
