14

C	0.0	0.0	0.0
C	-0.222856	0.267507	-1.556781
Cl	1.773215	0.0	0.0
H	0.502778	1.042367	-1.799704
H	0.119589	-0.662194	-2.024634
N	-0.485697	1.118791	0.847845
O	-0.565541	0.923743	2.067554
O	-0.483872	2.240451	0.312246
C	-0.494615	-1.267871	0.49505
N	-0.609291	-2.393722	0.833984
N	-1.47606	0.671152	-2.145119
H	-1.700053	1.577667	-1.745695
H	-2.196362	0.057176	-1.780094
H	-2.060559	0.0	0.0
