14

C	0.0	0.0	0.0
C	-0.224089	0.211576	-1.565654
Cl	1.773183	0.0	0.0
H	0.107426	-0.736655	-2.000859
H	0.508107	0.970592	-1.834513
N	-0.495732	1.14075	0.804709
O	-0.564481	0.991628	2.032855
O	-0.495715	2.246052	0.228954
C	-0.47951	-1.257386	0.539034
N	-0.595978	-2.372921	0.908426
N	-1.474343	0.609443	-2.163372
H	-1.687612	1.526419	-1.782765
H	-2.200284	0.009404	-1.786061
H	-2.051765	0.0	0.0
