14

C	0.0	0.0	0.0
C	-0.226985	0.219908	-1.564369
Cl	1.773363	0.0	0.0
H	0.097522	-0.731192	-2.000044
H	0.509586	0.973458	-1.837381
N	-0.455191	1.165223	0.812862
O	-0.544584	1.014916	2.034123
O	-0.45325	2.262418	0.234103
C	-0.533796	-1.232281	0.538875
N	-0.614059	-2.341742	0.944781
N	-1.475725	0.623169	-2.162434
H	-2.201005	0.0267	-1.777496
H	-1.689421	1.540613	-1.783459
H	-2.071756	0.0	0.0
