14

C	0.0	0.0	0.0
C	-0.407363	0.134297	-1.487604
Cl	1.774625	0.0	0.0
H	0.432941	0.578315	-2.027359
H	-1.262845	0.802521	-1.530466
N	-0.387357	1.252319	0.764588
O	-0.382969	2.30194	0.119945
O	-0.45224	1.17095	1.988042
C	-0.536854	-1.161166	0.687883
N	-0.583319	-2.190487	1.270219
N	-0.657413	-1.200985	-2.016925
H	-0.793707	-1.122935	-3.018954
H	-1.547942	-1.484025	-1.609661
H	-2.238407	0.0	0.0
