14

C	0.0	0.0	0.0
C	-0.386069	0.020421	-1.498713
Cl	1.763246	0.0	0.0
H	-1.323351	0.563396	-1.586729
H	0.401385	0.55143	-2.038179
N	-0.39201	1.319589	0.646141
O	-0.402587	2.303381	-0.094293
O	-0.456059	1.351284	1.871255
C	-0.596211	-1.087036	0.760335
N	-0.619736	-2.078911	1.410542
N	-0.441298	-1.36131	-1.96252
H	-0.579943	-1.355739	-2.965981
H	-1.282168	-1.764152	-1.552398
H	-2.24076	0.0	0.0
