16
Coordinates from ORCA-job run
  C   -0.80497974840232     -0.29021862127753      0.36739426153858
  C   0.69525599106511     -0.02008616959196      0.65341049759050
  Br  -1.79809991941766     -0.05858731499726      2.04942058909828
  H   0.98337213178184     -0.65768015678121      1.49635099048353
  C   -1.40374155789705      0.63766398400428     -0.68436767126652
  H   -1.29532114725881      1.67645145742090     -0.36833723521848
  H   -0.89812153611263      0.49349509047069     -1.64205960518818
  H   -2.46329664687673      0.41748210624766     -0.81660802720720
  C   -0.96155552567515     -1.68775949870595     -0.02752740252035
  N   -1.05771362332580     -2.80599024740005     -0.37839825328537
  C   0.87418401579976      1.37403624354800      1.06358619668295
  N   1.03920286998590      2.50212102901472      1.34522471343160
  C   1.59709188306487     -0.33683731476762     -0.54699106188571
  H   1.39070539878146      0.32621789285426     -1.38779602347693
  H   1.46233191588706     -1.37261244566107     -0.86327079930473
  H   2.64068549860014     -0.19869603437787     -0.25903116947198
