16
Coordinates from ORCA-job run
  C   -0.75500176827787     -0.29644560613811      0.04795740979793
  C   0.63721691846185      0.24628582423503      0.46236710446723
  Br  -1.34547529642760     -1.57095451703071      1.42793717891152
  H   0.51206541184818      0.68145582843368      1.46119828840449
  C   -1.80427568541451      0.80705112501597     -0.05270312047668
  H   -2.78152083173538      0.37942490341167     -0.27816703106516
  H   -1.86450264967270      1.34366299624036      0.89655849542271
  H   -1.53106085392555      1.50621632407965     -0.84630902373683
  C   -0.65113030494620     -1.03062435995569     -1.21005619388510
  N   -0.55275023519271     -1.59277842276835     -2.23822409248678
  C   1.00323344885591      1.32968924913351     -0.45628260281716
  N   1.30576616687566      2.18693945896842     -1.20019895517416
  C   1.74795654895173     -0.80656072671789      0.49046816132120
  H   2.68621297323588     -0.34033306787544      0.79589039725361
  H   1.88805318771943     -1.24482463961764     -0.49938586636897
  H   1.50521296964389     -1.59720436941445      1.19994985043213
