16
Coordinates from ORCA-job run
  C   -0.75218004767310     -0.27894696491776      0.23800650635786
  C   0.79013695473189     -0.23544459475383      0.08662044180629
  Br  -1.30192235271556      0.74035335136956      1.82580602058477
  H   1.01449378190559     -0.89903453107100     -0.76016575202868
  C   -1.47059424344753      0.29073978423915     -0.98234027276562
  H   -2.54712092428094      0.15350052498223     -0.87826239845145
  H   -1.13444491795594     -0.23376715119089     -1.88193485217438
  H   -1.26743349062963      1.35622684998740     -1.08438627165778
  C   -1.16407649759044     -1.66450189456391      0.45529033339005
  N   -1.48567256641767     -2.78924135497008      0.57466330021128
  C   1.43683336715105     -0.81377241745193      1.26687151468414
  N   1.98396361559489     -1.25773085879322      2.20635542046185
  C   1.35978743140272      1.15367974823578     -0.21108852565644
  H   1.09894460316834      1.85788928482169      0.57932473198540
  H   2.44752929386663      1.09171240089779     -0.27095419726472
  H   0.99075599288970      1.52933782317901     -1.16580599948257
