16
Coordinates from ORCA-job run
  C   -0.80210749023756     -0.04792572996862      0.23676977042961
  C   0.72248701890922     -0.32867051082229      0.24037619859523
  Br  -1.20085044971809      1.52035969174255      1.35191547967671
  H   0.84338234186278     -1.26631192847402     -0.31987712451974
  C   -1.34126135119304      0.20138031900501     -1.16934310755977
  H   -0.92589613686925      1.12038673227426     -1.58150302861139
  H   -1.07840650706190     -0.64123391992634     -1.81621844137354
  H   -2.42702431600857      0.29581529939686     -1.14075116551048
  C   -1.49160017671689     -1.18740379290426      0.83886884705486
  N   -2.03872176467669     -2.13310051357459      1.27347691451337
  C   1.19512532453349     -0.58104354207342      1.60354429147285
  N   1.61099381160699     -0.77151458741457      2.68532144614417
  C   1.56857661309714      0.75792352258149     -0.42774688126312
  H   1.41717490143326      1.72166287195808      0.05915719021152
  H   2.62421721237190      0.49402523120252     -0.34633519338007
  H   1.32391096866723      0.84565085699734     -1.48665519588022
