16
Coordinates from ORCA-job run
  C   -0.81538911737218     -0.28390535573448      0.34872232077485
  C   0.67493088372160     -0.00351305596412      0.67281211516092
  Br  -1.85862180665968     -0.01806378874890      1.99499540936194
  H   0.93941425324858     -0.62226370395641      1.53731518908235
  C   -1.38474753984761      0.61893342959937     -0.74053196477015
  H   -2.43948871775338      0.39339365932726     -0.89879728767949
  H   -1.28750067598331      1.66458482069651     -0.44426532986466
  H   -0.85113923832098      0.45515174564567     -1.67956123398905
  C   -0.95687843463460     -1.69046493745263     -0.01903172289443
  N   -1.03934092440414     -2.81655448426651     -0.34675804363394
  C   0.83992830006528      1.39893624988704      1.06007909986995
  N   0.99850855888903      2.53100694275560      1.32945994377817
  C   1.61249783129924     -0.34382482750099     -0.49315047061314
  H   2.64668228438856     -0.19178487689308     -0.17950737918190
  H   1.49279384791056     -1.38807054794386     -0.78674208846356
  H   1.42635049545305      0.29643873054953     -1.35603855693786
