16
Coordinates from ORCA-job run
  C   -0.82502915118198     -0.01889867513473      0.14191583843647
  C   0.69044177465958     -0.19675092362061      0.41490680283859
  Br  -1.39450870688299      1.78999262645104      0.65825793624804
  H   0.90071294609196     -1.25195738863643      0.19132905088840
  C   -1.17878048761715     -0.24346860777314     -1.32590731842854
  H   -0.73106175384613      0.52886665135279     -1.95066580615228
  H   -0.81599548974438     -1.22613737495067     -1.64291705956220
  H   -2.26053817287791     -0.20988914341905     -1.45770468168630
  C   -1.56824746569124     -0.95669354386426      0.98120702742265
  N   -2.15271641622981     -1.75452282171419      1.61733069800168
  C   0.98393994955072      0.00456370764577      1.83571172379980
  N   1.25738339926506      0.17112862096964      2.96560311588893
  C   1.59776096046759      0.68139106244045     -0.45010155065962
  H   1.49039504748665      0.43085293041067     -1.50585061351452
  H   1.36900511188836      1.73746725240986     -0.30452201464615
  H   2.63823845466168      0.51305562743286     -0.16759314887495
