16
Coordinates from ORCA-job run
  C   -0.83571899867718     -0.26201943486554      0.31757993651602
  C   0.64792537816639     -0.02220667499657      0.69981413631079
  Br  -1.93526325566384      0.03519246051280      1.92118151122472
  H   0.86210912153296     -0.64897417369485      1.57248240877941
  C   -1.33605703592915      0.65383779358297     -0.79430227589221
  H   -2.39028353791971      0.45914368851069     -0.99253677226602
  H   -1.21915940440461      1.69719937524968     -0.49677569583559
  H   -0.77192775821059      0.47102937627012     -1.71182695005793
  C   -1.00183237245647     -1.66461512299199     -0.05520238089759
  N   -1.10515677214826     -2.78704231902348     -0.38984009680274
  C   0.83546203462889      1.37504246291021      1.09588154617740
  N   1.01524484615173      2.50261686119486      1.37051413990673
  C   1.62029625673316     -0.38518335823324     -0.43031998234814
  H   2.64513638270265     -0.27197153469956     -0.07274268810675
  H   1.49213677497335      0.26895321469310     -1.29344879691612
  H   1.47708834052068     -1.42200261441920     -0.73945803979198
