16
Coordinates from ORCA-job run
  C   -0.75433238940698     -0.29345216438997      0.07372964785566
  C   0.65610418252596      0.23604344269914      0.44024830282488
  Br  -1.29853839251923     -1.58120623929448      1.46009582535259
  H   0.57283862047581      0.65793451813886      1.44916318208441
  C   -1.79989490617497      0.81724897548392      0.02702657564740
  H   -1.55396103428627      1.52340328625002     -0.76924958011459
  H   -1.81917065629515      1.34381679880738      0.98357546067901
  H   -2.78790071069477      0.39783118944285     -0.16415122283994
  C   -0.70449551159425     -1.01206132445647     -1.19650762345130
  N   -0.65108014876033     -1.56022582783177     -2.23542861976906
  C   0.99275113177313      1.33103360573200     -0.47613216194779
  N   1.27271151671576      2.19886694505645     -1.21658466011593
  C   1.76088697515147     -0.82294968096709      0.41070099729143
  H   1.86052894027953     -1.24775793649248     -0.58991135290939
  H   1.54070715766077     -1.62243692975464      1.11773328667670
  H   2.71284522514952     -0.36608865842374      0.68669194273592
