16
Coordinates from ORCA-job run
  C   -0.79455930181750     -0.04948534198936      0.26048593134581
  C   0.72832479870022     -0.33478913560851      0.20823438925684
  Br  -1.15170209645261      1.49325463126238      1.42300961785837
  H   0.82722753540871     -1.25571969498784     -0.38352706759598
  C   -1.37760588072620      0.23210584685863     -1.12186535747755
  H   -0.97198545287776      1.15809441391354     -1.52780920582304
  H   -2.46147995894098      0.32942811782536     -1.05627616533839
  H   -1.13901535552066     -0.59743181778592     -1.79427897369833
  C   -1.46842089636253     -1.20130958015833      0.85715651501199
  N   -2.00580155118062     -2.15677317551420      1.28235866923425
  C   1.24220567714511     -0.63020421839859      1.54788705655207
  N   1.68978491677484     -0.85752359633461      2.60951896448950
  C   1.55853371883670      0.76773494459432     -0.45414750632379
  H   2.61439732955505      0.49468117445058     -0.41728286488561
  H   1.43076902986734      1.71676551746741      0.06744842506156
  H   1.27832748759089      0.89017191440515     -1.50091242766770
