16
Coordinates from ORCA-job run
  C   -0.75228098866661     -0.29819928525831      0.07635348679154
  C   0.65032303101497      0.25512685580425      0.43827331175108
  Br  -1.29371674352164     -1.55615659040133      1.49073076183786
  H   0.55554629372874      0.70585138379927      1.43352878020022
  C   -1.80839755605671      0.80045301418979     -0.00495660455277
  H   -1.83987336579512      1.34921249827391      0.93870103116619
  H   -1.56380934851548      1.48989653049308     -0.81617754850317
  H   -2.79083325094795      0.36676511396906     -0.19310094357628
  C   -0.68579858027566     -1.04799140870195     -1.17505305027040
  N   -0.61972875193711     -1.62247004259609     -2.19888591161977
  C   0.98353880988574      1.32457595319010     -0.50888046119570
  N   1.26203130479933      2.16862580463029     -1.27709830402961
  C   1.76526812025634     -0.79357705761496      0.44688169960519
  H   1.54518810019252     -1.57730839652913      1.17119149349921
  H   2.70988247479084     -0.32084158160732      0.72122996380064
  H   1.87966045104778     -1.24196279164064     -0.54173770490423
