16
Coordinates from ORCA-job run
  C   -0.81835089747445     -0.28491407665760      0.33595270882859
  C   0.66950722702521     -0.01898863780389      0.68341243534187
  Br  -1.88134776961338     -0.03977030793740      1.97242832222888
  H   0.91936717646707     -0.65389343866373      1.54051035636756
  C   -1.36840339569488      0.63773321062060     -0.74666008152324
  H   -0.82453401592603      0.48337414871827     -1.68142851335454
  H   -2.42261263270876      0.42135901035398     -0.92085383597423
  H   -1.26796852019100      1.67831164436384     -0.43405874706736
  C   -0.96398288937493     -1.68407760695861     -0.05791405963409
  N   -1.06441594660479     -2.79952728916018     -0.41598442274594
  C   0.83712131039445      1.37644052145783      1.09376035811451
  N   0.97156002212411      2.50786226117271      1.37873204020548
  C   1.61922198709077     -0.34592952196993     -0.47691874483288
  H   1.45231573385377      0.31494491293701     -1.32815584004863
  H   1.49190202537420     -1.38215607147415     -0.79488758383085
  H   2.65062058525863     -0.21276875899874     -0.14593439207514
