13

C	-0.534985	0.079189	-1.413818
C	0.0	0.0	0.0
F	-0.09816	-1.018975	-2.121846
H	1.087133	0.0	0.0
H	-0.131821	0.980312	-1.874901
H	-1.6267	0.082368	-1.419898
N	-0.50474	-1.197876	0.728498
O	-1.499257	-1.769302	0.278538
O	0.104356	-1.507004	1.746711
N	-0.483037	1.206984	0.739991
O	-1.216094	1.056633	1.713505
O	-0.117054	2.281853	0.273255
Br	3.368369	0.0	0.0
