13

C	-0.553992	0.08285	-1.408386
C	0.0	0.0	0.0
F	-0.352382	-1.146418	-2.01332
H	1.089353	0.0	0.0
H	-0.008667	0.843918	-1.963653
H	-1.624436	0.290963	-1.397592
N	-0.56817	-1.199239	0.681035
O	-1.799485	-1.268351	0.692321
O	0.205182	-2.013781	1.165428
N	-0.43582	1.184544	0.792159
O	-0.621709	2.221586	0.156532
O	-0.524821	1.059504	2.008526
Br	3.376282	0.0	0.0
