13

C	-0.55777	-0.045831	-1.408841
C	0.0	0.0	0.0
F	-0.398328	1.209751	-1.968758
H	1.089354	0.0	0.0
H	0.005952	-0.768314	-1.995498
H	-1.621571	-0.285473	-1.400618
N	-0.423654	-1.212421	0.7571
O	-0.614842	-2.22907	0.091463
O	-0.494928	-1.127569	1.976643
N	-0.579129	1.175485	0.710614
O	0.18413	2.024409	1.150965
O	-1.808975	1.197963	0.77607
Br	3.371866	0.0	0.0
