13

C	-0.528501	-0.052347	-1.419825
C	0.0	0.0	0.0
F	-0.299304	1.180348	-2.003896
H	1.089273	0.0	0.0
H	0.023395	-0.810821	-1.971787
H	-1.600967	-0.248982	-1.437141
N	-0.450012	-1.207394	0.748752
O	-0.486738	-2.251508	0.100785
O	-0.705158	-1.091847	1.941833
N	-0.564013	1.181581	0.712642
O	-1.774266	1.365893	0.571714
O	0.194583	1.862336	1.39012
Br	3.370898	0.0	0.0
