15

C	-0.484472	0.183963	-1.446979
C	0.0	0.0	0.0
F	-0.558494	-1.090204	-2.02004
H	1.091353	0.0	0.0
H	-1.501213	0.588233	-1.452664
C	0.452844	1.020109	-2.285178
H	1.469236	0.637555	-2.1861
H	0.435508	2.05033	-1.935471
H	0.128036	0.983617	-3.329096
C	-0.465211	-1.232568	0.599591
N	-0.808254	-2.255361	1.066631
N	-0.359787	1.126462	0.846805
O	-0.237203	0.984793	2.069543
O	-0.620661	2.208988	0.289478
H	2.465893	0.0	0.0
