15

C	-0.446671	0.095304	-1.454945
C	0.0	0.0	0.0
F	0.200716	1.133392	-2.105363
H	1.091845	0.0	0.0
H	-0.090408	-0.830467	-1.92301
C	-1.939642	0.255406	-1.659037
H	-2.162917	0.279195	-2.72883
H	-2.270386	1.192022	-1.211494
H	-2.478697	-0.579238	-1.205389
C	-0.433076	-1.262635	0.559751
N	-0.745605	-2.330659	0.94294
N	-0.415303	1.093393	0.8581
O	-0.404757	0.891268	2.082053
O	-0.611727	2.201312	0.334701
H	2.428817	0.0	0.0
