15

C	-0.338048	-0.009762	-1.469691
C	0.0	0.0	0.0
F	-1.72565	0.071618	-1.671154
H	1.093806	0.0	0.0
H	0.097063	0.891556	-1.903452
C	0.195781	-1.255809	-2.131425
H	0.04299	-1.202633	-3.211689
H	1.264766	-1.332456	-1.911567
H	-0.317431	-2.139213	-1.745882
C	-0.508713	-1.147913	0.716201
N	-0.866486	-2.141722	1.233552
N	-0.378927	1.247454	0.663855
O	-0.268776	2.286252	0.003499
O	-0.655035	1.210391	1.868261
H	2.474332	0.0	0.0
