15

C	-0.446901	-0.028066	-1.458107
C	0.0	0.0	0.0
F	0.218388	0.932693	-2.202848
H	1.094829	0.0	0.0
H	-0.111837	-0.999523	-1.841099
C	-1.937266	0.144523	-1.671659
H	-2.167741	0.063604	-2.736275
H	-2.491963	-0.62577	-1.131952
H	-2.243509	1.129359	-1.32066
C	-0.438534	-1.209351	0.663845
N	-0.762383	-2.245844	1.11656
N	-0.4099	1.16468	0.758313
O	-0.550752	2.23381	0.142126
O	-0.441033	1.062146	1.994677
H	2.422702	0.0	0.0
