15

C	-0.399379	-0.052067	-1.445452
C	0.0	0.0	0.0
F	-1.781822	-0.207664	-1.611602
H	1.093053	0.0	0.0
H	0.072487	-0.952397	-1.853733
C	0.031293	1.068388	-2.295715
N	0.345428	1.870797	-3.091475
C	-0.407327	-1.246392	0.759301
H	-1.487896	-1.31479	0.900717
H	-0.059695	-2.121981	0.205377
H	0.086853	-1.247481	1.729219
N	-0.450482	1.206378	0.675817
O	-0.648774	2.226668	0.001039
O	-0.513895	1.178955	1.913612
H	2.552298	0.0	0.0
