15

C	-0.513284	0.01074	-1.425056
C	0.0	0.0	0.0
F	0.203559	0.870989	-2.236289
H	1.09092	0.0	0.0
H	-1.556578	0.343586	-1.457204
C	-0.441675	-1.331688	-2.035496
N	-0.414315	-2.385493	-2.551983
C	-0.369775	-1.23995	0.791314
H	-0.025102	-1.101557	1.814316
H	0.161839	-2.096306	0.372184
H	-1.44665	-1.444347	0.797103
N	-0.439702	1.208561	0.678602
O	-0.87102	2.158166	-0.001555
O	-0.257397	1.275074	1.903909
H	2.52897	0.0	0.0
