15

C	-0.501799	0.118288	-1.424311
C	0.0	0.0	0.0
F	0.217875	1.044966	-2.157126
H	1.094375	0.0	0.0
H	-1.54643	0.447665	-1.442558
C	-0.413281	-1.170754	-2.138938
N	-0.391956	-2.177153	-2.742936
C	-0.365052	-1.29919	0.692648
H	-0.008482	-1.243695	1.719657
H	0.158636	-2.120968	0.200657
H	-1.442731	-1.500024	0.694436
N	-0.447954	1.149564	0.765465
O	-0.267813	1.124204	1.993389
O	-0.885486	2.1458	0.15901
H	2.520957	0.0	0.0
