15

C	-0.382212	0.013247	-1.450726
C	0.0	0.0	0.0
F	-1.754493	-0.20732	-1.640726
H	1.10149	0.0	0.0
H	0.141126	-0.836477	-1.903409
C	-0.014559	1.198859	-2.241958
N	0.245065	2.039942	-3.018152
C	-0.412134	-1.286084	0.685176
H	-0.06483	-2.130014	0.082739
H	0.076935	-1.345033	1.656577
H	-1.493499	-1.359518	0.819332
N	-0.449873	1.169374	0.732113
O	-0.639101	1.049104	1.952414
O	-0.509643	2.254942	0.134851
H	2.532349	0.0	0.0
