18

C	-0.506781	-0.000702	-1.41515
C	0.0	0.0	0.0
Cl	-2.278054	-0.015003	-1.569557
H	1.096798	0.0	0.0
N	0.056731	1.2183	-2.145686
O	1.17891	1.068457	-2.613454
O	-0.599361	2.25351	-2.121477
N	0.023877	-1.183067	-2.22481
O	-0.332292	-1.224001	-3.40026
O	0.78347	-1.960067	-1.66308
N	-0.454894	-1.232518	0.644133
H	-0.935449	-1.004891	1.508092
H	0.382685	-1.763265	0.873405
C	-0.419429	1.244452	0.763275
H	-0.067535	2.159258	0.285047
H	-1.506316	1.308507	0.888891
H	0.058851	1.1894	1.746294
H	2.73169	0.0	0.0
