18

C	-0.537452	0.027288	-1.402611
C	0.0	0.0	0.0
Cl	-2.280029	0.40057	-1.525262
H	1.092175	0.0	0.0
N	0.164261	1.030126	-2.30919
O	0.818566	1.915819	-1.773934
O	0.004596	0.865701	-3.515353
N	-0.265538	-1.326442	-2.065276
O	-1.194579	-2.081803	-2.292587
O	0.922709	-1.524968	-2.274498
N	-0.354395	-1.294162	0.57328
H	-1.113758	-1.209424	1.235716
H	0.471577	-1.636294	1.055298
C	-0.434674	1.18172	0.849657
H	-0.277246	2.1329	0.34349
H	0.187795	1.175419	1.746989
H	-1.486647	1.103865	1.141257
H	2.69858	0.0	0.0
