18

C	-0.465878	0.001672	-1.436523
C	0.0	0.0	0.0
Cl	0.249787	-1.327246	-2.329123
H	1.097347	0.0	0.0
N	-1.990965	-0.072844	-1.525944
O	-2.533944	-1.127489	-1.814173
O	-2.555839	0.972832	-1.204054
N	-0.124866	1.271656	-2.209099
O	0.652504	2.064242	-1.695206
O	-0.635353	1.366421	-3.321617
N	-0.448579	-1.287843	0.565563
H	-0.612159	-1.144496	1.555554
H	0.346965	-1.920412	0.503973
C	-0.510245	1.139935	0.860161
H	0.088754	1.12925	1.776425
H	-0.37732	2.112662	0.394086
H	-1.566469	1.010366	1.116453
H	2.736294	0.0	0.0
