18

C	-0.48347	-0.030882	-1.428212
C	0.0	0.0	0.0
Cl	0.328895	-1.256297	-2.363287
H	1.095725	0.0	0.0
N	-2.005622	-0.25673	-1.586544
O	-2.426218	-0.395946	-2.727668
O	-2.686424	-0.25036	-0.569956
N	-0.281936	1.340113	-2.079581
O	-1.215857	2.129195	-1.937925
O	0.794639	1.572872	-2.600342
N	-0.358503	-1.27461	0.608465
H	0.462296	-1.598371	1.110209
H	-1.130806	-1.163277	1.252078
C	-0.392385	1.236421	0.795243
H	0.090533	1.134024	1.771549
H	-1.471299	1.344435	0.929988
H	0.008772	2.148126	0.346251
H	2.730905	0.0	0.0
