18

C	-0.463926	-0.020206	-1.429163
C	0.0	0.0	0.0
Cl	-2.242694	-0.222457	-1.636523
H	1.093322	0.0	0.0
N	-0.03394	1.272378	-2.118358
O	1.136687	1.281973	-2.480052
O	-0.829274	2.202277	-2.160842
N	0.174779	-1.113084	-2.274208
O	0.861045	-1.952078	-1.70299
O	-0.043235	-1.047137	-3.481399
N	-0.39138	-1.177166	0.759068
H	-1.323811	-1.490156	0.514407
H	0.271888	-1.913165	0.552845
C	-0.442913	1.269922	0.709918
H	0.025832	2.158365	0.28199
H	-0.098532	1.17228	1.740177
H	-1.529729	1.402437	0.70816
H	2.715041	0.0	0.0
