18

C	-0.447345	0.019619	-1.435868
C	0.0	0.0	0.0
Cl	-2.197288	0.297453	-1.674775
H	1.091889	0.0	0.0
N	0.277455	1.05828	-2.279773
O	0.982259	1.874131	-1.697522
O	0.115175	0.964876	-3.494815
N	-0.056288	-1.309358	-2.092473
O	1.148861	-1.415577	-2.27265
O	-0.918357	-2.135093	-2.335908
N	-0.392983	-1.284563	0.559049
H	-1.257801	-1.210213	1.080934
H	0.350894	-1.584276	1.181595
C	-0.472105	1.198206	0.805066
H	-1.554467	1.16756	0.974
H	0.039915	1.161951	1.770776
H	-0.211036	2.141646	0.326464
H	2.723597	0.0	0.0
