18

C	-0.454178	-0.078207	-1.444636
C	0.0	0.0	0.0
Cl	0.058145	-1.561473	-2.206975
H	1.093327	0.0	0.0
N	-1.971386	0.059037	-1.525938
O	-2.391168	1.217478	-1.542537
O	-2.65685	-0.95169	-1.425025
N	0.054781	1.076726	-2.313556
O	0.763634	1.921647	-1.785569
O	-0.288057	1.047753	-3.49107
N	-0.368032	-1.244613	0.661684
H	-1.094273	-1.094808	1.350323
H	0.467449	-1.592975	1.12032
C	-0.509359	1.217635	0.755442
H	-1.571668	1.114927	1.015492
H	-0.374736	2.151461	0.21415
H	0.073167	1.27465	1.680189
H	2.688129	0.0	0.0
