18

C	-0.465627	-0.012914	-1.435231
C	0.0	0.0	0.0
Cl	0.384121	-1.204368	-2.38086
H	1.094356	0.0	0.0
N	-1.980153	-0.263133	-1.616797
O	-2.679195	-0.237028	-0.610923
O	-2.379979	-0.432871	-2.76187
N	-0.277009	1.37282	-2.059176
O	0.815765	1.641084	-2.531028
O	-1.235734	2.134957	-1.946873
N	-0.365458	-1.282099	0.587185
H	0.454911	-1.621285	1.080489
H	-1.134898	-1.177136	1.23437
C	-0.400543	1.229429	0.801401
H	0.019523	2.141422	0.370248
H	0.058917	1.113967	1.787506
H	-1.48121	1.345753	0.912147
H	2.734833	0.0	0.0
