18

C	-0.380278	-0.003673	-1.464101
C	0.0	0.0	0.0
Cl	0.460407	1.238076	-2.363308
H	1.094383	0.0	0.0
N	-0.030035	-1.374304	-2.070905
O	1.156178	-1.610232	-2.202841
O	-0.969418	-2.11914	-2.329369
N	-1.891379	0.123511	-1.750387
O	-2.24211	0.463081	-2.872878
O	-2.641606	-0.167265	-0.823335
N	-0.391442	-1.263472	0.593969
H	0.338381	-1.535113	1.244293
H	-1.282533	-1.197971	1.067565
C	-0.453029	1.252508	0.732272
H	0.025197	1.243602	1.715664
H	-0.123915	2.160507	0.22194
H	-1.538984	1.283096	0.863118
H	2.759257	0.0	0.0
