18

C	-0.518962	-0.00629	-1.409815
C	0.0	0.0	0.0
Cl	0.264175	1.191426	-2.413987
H	1.094838	0.0	0.0
N	-0.303047	-1.393219	-2.0317
O	0.849486	-1.685681	-2.293166
O	-1.29552	-2.097339	-2.172042
N	-2.050574	0.189174	-1.522449
O	-2.701722	-0.075372	-0.516709
O	-2.511836	0.553184	-2.596917
N	-0.34473	-1.256724	0.643859
H	0.46635	-1.54467	1.182523
H	-1.150946	-1.165851	1.245732
C	-0.374894	1.259775	0.770643
H	-1.413713	1.249617	1.109883
H	-0.199018	2.163657	0.184331
H	0.29073	1.308297	1.63621
H	2.714204	0.0	0.0
