16

C	0.0	0.0	0.0
C	-0.564761	0.237353	-1.390751
Cl	1.773859	0.0	0.0
H	-0.270748	-0.556321	-2.067873
H	-1.657654	0.309891	-1.283638
C	-0.51127	0.935982	1.063491
H	-0.088327	0.662586	2.027785
H	-0.224949	1.954482	0.806292
H	-1.601433	0.856049	1.084809
N	-0.3678	-1.452336	0.379021
O	-0.47293	-2.262821	-0.533636
O	-0.450497	-1.703629	1.572323
N	-0.043689	1.499301	-1.976785
O	0.714166	1.395832	-2.943623
O	-0.406941	2.566071	-1.483046
Cl	-3.679291	0.0	0.0
