16

C	0.0	0.0	0.0
C	-0.564144	0.207851	-1.395873
Cl	1.773951	0.0	0.0
H	-0.282378	-0.608188	-2.051566
H	-1.656498	0.297081	-1.291561
C	-0.511587	0.958058	1.04402
H	-0.221863	1.969834	0.766479
H	-1.602074	0.880712	1.065563
H	-0.089756	0.704428	2.014479
N	-0.370624	-1.443146	0.41041
O	-0.483605	-2.273725	-0.483143
O	-0.448303	-1.667984	1.609477
N	-0.02715	1.44472	-2.021604
O	-0.33524	2.529731	-1.531011
O	0.686862	1.302091	-3.016395
Cl	-3.678024	0.0	0.0
