16

C	0.0	0.0	0.0
C	-0.563954	0.200258	-1.397155
Cl	1.77393	0.0	0.0
H	-1.655971	0.291592	-1.292658
H	-0.284164	-0.619873	-2.048161
C	-0.510745	0.964828	1.038019
H	-1.601782	0.891322	1.058454
H	-0.217714	1.974293	0.756025
H	-0.09194	0.713974	2.010532
N	-0.369433	-1.440992	0.419338
O	-0.446316	-1.659293	1.619545
O	-0.481788	-2.276413	-0.469758
N	-0.025643	1.432146	-2.030664
O	-0.32837	2.520162	-1.543956
O	0.683348	1.283245	-3.027995
Cl	-3.677114	0.0	0.0
