16

C	0.0	0.0	0.0
C	-0.529762	0.042168	-1.424813
Cl	1.773768	0.0	0.0
H	-1.62698	0.066047	-1.364045
H	-0.156535	-0.801141	-1.99559
C	-0.484664	1.101269	0.908802
H	-0.082663	0.943518	1.907791
H	-0.134395	2.056936	0.522434
H	-1.576449	1.081986	0.922762
N	-0.396797	-1.366801	0.581624
O	-0.450989	-1.450176	1.800079
O	-0.556284	-2.288298	-0.209931
N	-0.055158	1.262076	-2.132013
O	-0.533304	2.346819	-1.80458
O	0.783445	1.104127	-3.022408
Cl	-3.619896	0.0	0.0
