16

C	0.0	0.0	0.0
C	-0.563816	0.222506	-1.39398
Cl	1.773757	0.0	0.0
H	-1.654612	0.325933	-1.286745
H	-0.298254	-0.595804	-2.052816
C	-0.509449	0.947018	1.055686
H	-1.598763	0.86184	1.083182
H	-0.079941	0.68818	2.021224
H	-0.228217	1.962044	0.782199
N	-0.371472	-1.4467	0.39578
O	-0.476602	-2.270292	-0.505279
O	-0.45697	-1.681435	1.592323
N	-0.011819	1.451173	-2.022401
O	-0.254666	2.537567	-1.500675
O	0.645512	1.301178	-3.053849
Cl	-3.670767	0.0	0.0
