16

C	0.0	0.0	0.0
C	-0.568565	-0.081747	-1.407293
Cl	1.773835	0.0	0.0
H	-0.284236	-1.011092	-1.886501
H	-1.658904	0.028834	-1.320383
C	-0.506541	1.162356	0.814374
H	-0.192524	2.090108	0.339585
H	-1.598224	1.112447	0.839089
H	-0.099705	1.106893	1.822072
N	-0.38225	-1.319348	0.70001
O	-0.48366	-2.319616	-0.000986
O	-0.485264	-1.286763	1.917281
N	-0.031782	1.007345	-2.265426
O	0.738046	0.681654	-3.172
O	-0.393307	2.160744	-2.034728
Cl	-3.656032	0.0	0.0
