18

C	-0.446636	0.01161	-1.451177
C	0.0	0.0	0.0
F	0.072816	1.07669	-2.116121
H	1.096716	0.0	0.0
N	0.035856	-1.243374	-2.189096
O	-0.665124	-2.242295	-2.04391
O	1.067949	-1.148479	-2.829399
C	-1.913674	0.046927	-1.599035
N	-3.083503	0.133994	-1.66217
C	-0.491237	-1.228203	0.757689
H	-1.58254	-1.31835	0.737644
H	-0.171465	-1.132482	1.797673
H	-0.057625	-2.148555	0.367265
C	-0.467043	1.292617	0.667301
H	-0.016357	1.347159	1.660423
H	-1.556825	1.327286	0.77641
H	-0.133464	2.167865	0.108417
Br	3.545202	0.0	0.0
