18

C	-0.370528	-0.000937	-1.471653
C	0.0	0.0	0.0
F	0.117349	-1.097416	-2.100695
H	1.09743	0.0	0.0
N	-1.901662	-0.077427	-1.615588
O	-2.391541	-1.187498	-1.774226
O	-2.512712	0.979656	-1.488868
C	0.050539	1.205518	-2.196821
N	0.380363	2.16127	-2.79343
C	-0.482399	-1.273014	0.686194
H	-0.19501	-2.161091	0.122677
H	-0.003301	-1.332021	1.665662
H	-1.568204	-1.281849	0.829827
C	-0.453589	1.259656	0.728534
H	-0.096327	2.163488	0.230525
H	-1.541093	1.319244	0.825858
H	-0.012971	1.244726	1.727811
Br	3.496501	0.0	0.0
