18

C	-0.417755	0.008359	-1.460878
C	0.0	0.0	0.0
F	0.129861	1.064532	-2.119441
H	1.096965	0.0	0.0
N	0.077109	-1.256555	-2.172026
O	1.161568	-1.189266	-2.725191
O	-0.65917	-2.237879	-2.082953
C	-1.879594	0.057248	-1.64825
N	-3.046345	0.15422	-1.745626
C	-0.50065	-1.23261	0.742758
H	-0.051491	-2.149079	0.359939
H	-1.590658	-1.330124	0.694883
H	-0.208329	-1.139774	1.79117
C	-0.480702	1.291187	0.65687
H	-0.053785	1.347388	1.660471
H	-0.135831	2.166387	0.104597
H	-1.572924	1.324914	0.74069
Br	3.557105	0.0	0.0
