18

C	-0.522252	-0.031837	-1.417781
C	0.0	0.0	0.0
F	-1.892109	-0.149324	-1.435334
H	1.094922	0.0	0.0
N	-0.207486	1.286821	-2.133262
O	-1.090118	2.134475	-2.123936
O	0.913737	1.384875	-2.609781
C	0.026383	-1.117961	-2.235675
N	0.404046	-2.012418	-2.896008
C	-0.444168	-1.275858	0.715879
H	-0.094093	-2.168526	0.192353
H	0.008657	-1.288666	1.709059
H	-1.530878	-1.328622	0.8225
C	-0.473624	1.252463	0.732961
H	-0.014003	2.153902	0.323739
H	-0.156615	1.17643	1.77518
H	-1.56102	1.363139	0.701515
Br	3.522878	0.0	0.0
