18

C	-0.401807	0.005632	-1.465208
C	0.0	0.0	0.0
F	0.160458	1.055508	-2.121681
H	1.096908	0.0	0.0
N	0.098148	-1.265494	-2.160562
O	-0.65801	-2.234047	-2.109051
O	1.206863	-1.215407	-2.665134
C	-1.860339	0.062945	-1.673065
N	-3.02474	0.174667	-1.781637
C	-0.504253	-1.238093	0.731008
H	-1.593128	-1.340511	0.668454
H	-0.046319	-2.150298	0.347865
H	-0.225603	-1.151577	1.783501
C	-0.489254	1.287679	0.655281
H	-0.142974	2.164721	0.106687
H	-0.070381	1.343773	1.662245
H	-1.582182	1.3179	0.730592
Br	3.516889	0.0	0.0
