18

C	-0.378692	0.018699	-1.468848
C	0.0	0.0	0.0
F	0.188929	-1.017251	-2.13421
H	1.097675	0.0	0.0
N	-1.900248	-0.1754	-1.606707
O	-2.301322	-1.304142	-1.854695
O	-2.591532	0.814283	-1.384728
C	-0.062301	1.274036	-2.163755
N	0.175197	2.276442	-2.727596
C	-0.469933	-1.292467	0.659731
H	-1.553396	-1.30482	0.823269
H	-0.193277	-2.164658	0.066035
H	0.026782	-1.379774	1.628417
C	-0.459697	1.238081	0.759731
H	-0.026715	1.195032	1.761844
H	-1.547882	1.295078	0.849303
H	-0.097183	2.154824	0.289915
Br	3.498773	0.0	0.0
