16

C	-0.616948	0.023685	-1.391584
C	0.0	0.0	0.0
Cl	0.082302	1.327403	-2.370535
H	1.091049	0.0	0.0
N	-0.222375	-1.278521	-2.153408
O	0.748016	-1.911235	-1.75815
O	-0.931352	-1.565677	-3.120733
N	-2.028281	0.163337	-1.365803
H	-2.420315	-0.601443	-0.826616
H	-2.390421	0.115462	-2.310856
C	-0.49677	-1.183953	0.700389
N	-0.94796	-2.102108	1.284896
N	-0.31375	1.242471	0.687896
H	-1.161903	1.182591	1.234642
H	0.483207	1.452655	1.282319
H	2.626066	0.0	0.0
