16

C	-0.328213	-0.109618	-1.492769
C	0.0	0.0	0.0
Cl	-1.99028	-0.695099	-1.815211
H	1.094535	0.0	0.0
N	-0.216004	1.32097	-2.048734
O	0.933705	1.684904	-2.250856
O	-1.224877	1.993186	-2.199086
N	0.612874	-0.915886	-2.203324
H	1.537231	-0.702038	-1.799628
H	0.407694	-1.889669	-2.011777
C	-0.392877	-1.230375	0.679853
N	-0.723165	-2.198315	1.261881
N	-0.446761	1.218237	0.632457
H	0.279854	1.520146	1.272698
H	-1.31917	1.102563	1.129616
H	2.654273	0.0	0.0
