16

C	-0.297425	-0.080377	-1.4949
C	0.0	0.0	0.0
Cl	-1.991812	-0.568588	-1.906277
H	1.095009	0.0	0.0
N	-0.165289	1.379937	-2.062247
O	-1.1199	2.139553	-2.0026
O	0.943785	1.653717	-2.51256
N	0.621647	-0.971719	-2.045983
H	0.628584	-0.950573	-3.057552
H	1.555237	-0.778627	-1.65067
C	-0.442226	-1.222919	0.6614
N	-0.802209	-2.156958	1.279548
N	-0.406848	1.22236	0.650554
H	0.317191	1.47044	1.314936
H	-1.293949	1.132761	1.12521
H	2.650357	0.0	0.0
