16

C	-0.604574	0.012883	-1.395834
C	0.0	0.0	0.0
Cl	0.399324	1.134616	-2.438328
H	1.094294	0.0	0.0
N	-0.470178	-1.330896	-2.092047
O	-1.18992	-1.503762	-3.072877
O	0.355042	-2.121559	-1.653197
N	-1.96647	0.355155	-1.375126
H	-2.035499	1.200803	-0.817339
H	-2.319243	0.502403	-2.312267
C	-0.52027	-1.106879	0.780802
N	-0.921391	-1.96328	1.481188
N	-0.336574	1.297883	0.627388
H	-0.772335	1.141661	1.528003
H	0.568539	1.738518	0.802499
H	2.606398	0.0	0.0
