16

C	-0.606649	0.036024	-1.414261
C	0.0	0.0	0.0
Cl	0.242281	1.275325	-2.346482
H	1.093492	0.0	0.0
N	-0.36107	-1.328121	-2.066028
O	0.709625	-1.533937	-2.615795
O	-1.266473	-2.150778	-1.918666
N	-2.015627	0.2978	-1.491682
H	-2.50058	-0.4794	-1.054821
H	-2.154049	1.131067	-0.926279
C	-0.502792	-1.139798	0.744896
N	-0.903655	-2.027278	1.408251
N	-0.358928	1.26615	0.661267
H	-0.835073	1.083932	1.53481
H	0.533193	1.711331	0.884632
H	2.617222	0.0	0.0
