16

C	-0.260975	-0.190529	-1.488909
C	0.0	0.0	0.0
Cl	-0.353407	-2.004608	-1.893557
H	1.10745	0.0	0.0
N	-1.662952	0.276245	-1.901483
O	-2.549988	0.191618	-1.059883
O	-1.801331	0.677738	-3.05171
N	0.697555	0.504344	-2.196524
H	0.68917	0.325096	-3.188905
H	1.619773	0.392843	-1.750508
C	-0.530613	-1.03025	0.875458
N	-0.934113	-1.789138	1.678759
N	-0.371111	1.352064	0.38847
H	0.390518	1.735611	0.937684
H	-1.226415	1.359347	0.927376
H	2.657154	0.0	0.0
