16

C	-0.42318	0.034404	-1.476134
C	0.0	0.0	0.0
F	-1.829511	0.139088	-1.52871
H	1.090317	0.0	0.0
N	0.172297	1.100571	-2.185383
H	0.418901	0.853526	-3.132164
H	0.975186	1.477637	-1.694287
C	-0.139845	-1.294631	-2.069697
N	0.052778	-2.348093	-2.552447
N	-0.498651	-1.092347	0.754899
H	0.179161	-1.840041	0.772404
H	-1.404723	-1.413172	0.446898
N	-0.484755	1.303753	0.600823
O	-1.522723	1.282996	1.253065
O	0.188715	2.304883	0.364682
Cl	3.265654	0.0	0.0
