16

C	-0.441095	0.106998	-1.465312
C	0.0	0.0	0.0
F	-1.774892	0.567743	-1.500642
H	1.091058	0.0	0.0
N	0.393563	0.990077	-2.186876
H	1.312445	1.074366	-1.761262
H	0.474157	0.73514	-3.16034
C	-0.510922	-1.246776	-2.06831
N	-0.563211	-2.255699	-2.667533
N	-0.530817	-1.142557	0.645651
H	-1.480664	-0.969846	0.949842
H	0.041542	-1.372702	1.446835
N	-0.419621	1.310934	0.66769
O	0.172881	2.328241	0.331735
O	-1.326011	1.257324	1.500075
Cl	3.262044	0.0	0.0
