16

C	-0.390666	0.086127	-1.483891
C	0.0	0.0	0.0
F	-1.774081	0.306439	-1.594814
H	1.090272	0.0	0.0
N	0.31252	1.127537	-2.134912
H	0.41182	0.95748	-3.126042
H	1.225179	1.271644	-1.709284
C	-0.189589	-1.258177	-2.084819
N	-0.034135	-2.311965	-2.581052
N	-0.51243	-1.110819	0.721003
H	-1.437919	-1.384329	0.423818
H	0.13663	-1.88229	0.674286
N	-0.488162	1.28177	0.63251
O	-1.573571	1.246547	1.207458
O	0.220021	2.276295	0.500705
Cl	3.267665	0.0	0.0
