19

C	-0.347584	-0.014685	-1.484475
C	0.0	0.0	0.0
F	-0.086184	-1.357634	-1.940723
H	1.1028	0.0	0.0
C	-1.803839	0.2142	-1.828176
H	-2.095031	1.237136	-1.587975
H	-1.962556	0.042451	-2.897646
H	-2.41711	-0.486302	-1.259657
N	0.52057	0.898813	-2.136314
H	0.483265	0.76063	-3.139367
H	1.475158	0.740084	-1.802241
N	-0.580664	-1.179107	0.661347
H	-0.144604	-1.986272	0.226247
H	-0.230422	-1.164733	1.614943
C	-0.479215	1.26331	0.690573
H	-0.022204	1.32673	1.683828
H	-0.168384	2.144264	0.126756
H	-1.567751	1.262949	0.810336
H	3.066046	0.0	0.0
