19

C	-0.286616	0.008353	-1.513003
C	0.0	0.0	0.0
F	-0.086916	-1.343451	-1.970237
H	1.099356	0.0	0.0
C	-1.708053	0.326002	-1.936972
H	-1.963695	1.352507	-1.672702
H	-2.414598	-0.359578	-1.459716
H	-1.803661	0.204492	-3.020458
N	0.652609	0.881755	-2.118949
H	1.582117	0.700073	-1.723635
H	0.673362	0.737565	-3.120805
N	-0.479271	-1.178455	0.712664
H	0.075234	-1.965079	0.393646
H	-1.442637	-1.371403	0.450312
C	-0.493857	1.262942	0.680913
H	-0.18183	2.148927	0.124625
H	-0.060503	1.305117	1.682239
H	-1.587091	1.269776	0.782168
H	3.036749	0.0	0.0
