16

C	0.0	0.0	0.0
C	-0.326777	0.178754	-1.470314
Br	2.200663	0.0	0.0
H	0.158081	-0.627897	-2.027594
H	0.139768	1.10786	-1.810725
N	-0.408432	1.068673	0.783578
H	-0.053956	1.951306	0.449213
H	-0.231124	0.957897	1.771349
N	-0.406375	-1.226076	0.504224
H	-0.047204	-2.001914	-0.030071
H	-0.232528	-1.353994	1.490443
C	-1.838427	0.191435	-1.704258
H	-2.313194	-0.734096	-1.383821
H	-2.042818	0.337106	-2.768892
H	-2.338909	0.978842	-1.143487
Br	-5.303443	0.0	0.0
