16

C	0.0	0.0	0.0
C	-0.374976	0.367585	-1.432189
Br	2.037758	0.0	0.0
H	0.118507	1.31542	-1.656563
H	0.06274	-0.385433	-2.096425
N	-0.392101	1.026344	0.926233
H	-1.410813	1.036469	0.935962
H	-0.077895	0.788387	1.859739
N	-0.490956	-1.281039	0.331139
H	-0.257419	-1.568149	1.271138
H	-0.226199	-1.991862	-0.33626
C	-1.880537	0.468727	-1.659296
H	-2.421552	-0.430043	-1.371803
H	-2.337951	1.282528	-1.098425
H	-2.064829	0.662893	-2.720076
Br	-5.060688	0.0	0.0
