16

C	0.0	0.0	0.0
C	-0.481118	0.291236	-1.411417
Br	2.033149	0.0	0.0
H	-0.103261	-0.49436	-2.074389
H	-1.571746	0.179436	-1.342853
N	-0.421324	1.032809	0.898673
H	-0.14199	0.797096	1.843048
H	-1.44735	1.009053	0.862658
N	-0.426042	-1.295221	0.385923
H	-0.13931	-2.006334	-0.272895
H	-0.115975	-1.539912	1.316978
C	-0.115751	1.666467	-1.944937
H	-0.570969	1.810394	-2.929468
H	-0.489842	2.443072	-1.277337
H	0.965716	1.788602	-2.041937
Br	-3.946042	0.0	0.0
