16

C	0.0	0.0	0.0
C	-0.469844	-0.29822	-1.414664
Br	2.033148	0.0	0.0
H	-1.562045	-0.202796	-1.352906
H	-0.099429	0.49257	-2.076573
N	-0.437601	1.290754	0.384925
H	-0.163096	2.006602	-0.273926
H	-0.136606	1.538571	1.317755
N	-0.420821	-1.036094	0.896604
H	-1.447148	-1.00192	0.867908
H	-0.129172	-0.811846	1.842261
C	-0.078114	-1.668766	-1.943266
H	-0.521901	-1.825178	-2.930347
H	-0.442444	-2.448621	-1.274753
H	1.005788	-1.770726	-2.030591
Br	-3.962151	0.0	0.0
