16

C	0.0	0.0	0.0
C	-0.460398	0.215812	-1.439605
Br	1.974009	0.0	0.0
H	-0.030887	-0.58925	-2.040692
H	-1.54686	0.076364	-1.420949
N	-0.433292	1.108265	0.819949
H	-1.456112	1.104321	0.750411
H	-0.194815	0.917984	1.788288
N	-0.405909	-1.331997	0.401622
H	-1.427613	-1.328859	0.339934
H	-0.163761	-1.47014	1.378549
C	-0.134848	1.581365	-2.025525
H	-0.595181	2.37289	-1.433824
H	-0.521337	1.645892	-3.047452
H	0.943041	1.759285	-2.054381
Br	-3.79993	0.0	0.0
