16

C	0.0	0.0	0.0
C	-0.462651	-0.214137	-1.439076
Br	1.974008	0.0	0.0
H	-0.037336	0.59427	-2.039
H	-1.549309	-0.078179	-1.416441
N	-0.404943	1.331482	0.403728
H	-1.426651	1.330793	0.342336
H	-0.160569	1.469502	1.379898
N	-0.431896	-1.109957	0.818899
H	-0.192637	-0.920448	1.787295
H	-1.454292	-1.108042	0.749872
C	-0.134597	-1.577821	-2.028855
H	-0.523187	-1.641444	-3.050027
H	-0.592097	-2.370635	-1.437294
H	0.943571	-1.752819	-2.060013
Br	-3.803024	0.0	0.0
