16

C	-0.466642	-0.036343	-1.449715
C	0.0	0.0	0.0
F	-0.132488	1.135085	-2.119946
H	1.099969	0.0	0.0
C	0.144954	-1.166801	-2.173849
N	0.587732	-2.055556	-2.799914
C	-1.941671	-0.166283	-1.529582
N	-3.114909	-0.204635	-1.572799
N	-0.423394	-1.276136	0.57576
H	-1.168895	-1.157711	1.250561
H	0.381717	-1.683527	1.035946
C	-0.53036	1.221167	0.724229
H	-1.619391	1.188456	0.871914
H	-0.04356	1.269852	1.701395
H	-0.277346	2.13534	0.18348
F	2.600531	0.0	0.0
