16

C	-0.451347	-0.000189	-1.441226
C	0.0	0.0	0.0
F	-1.85239	0.107591	-1.564563
H	1.100824	0.0	0.0
C	0.120603	1.138776	-2.18832
N	0.541995	2.052776	-2.793547
C	-0.069544	-1.254159	-2.11697
N	0.196502	-2.231433	-2.710149
N	-0.427863	-1.259289	0.606311
H	-1.188702	-1.120138	1.260425
H	0.371003	-1.629209	1.107498
C	-0.485239	1.238138	0.735959
H	-0.007377	1.25138	1.718401
H	-1.574564	1.244596	0.868332
H	-0.191656	2.156539	0.220451
F	2.586842	0.0	0.0
