16

C	-0.318726	-0.034907	-1.481937
C	0.0	0.0	0.0
F	-1.704249	-0.191913	-1.727654
H	1.095913	0.0	0.0
C	0.087606	1.197883	-2.178443
N	0.377865	2.18186	-2.749465
C	0.341317	-1.190215	-2.118318
N	0.821085	-2.117997	-2.653881
N	-0.423034	-1.236618	0.650556
H	0.341838	-1.897766	0.588328
H	-1.248674	-1.638525	0.222052
C	-0.587385	1.221649	0.679785
H	-1.682913	1.240284	0.632278
H	-0.290056	1.184409	1.728551
H	-0.195449	2.146574	0.248493
F	2.587148	0.0	0.0
