16

C	-0.475197	-0.008072	-1.448936
C	0.0	0.0	0.0
F	-0.098888	1.154571	-2.109442
H	1.100006	0.0	0.0
C	0.085135	-1.156865	-2.185607
N	0.482755	-2.060787	-2.820503
C	-1.953776	-0.080075	-1.524895
N	-3.127801	-0.066667	-1.566291
N	-0.429323	-1.28502	0.558479
H	0.398109	-1.738604	0.9294
H	-1.099277	-1.160515	1.308336
C	-0.533639	1.206091	0.745848
H	-0.300128	2.128515	0.210182
H	-1.620161	1.158402	0.906951
H	-0.033607	1.252062	1.716622
F	2.602255	0.0	0.0
