16

C	-0.473908	-0.016307	-1.434819
C	0.0	0.0	0.0
F	-1.881144	-0.000377	-1.523721
H	1.095744	0.0	0.0
C	-0.000173	1.16304	-2.185706
N	0.366035	2.096635	-2.79631
C	-0.021604	-1.236807	-2.126566
N	0.341944	-2.199365	-2.690865
N	-0.419074	-1.259932	0.611741
H	0.378413	-1.61502	1.123632
H	-1.190598	-1.126335	1.252729
C	-0.485449	1.238718	0.735434
H	-1.577322	1.258584	0.848509
H	-0.025814	1.238035	1.727337
H	-0.167651	2.156561	0.232823
F	2.58915	0.0	0.0
