13

C	0.0	0.0	0.0
C	-0.481392	-0.187783	-1.443778
Br	1.93234	0.0	0.0
H	0.363879	-0.169758	-2.14202
H	-0.34304	0.936715	0.415271
H	-0.33996	-0.832036	0.602938
N	-1.234408	1.090784	-1.897599
O	-0.892033	2.175143	-1.436146
O	-2.024201	0.951754	-2.82647
N	-1.249001	-1.366393	-1.594491
H	-1.561064	-1.428244	-2.555654
H	-2.061289	-1.121161	-0.970334
F	-2.599067	0.0	0.0
