13

C	0.0	0.0	0.0
C	-0.243752	-0.099219	-1.535538
Br	1.937581	0.0	0.0
H	0.264239	0.75624	-1.985675
H	-0.372961	-0.855624	0.544947
H	-0.364415	0.928497	0.414837
N	-1.66863	0.006481	-2.066117
O	-2.027824	1.13309	-2.385467
O	-2.247266	-1.016105	-2.395354
N	0.262021	-1.299502	-2.178058
H	-0.185077	-2.104428	-1.758555
H	1.261421	-1.355626	-2.051871
F	-2.291647	0.0	0.0
