13

C	0.0	0.0	0.0
C	-0.618902	-0.068158	-1.376955
Br	1.939985	0.0	0.0
H	-1.710192	-0.246196	-1.041418
H	-0.311989	-0.859493	0.583848
H	-0.350459	0.905242	0.484917
N	-0.077847	-1.266277	-2.085932
O	0.427831	-1.145999	-3.202061
O	-0.169782	-2.339645	-1.484157
N	-0.534042	1.10201	-2.191862
H	0.358089	1.572249	-2.093351
H	-1.27901	1.716423	-1.889523
F	-2.754735	0.0	0.0
