12

C	-0.522747	-0.078371	-1.41662
C	0.0	0.0	0.0
Br	-0.259844	1.596474	-2.412274
H	1.093422	0.0	0.0
H	0.006954	-0.848294	-1.983038
H	-1.602633	-0.263086	-1.459405
H	-0.358448	0.91335	0.484104
C	-0.457475	-1.231907	0.782718
H	-0.085419	-2.144037	0.307568
H	-0.034854	-1.203016	1.789882
H	-1.547825	-1.305144	0.865015
H	3.120943	0.0	0.0
