12

C	-0.538364	0.061234	-1.412402
C	0.0	0.0	0.0
Br	-0.249776	-1.583568	-2.449912
H	1.093845	0.0	0.0
H	-0.033079	0.843633	-1.981465
H	-1.620263	0.214315	-1.448378
H	-0.298746	0.95594	0.457898
C	-0.539317	-1.15088	0.836228
H	-0.171229	-1.063556	1.861946
H	-1.636291	-1.176204	0.862241
H	-0.184547	-2.106059	0.44506
H	3.112237	0.0	0.0
