15

C	0.0	0.0	0.0
C	-0.453042	-0.050453	-1.493834
F	1.385247	0.0	0.0
H	0.44435	-0.436543	-1.994648
H	-0.362049	0.885526	0.52667
C	-0.395681	-1.215626	0.730739
N	-0.592584	-2.225349	1.295217
C	-0.735536	1.366657	-1.973261
H	0.092274	2.040104	-1.727297
H	-0.882948	1.362733	-3.05462
H	-1.653597	1.728355	-1.501765
N	-1.561292	-0.907562	-1.842174
H	-1.373848	-1.861588	-1.55525
H	-2.410348	-0.609729	-1.350779
Cl	-4.032544	0.0	0.0
