15

C	0.0	0.0	0.0
C	-0.486926	-0.125011	-1.444862
F	1.388904	0.0	0.0
H	-1.574937	-0.195407	-1.382163
H	-0.358511	0.931236	0.442534
C	-0.389425	-1.133986	0.857354
N	-0.565172	-2.032161	1.592005
C	0.090484	-1.362517	-2.115539
H	-0.303884	-1.424162	-3.130364
H	1.181278	-1.309377	-2.171449
H	-0.186576	-2.270115	-1.574492
N	-0.147111	1.068835	-2.221585
H	0.805416	1.346706	-2.008918
H	-0.762659	1.82343	-1.936492
Cl	-3.508267	0.0	0.0
