15

C	0.0	0.0	0.0
C	-0.412866	0.706134	-1.342481
F	1.386858	0.0	0.0
H	0.54518	0.742987	-1.874933
H	-0.359135	0.517627	0.8902
C	-0.400653	-1.413982	0.028527
N	-0.617965	-2.566033	-0.027863
C	-0.866686	2.128592	-1.043858
H	-1.002268	2.66901	-1.98241
H	-0.121766	2.653766	-0.435417
H	-1.821317	2.096521	-0.514891
N	-1.371736	0.057272	-2.209162
H	-2.264763	0.003135	-1.712858
H	-1.081688	-0.896442	-2.395651
Cl	-3.692965	0.0	0.0
