15

C	0.0	0.0	0.0
C	-0.456351	-0.219732	-1.480456
F	1.38922	0.0	0.0
H	0.475378	-0.541745	-1.963175
H	-0.356743	0.943012	0.41863
C	-0.397689	-1.115148	0.873358
N	-0.595834	-2.042584	1.564719
C	-0.908435	1.108959	-2.072524
H	-0.156677	1.889628	-1.917057
H	-1.078763	0.9856	-3.143652
H	-1.850353	1.402039	-1.602282
N	-1.462741	-1.225346	-1.741215
H	-1.186201	-2.112579	-1.335909
H	-2.33879	-0.945004	-1.291007
Cl	-3.87978	0.0	0.0
