13
Coordinates from ORCA-job run
  C   0.63271197944721     -0.08950798719068     -0.53079977124994
  C   -0.62006378624624     -0.80373496805549     -0.05554375600643
  F   1.41774082422953     -0.93806222321297     -1.25130965211836
  H   -1.14852019652987     -1.16553098714581     -0.94612592529072
  H   -0.27563870745691     -1.66849150872494      0.51410898842496
  N   1.44119753842055      0.31950079421042      0.70026465937356
  O   1.79337810696745     -0.61631089316792      1.40533666109902
  O   1.66657249830625      1.50871245280348      0.87366628261354
  C   0.32328319350400      1.10388047876306     -1.32215185129255
  N   -0.00068419580703      1.99714006980332     -2.01222468448474
  N   -1.36077640297191      0.10874560331186      0.79125489908726
  H   -1.80396353456039     -0.37239456599904      1.55921961426321
  H   -2.06523731730266      0.61605373460470      0.27430453558119
