13
Coordinates from ORCA-job run
  C   0.45204553112881      0.11521993535922     -0.56439919792870
  C   -0.94577385504138      0.09640493373979      0.03177856939833
  F   0.61739650165167     -0.94323355606276     -1.39551314706973
  H   -1.64917262311291      0.20217954164243     -0.80542572245941
  H   -1.04265308614001      0.97164716690586      0.67471492943797
  N   1.45325224997953     -0.02802127038260      0.58515328306198
  O   2.17175942711319     -1.00973530873969      0.58830628966139
  O   1.40779040723845      0.88165479617330      1.40177203056545
  C   0.75944333629250      1.36124345518557     -1.27197528846681
  N   0.95568616200734      2.36387273943837     -1.85129751600326
  N   -1.07763962222911     -1.11448277940737      0.81415311197505
  H   -1.35037023935030     -1.89916929112287      0.23990473378503
  H   -1.75376418953778     -0.99858036272925      1.55382792404269
