13
Coordinates from ORCA-job run
  C   0.47774825912547      0.12901512012866     -0.53837068012001
  C   -0.95066628966086      0.03972034574308     -0.02824836059008
  F   0.75751160605562     -0.94094989781484     -1.32408059761541
  H   -1.60443393489537      0.07252770837072     -0.91074942957510
  H   -1.14290424031770      0.92686553310504      0.57586166415779
  N   1.41084925310259      0.07907619341400      0.67479840398604
  O   1.27071881770093      1.01561139185787      1.44894576483443
  O   2.16999945071777     -0.86711930432611      0.76331001852000
  C   0.75474676353133      1.37030083823097     -1.26596337187234
  N   0.93220348829560      2.36355936819700     -1.86713588092768
  N   -1.05588995847377     -1.15002990803475      0.79003864774805
  H   -1.21069134603556     -1.97299414838051      0.22488108071414
  H   -1.80819186914606     -1.06558324049112      1.45771274074016
