15

C	-0.467083	-0.008052	-1.421011
C	0.0	0.0	0.0
F	0.067121	-0.945154	-2.179542
H	1.089048	0.0	0.0
H	-0.364979	0.876687	0.524644
N	-1.990873	-0.09977	-1.556664
O	-2.410616	-0.583369	-2.600926
O	-2.645194	0.369625	-0.635103
N	-0.157713	1.352697	-2.070177
O	-0.4767	2.336379	-1.413779
O	0.333109	1.326195	-3.188712
N	-0.493072	-1.191731	0.728731
O	-0.332283	-1.178525	1.944002
O	-1.016169	-2.101984	0.083322
Cl	3.195462	0.0	0.0
