15

C	-0.473267	-0.028934	-1.41857
C	0.0	0.0	0.0
F	0.058859	-0.975378	-2.168421
H	1.089065	0.0	0.0
H	-0.363581	0.884925	0.512346
N	-1.998611	-0.122663	-1.542097
O	-2.42946	-0.636487	-2.565435
O	-2.646854	0.36871	-0.627807
N	-0.168232	1.323776	-2.084365
O	-0.499448	2.315829	-1.445644
O	0.334869	1.28215	-3.196398
N	-0.492807	-1.178578	0.749557
O	-1.00098	-2.10278	0.115959
O	-0.343255	-1.145869	1.964037
Cl	3.194599	0.0	0.0
