15

C	-0.539426	0.025949	-1.400988
C	0.0	0.0	0.0
F	0.054392	1.009201	-2.084748
H	1.091513	0.0	0.0
H	-0.342201	0.898783	0.512196
N	-0.351655	-1.258321	-2.212088
O	-1.354777	-1.915106	-2.460594
O	0.795688	-1.473086	-2.560245
N	-2.042035	0.297556	-1.442309
O	-2.466578	0.862755	-2.440936
O	-2.688777	-0.084467	-0.4745
N	-0.458566	-1.155117	0.800729
O	-0.741565	-0.939913	1.974523
O	-0.463233	-2.254371	0.251296
Cl	3.202958	0.0	0.0
