15

C	-0.470715	-0.122298	-1.414463
C	0.0	0.0	0.0
F	0.104593	-1.078867	-2.116105
H	1.093021	0.0	0.0
H	-0.370004	0.910581	0.460039
N	-1.990957	-0.295895	-1.533407
O	-2.392438	-0.879613	-2.530021
O	-2.664846	0.20752	-0.643918
N	-0.2285	1.20953	-2.146702
O	-0.647867	2.209908	-1.577112
O	0.319019	1.143198	-3.23531
N	-0.477395	-1.138812	0.818571
O	-0.371146	-1.013614	2.033337
O	-0.922948	-2.127892	0.235554
Cl	3.193427	0.0	0.0
