15

C	-0.467386	0.002935	-1.42126
C	0.0	0.0	0.0
F	-0.004538	-0.991869	-2.15356
H	1.089765	0.0	0.0
H	-0.35687	0.880974	0.52556
N	-1.993487	0.027991	-1.562703
O	-2.596194	0.683541	-0.722238
O	-2.464778	-0.564129	-2.522075
N	-0.04932	1.31807	-2.097005
O	0.34014	1.230901	-3.2514
O	-0.196879	2.334253	-1.430181
N	-0.517794	-1.184058	0.727224
O	-1.2476	-1.971063	0.118771
O	-0.192641	-1.281258	1.902453
Cl	3.207176	0.0	0.0
