15

C	-0.378408	-0.003998	-1.447748
C	0.0	0.0	0.0
Br	-2.528067	-0.319582	-1.64137
H	1.097465	0.0	0.0
H	-0.051112	-0.908419	-1.955672
N	-0.004266	1.132997	-2.1383
H	-0.208806	1.091377	-3.125036
H	-0.345834	1.989837	-1.729321
C	-0.439591	-1.210035	0.670549
N	-0.75741	-2.177786	1.258141
C	-0.411108	1.251682	0.767379
H	0.155165	2.10749	0.388819
H	-0.129531	1.135431	1.815626
H	-1.486034	1.444353	0.703484
H	2.658583	0.0	0.0
