15

C	-0.43292	-0.01457	-1.45193
C	0.0	0.0	0.0
Br	-0.020555	-1.737426	-2.301277
H	1.095557	0.0	0.0
H	0.226223	0.685648	-1.983015
N	-1.853255	0.221007	-1.629443
H	-2.0832	1.10774	-1.194761
H	-2.065581	0.289369	-2.619418
C	-0.542511	-1.102491	0.772481
N	-0.964656	-1.963089	1.454059
C	-0.343448	1.339812	0.663686
H	0.023399	2.157393	0.035134
H	-1.41104	1.473012	0.862733
H	0.199838	1.399247	1.609951
H	2.733969	0.0	0.0
