15

C	-0.336282	-0.128861	-1.500873
C	0.0	0.0	0.0
Br	-0.253753	1.653937	-2.381321
H	1.09701	0.0	0.0
H	-1.371933	-0.429071	-1.671962
N	0.55761	-1.018064	-2.175023
H	1.491033	-0.890142	-1.774975
H	0.261677	-1.972855	-2.004124
C	-0.441344	-1.256803	0.592725
N	-0.820455	-2.267991	1.060808
C	-0.550093	1.189012	0.774757
H	-0.059046	2.099123	0.431493
H	-0.325249	1.063194	1.836687
H	-1.632723	1.300943	0.654673
H	2.792145	0.0	0.0
