15

C	-0.309409	-3.7e-05	-1.487302
C	0.0	0.0	0.0
Br	-2.276584	0.049831	-1.835117
H	1.099389	0.0	0.0
H	0.00255	-0.954555	-1.91396
N	0.321618	1.057342	-2.233485
H	0.041954	1.94864	-1.83854
H	1.323333	0.951586	-2.047884
C	-0.459534	-1.222721	0.638687
N	-0.811548	-2.213883	1.165156
C	-0.452651	1.229342	0.777493
H	-0.046758	2.133642	0.318446
H	-0.043415	1.177525	1.788963
H	-1.540951	1.308831	0.831811
H	2.741532	0.0	0.0
