15

C	-0.477867	0.037608	-1.448473
C	0.0	0.0	0.0
Br	0.018604	-1.627669	-2.358468
H	1.094536	0.0	0.0
H	0.100188	0.812458	-1.958652
N	-1.889946	0.263835	-1.692483
H	-2.122846	1.191368	-1.353502
H	-2.425336	-0.408569	-1.151768
C	-0.559373	-1.126657	0.723375
N	-1.055338	-2.013978	1.316489
C	-0.353182	1.311726	0.71165
H	-1.426736	1.448473	0.874779
H	0.156777	1.33083	1.677677
H	0.039266	2.149755	0.127014
H	2.735294	0.0	0.0
