16
Coordinates from ORCA-job run
  C   1.00051436261976     -0.18630367900734      0.04485681862276
  C   -0.25883743890042      0.68463054458085     -0.13691542695101
  Cl  2.21111883877918      0.42041105399266     -1.13931906766639
  H   0.04338535584643      1.73175995209205     -0.10296486279765
  N   0.75172910209508     -1.56812332619282     -0.25219815912307
  H   1.60657154702846     -2.10451299599285     -0.15934853206249
  H   0.05755163041301     -1.92155756736145      0.39788794676977
  C   1.57520707116748      0.06130724609944      1.38199659646984
  N   2.01060079341780      0.21198012449637      2.46394770558367
  N   -1.16867361936378      0.51579448238347      1.04787733005533
  O   -1.68462977029002      1.53210195167058      1.49908062790954
  O   -1.36938259862379     -0.63133155254060      1.44853342241075
  C   -1.05094540999404      0.36663556535913     -1.39141292664271
  H   -1.42383887229665     -0.65573216850430     -1.36212510854263
  H   -1.88760809597321      1.06328700900409     -1.47332159887676
  H   -0.41276289592530      0.47765335992070     -2.26757476515895
