16
Coordinates from ORCA-job run
  C   1.01601420865841     -0.10899148955035      0.30684428309484
  C   -0.24312500536763      0.58326694720647     -0.25716967284132
  Cl  2.06712921330173      1.17680527078444      0.99580486690783
  H   0.09207499263874      1.26237611427493     -1.04414180689843
  N   1.77581666024659     -0.80661026336904     -0.69649954577900
  H   1.93913029168612     -0.22494403349696     -1.50945463584597
  H   1.34060876725767     -1.68184960837551     -0.95766691144543
  C   0.68570026492276     -1.07118441585395      1.36337976457495
  N   0.42955914548698     -1.90928431664974      2.14537769119134
  N   -0.87955776073052      1.47446508818581      0.76535970137664
  O   -0.98724436405220      2.66387470421637      0.47890680212451
  O   -1.27078064468831      0.93659226895999      1.79796649252725
  C   -1.29230064364241     -0.39596402201355     -0.75087658665146
  H   -2.15113025695161      0.15427714651367     -1.14079061483324
  H   -0.89384678905680     -1.00934142345862     -1.56005347699506
  H   -1.63004807970953     -1.04048796737397      0.06201364949255
