16
Coordinates from ORCA-job run
  C   0.73681847399663     -0.44286452522826      0.40543122253182
  C   -0.39047564267566      0.26755686728375     -0.37204675175769
  Cl  0.24220499538291     -0.85516115899566      2.07593425189908
  H   -0.04252529194043      0.36033626448925     -1.40453656079849
  N   1.88125137275946      0.41809838733744      0.49100517164824
  H   2.15290972811706      0.76314590561828     -0.42295753568476
  H   2.66133167426353     -0.05585606682037      0.92925582436417
  C   0.98385546296848     -1.72427729683583     -0.28658598265869
  N   1.22299677210496     -2.70666030836485     -0.88730343190209
  N   -0.47599800688087      1.68534991095141      0.11366214260149
  O   -1.12699586670748      1.89669128159478      1.13088476897279
  O   0.12431894178659      2.52571398059094     -0.55309070406982
  C   -1.74096762441388     -0.40928904727219     -0.30919669695763
  H   -2.12426414498358     -0.40812667667672      0.70879252817644
  H   -2.44567141105377      0.12242019210484     -0.95129169848295
  H   -1.65978943272396     -1.43807770977679     -0.66595654788191
