15

C	-0.183415	0.062508	-1.502875
C	0.0	0.0	0.0
Cl	-1.959728	0.812153	-1.834525
H	1.092639	0.0	0.0
H	-0.341128	0.924385	0.458834
N	0.735474	1.033892	-2.048006
H	0.469942	1.951477	-1.70723
H	1.631568	0.785968	-1.593365
N	0.001272	-1.133419	-2.173471
H	-0.538056	-1.902386	-1.806957
H	-0.04987	-1.002867	-3.173549
N	-0.611172	-1.088258	0.757384
O	-0.835154	-0.872879	1.949275
O	-0.842712	-2.175799	0.214817
F	2.582376	0.0	0.0
