15

C	-0.034557	0.002505	-1.522849
C	0.0	0.0	0.0
Cl	-1.705653	-0.165764	-2.233339
H	1.090591	0.0	0.0
H	-0.470196	-0.895153	0.393017
N	0.511052	1.253729	-1.998364
H	1.409707	1.33832	-1.517308
H	0.692213	1.162636	-2.990731
N	0.704868	-1.202419	-1.856579
H	0.862636	-1.217676	-2.859711
H	1.609227	-1.066084	-1.379802
N	-0.595141	1.167447	0.647166
O	0.001519	2.243096	0.594758
O	-1.664597	0.998936	1.244386
F	2.64164	0.0	0.0
