15

C	-0.192994	0.145403	-1.501163
C	0.0	0.0	0.0
Cl	-0.093444	-1.849019	-2.208265
H	1.086549	0.0	0.0
H	-0.410238	0.896009	0.472876
N	-1.442324	0.588354	-1.953037
H	-2.160175	0.006534	-1.539354
H	-1.505895	0.531015	-2.962504
N	0.919315	0.794178	-1.972913
H	1.782522	0.509828	-1.448609
H	1.01189	0.821622	-2.978907
N	-0.708132	-1.141055	0.597481
O	-1.932527	-1.175038	0.42922
O	-0.078604	-1.953597	1.262894
F	2.666263	0.0	0.0
