15

C	-0.237983	0.064831	-1.519093
C	0.0	0.0	0.0
Cl	-0.148359	-1.716118	-2.146858
H	1.088442	0.0	0.0
H	-0.410172	0.91494	0.432072
N	-1.500252	0.532356	-2.033238
H	-2.236187	-0.002981	-1.589413
H	-1.582729	1.497039	-1.732587
N	0.817722	0.860509	-1.986612
H	0.886429	0.834089	-2.993433
H	1.70035	0.609107	-1.501824
N	-0.701122	-1.113274	0.65441
O	-1.940458	-1.074087	0.626716
O	-0.05507	-2.006373	1.194235
F	2.658491	0.0	0.0
