15

C	-0.437395	0.048633	-1.462779
C	0.0	0.0	0.0
F	0.223357	1.086403	-2.083625
H	1.091318	0.0	0.0
C	-0.01351	-1.193465	-2.14002
N	0.334262	-2.161287	-2.706501
C	-1.886419	0.24253	-1.680075
N	-3.028024	0.408247	-1.900652
N	-0.484126	-1.236409	0.652042
O	0.047824	-1.568929	1.704178
O	-1.392344	-1.857796	0.082388
N	-0.5058	1.162003	0.762336
O	-0.430045	1.118589	1.985071
O	-0.917894	2.121013	0.107096
F	2.409325	0.0	0.0
