15

C	-0.428452	0.02944	-1.466316
C	0.0	0.0	0.0
F	0.2451	1.049562	-2.103472
H	1.091322	0.0	0.0
C	-0.012535	-1.228374	-2.119387
N	0.314866	-2.217552	-2.661534
C	-1.872575	0.233073	-1.694981
N	-3.011765	0.404007	-1.923884
N	-0.485869	-1.229691	0.664556
O	-1.411125	-1.84135	0.114801
O	0.062196	-1.565063	1.706193
N	-0.516155	1.168918	0.742801
O	-0.506115	1.119386	1.96884
O	-0.870912	2.140181	0.071527
F	2.409201	0.0	0.0
