11

C	0.0	0.0	0.0
C	-0.512965	-0.367655	-1.393943
Br	1.947529	0.0	0.0
H	-1.613766	-0.316911	-1.333301
H	-0.343034	-0.724274	0.738676
H	-0.148743	0.357658	-2.12621
C	-0.410523	1.346808	0.390794
N	-0.598689	2.463151	0.704559
C	-0.090361	-1.706773	-1.785279
N	0.243351	-2.785825	-2.106101
Br	-3.557875	0.0	0.0
