11

C	0.0	0.0	0.0
C	-0.444367	0.383498	-1.418084
Br	1.947703	0.0	0.0
H	-1.541233	0.327676	-1.432314
H	-0.362197	-0.998591	0.241535
H	-0.022859	-0.339394	-2.121807
C	-0.412326	0.952605	1.027724
N	-0.559558	1.737285	1.88995
C	0.01569	1.715553	-1.800456
N	0.406873	2.776319	-2.114549
Br	-3.430426	0.0	0.0
