11

C	0.0	0.0	0.0
C	-0.536819	0.247752	-1.410534
Br	1.949964	0.0	0.0
H	-1.637216	0.228323	-1.311474
H	-0.336172	-0.967267	0.373685
H	-0.219195	1.232109	-1.764167
C	-0.407004	1.061384	0.918545
N	-0.589226	1.94901	1.666244
C	-0.096218	-0.772765	-2.353952
N	0.258107	-1.582496	-3.126233
Br	-3.58498	0.0	0.0
