16
Coordinates from ORCA-job run
  C   0.94494049755102      0.02497761295450     -0.26061314267750
  C   -0.56968247457099      0.20022489302529     -0.35183924567289
  Br  1.64661311552400     -0.24197393114907     -2.05737892276490
  H   -0.78318855903928      0.99201565902066     -1.07029386716112
  N   1.59718034400601      1.32645901126323      0.24214133403001
  O   2.62496628112447      1.20939535250878      0.88717029733720
  O   1.03770900165883      2.35694429886205     -0.10051478352356
  C   1.36000418765160     -1.08639713156053      0.57543515160847
  N   1.65374256968048     -2.03965993289693      1.19843677769731
  N   -1.08466891405417      0.72062401763644      0.96707149949840
  O   -2.22089914507972      1.17485215098795      0.94821886722241
  O   -0.35180290420151      0.62122801055608      1.94856864049509
  C   -1.31978755712293     -1.08160933658039     -0.67138273906866
  H   -1.15624662513395     -1.82934231207582      0.10739008525818
  H   -2.38506757213578     -0.85845114867594     -0.73295356619795
  H   -0.99281224585807     -1.48728721387631     -1.62845638608050
