16
Coordinates from ORCA-job run
  C   0.90733965628044      0.33801674377473     -0.01328395327051
  C   -0.55102754968973     -0.08558209258101     -0.29251136385581
  Br  1.03484227319326      1.72839868533064      1.30724048825185
  H   -0.51764006457366     -0.74163989853429     -1.16586027825920
  N   1.58468634693340     -0.96970923713202      0.49280964507127
  O   1.67096775303360     -1.82741020614934     -0.37653101645906
  O   1.90094254808130     -1.05686484831244      1.66400303000114
  C   1.63188108050449      0.74291013641300     -1.20798903996749
  N   2.25867897774787      1.06234135488451     -2.15080691615879
  N   -1.29947172394214      1.13819948623947     -0.75792916997275
  O   -1.02027996313394      1.53375975071060     -1.88717723435859
  O   -2.10731571467209      1.64467790048133      0.01302489802030
  C   -1.23744448634413     -0.74665275476641      0.88092439924431
  H   -0.77509473990514     -1.71343366292846      1.08716014868661
  H   -1.19773818240414     -0.12475493477899      1.77361149281557
  H   -2.28432621110939     -0.92125642265132      0.63131487021116
