16
Coordinates from ORCA-job run
  C   0.89868542241484      0.36175494417600     -0.01761246714813
  C   -0.54405170761708     -0.11337633489647     -0.29521198469969
  Br  0.97161293652309      1.81545493768860      1.23711790663134
  H   -0.48155303614155     -0.80684455585896     -1.13751978133942
  N   1.60231096756779     -0.90268161952393      0.55923797193316
  O   1.90335723098592     -0.92627175888811      1.73736166403376
  O   1.72419667125121     -1.79738576529271     -0.26757075513464
  C   1.62865377688059      0.72872820072922     -1.22109428756927
  N   2.25678379334583      1.01923676616924     -2.17229175938359
  N   -1.31817601865823      1.06773684575072     -0.82501937424167
  O   -2.14815732356660      1.58753068306593     -0.08706051361096
  O   -1.03629395842230      1.41756953799272     -1.96867863255162
  C   -1.22887154913732     -0.73925198766789      0.89829812485750
  H   -1.21650294274380     -0.07814936142139      1.76305097724587
  H   -0.74525242202280     -1.68403813954147      1.15180385682987
  H   -2.26774184065959     -0.95101239248151      0.64418905414750
