16
Coordinates from ORCA-job run
  C   -0.66799730431397     -0.34306854852741     -0.05526212170557
  C   0.72998423865024     -0.72533170983127      0.42009115825306
  Cl  -1.78495827852913     -1.70520377887811      0.56510270063010
  H   0.69016501655821     -0.89741469336085      1.49869734375172
  H   0.98731095936874     -1.68847880743398     -0.03471187187955
  C   -1.19699196040904      0.93578457966555      0.56522549499605
  H   -0.61089227447494      1.78400843171368      0.20757487452677
  H   -1.14348244932055      0.88609701261724      1.65323798043286
  H   -2.24099958796359      1.09047886256777      0.28419602970238
  N   -0.70354249608810     -0.25228593648813     -1.47264703998959
  H   -1.62950085951688     -0.01118748840099     -1.80398920878078
  H   -0.42364473534750     -1.12581399467919     -1.90239139232240
  C   1.79154880952900      0.31717702774378      0.08048588473153
  H   1.78982899797883      0.54289948305322     -0.98614177633762
  H   2.78149048769917     -0.05591360447019      0.35383975172431
  H   1.63168143617951      1.24825316470887      0.62769219226673
