16
Coordinates from ORCA-job run
  C   -0.58975595244956     -0.10399714778605     -0.00126343460215
  C   0.79715580483149      0.23074685505773      0.53642259572574
  Cl  -0.95506492564347     -1.86281541524229      0.52185157938063
  H   0.80106132026011      0.01839046423981      1.60853551442133
  H   0.91893723601394      1.31282669532641      0.41383732797760
  C   -1.66615641185049      0.74413140418667      0.64880995689638
  H   -2.65777824668490      0.43543962166384      0.31025033393429
  H   -1.50660413641022      1.78900562613840      0.37212898992134
  H   -1.63180335489230      0.64448943613327      1.73380867230820
  N   -0.64155852580338      0.03948573734558     -1.41248103966106
  H   -0.00202833405456     -0.59318071044216     -1.87547474464069
  H   -1.57528282600181     -0.13927179622872     -1.76136052823221
  C   1.94984026653978     -0.49418272719778     -0.14700147590440
  H   1.80884256626112     -1.57624296921515     -0.11950486484235
  H   2.89014711418557     -0.26701437013040      0.35966339757090
  H   2.06104840569869     -0.17681070384917     -1.18622228025355
