16
Coordinates from ORCA-job run
  C   -0.60109400301600     -0.26718400843745     -0.20653591494716
  C   0.90523352717785     -0.25390168469582     -0.44733915655476
  Cl  -0.95337062884437     -1.70383753327304      0.93165579847783
  H   1.18193099477734     -1.22026167830225     -0.88281943638998
  H   1.07611377031546      0.50544079321643     -1.21814262857618
  C   -1.12168439387157      0.96729542800118      0.50269177630362
  H   -2.20802287545688      0.91422479415880      0.60360835296982
  H   -0.69677574905321      1.06315501962676      1.50034947624496
  H   -0.86761040937309      1.84882288227257     -0.09148732179634
  N   -1.27082109476342     -0.42755474789418     -1.45115713298347
  H   -0.95094140154476     -1.25995689859835     -1.93180297377379
  H   -2.27274481412066     -0.49833657941651     -1.32053390957719
  C   1.77140937838310      0.02895259593049      0.77252550122574
  H   2.82742839253703     -0.05584682937343      0.50654246171228
  H   1.61177551812794      1.03912601510925      1.15418830520980
  H   1.56917378872523     -0.68013756832445      1.57625680245482
