16
Coordinates from ORCA-job run
  C   -0.65773399849375     -0.35003050909072     -0.10327369222236
  C   0.83819179220741     -0.29177484644496     -0.42760043930450
  Cl  -0.91339576061145     -1.72652670599792      1.04656613143652
  H   0.94784253885109      0.44771491136196     -1.23148332320858
  H   1.11975567654543     -1.26163967767654     -0.85209625276741
  C   -1.17392406172557      0.91437231363198      0.55746833782106
  H   -0.97451798780492      1.77578736159875     -0.08942227707056
  H   -2.25002421680859      0.82537401937051      0.70653218596953
  H   -0.69540338796738      1.08589358196324      1.52061104919172
  N   -1.48505405028062     -0.63680649114006     -1.25902406285179
  H   -1.45219111483507      0.15575784897583     -1.89192572789386
  H   -1.12531252616228     -1.44855224459216     -1.74966832360583
  C   1.77058157435751      0.06129119525006      0.72546216037895
  H   1.60127716825516      1.07844395871396      1.08374881144265
  H   2.81177220081658     -0.00254839377429      0.40090549115627
  H   1.63713615365646     -0.62575632214965      1.56219993152819
