16
Coordinates from ORCA-job run
  C   -0.66098153418864     -0.46279302682159     -0.00744914717586
  C   0.76308412558475     -0.70935972873911      0.48345954938685
  Cl  -1.66638013639618     -1.84565675338538      0.57873790679685
  H   0.74901312908109     -0.73324514267271      1.57722165978783
  H   1.05190788342110     -1.70482823116018      0.13811336198811
  C   -1.28144765488953      0.80300170576160      0.57316812148165
  H   -2.32085183194406      0.89241705074706      0.25071379898544
  H   -0.73653400378654      1.68135242975474      0.21649478637268
  H   -1.25836320154638      0.79452124570086      1.66497710809514
  N   -0.69136757095127     -0.52883494036235     -1.45987619257889
  H   -1.65443190941220     -0.52427561380269     -1.77829912898138
  H   -0.24443558463444      0.30174681125292     -1.83410651063445
  C   1.77976571876104      0.31780406243757     -0.00908291570008
  H   2.76600647399323      0.08535061393577      0.39872965521518
  H   1.53218090093455      1.33440862577281      0.30426053648356
  H   1.87283519597346      0.29739089158069     -1.09706258952264
