16
Coordinates from ORCA-job run
  C   -0.74494857895243     -0.40398715260217      0.00646217808071
  C   0.69067426777434     -0.72882963511328      0.43455937654836
  Cl  -1.76500467125122     -1.75845953586778      0.65536437746182
  H   0.94565377228965     -1.71045418109466      0.02060273098040
  H   0.71802396382171     -0.83468893232985      1.52328952317116
  C   -1.26591219996415      0.88772232244777      0.61007983318153
  H   -0.71262816141719      1.74354050956840      0.21304019898311
  H   -1.15934683406719      0.87664178729392      1.69559541971429
  H   -2.31878203058006      1.00727009787128      0.35493286653271
  N   -0.96700552292238     -0.37353495234764     -1.42103457888632
  H   -0.54524649562604     -1.17940290932362     -1.86823231754130
  H   -0.57005606833227      0.46942868764975     -1.81763497076118
  C   1.71740097823943      0.30612757285792     -0.01644015189653
  H   2.72369814552008     -0.02348259844020      0.25127569270980
  H   1.55585070638835      1.27644419327499      0.45712140758377
  H   1.69962872907936      0.44466472615516     -1.09998158586231
