20

C	-0.420505	0.120118	-1.454467
C	0.0	0.0	0.0
F	-1.73399	0.550049	-1.573901
H	1.09462	0.0	0.0
C	0.484238	1.01069	-2.268447
H	0.329903	2.042346	-1.947787
H	0.245155	0.933379	-3.332312
H	1.52374	0.73354	-2.070437
N	-0.417335	-1.269722	-2.082418
O	-1.485315	-1.873816	-2.15146
O	0.672604	-1.708758	-2.434539
C	-0.50651	-1.261966	0.685627
H	-0.20155	-1.235658	1.735306
H	-0.058334	-2.157055	0.24759
H	-1.596898	-1.353225	0.638719
C	-0.434801	1.246123	0.768105
H	0.045927	1.226361	1.749696
H	-0.107693	2.163995	0.274537
H	-1.519574	1.290268	0.903062
H	2.954067	0.0	0.0
