20

C	-0.520708	0.015221	-1.425482
C	0.0	0.0	0.0
F	0.011882	-1.039687	-2.123292
H	1.096339	0.0	0.0
C	-2.024441	-0.042046	-1.604929
H	-2.384591	-0.989842	-1.204224
H	-2.51558	0.78375	-1.095553
H	-2.267251	-0.000714	-2.670013
N	-0.03475	1.26651	-2.156908
O	0.891172	1.161611	-2.944746
O	-0.644763	2.306175	-1.901201
C	-0.410931	-1.306323	0.680224
H	-1.459212	-1.309929	1.003968
H	0.224133	-1.43615	1.560674
H	-0.234716	-2.164268	0.028862
C	-0.426339	1.195085	0.844209
H	-1.513234	1.275285	0.962827
H	0.017957	1.071099	1.835641
H	-0.049993	2.13455	0.43997
H	2.926141	0.0	0.0
