20

C	-0.330186	-0.049584	-1.480682
C	0.0	0.0	0.0
F	-0.098547	1.181874	-2.050862
H	1.097878	0.0	0.0
C	0.459118	-1.075254	-2.252774
H	0.193243	-2.087146	-1.95777
H	0.273889	-0.951582	-3.322914
H	1.512466	-0.890384	-2.016023
N	-1.833782	-0.276428	-1.668916
O	-2.226417	-1.444339	-1.674707
O	-2.566388	0.709263	-1.731506
C	-0.440341	-1.248057	0.754994
H	-0.002637	-1.207591	1.755992
H	-1.528647	-1.322527	0.854482
H	-0.075504	-2.162623	0.284727
C	-0.507825	1.264948	0.675194
H	-0.155746	2.154236	0.152438
H	-0.108594	1.2981	1.692825
H	-1.601907	1.301174	0.729243
H	2.92748	0.0	0.0
