20

C	-0.512005	-0.002249	-1.428816
C	0.0	0.0	0.0
F	-0.016003	-1.095986	-2.093371
H	1.096342	0.0	0.0
C	-2.016176	-0.009701	-1.61447
H	-2.417207	-0.920604	-1.168821
H	-2.251175	-0.011779	-2.682347
H	-2.473931	0.860167	-1.149412
N	0.02024	1.207959	-2.19528
O	-0.517405	2.285774	-1.931503
O	0.903163	1.036834	-3.022546
C	-0.416573	-1.295557	0.696285
H	0.19197	-1.396965	1.598813
H	-1.473904	-1.305092	0.98924
H	-0.210373	-2.165896	0.071197
C	-0.430097	1.207116	0.825064
H	-0.042088	2.138607	0.413842
H	-0.000663	1.0912	1.824197
H	-1.518435	1.294426	0.928882
H	2.92684	0.0	0.0
