17
Coordinates from ORCA-job run
  C   -0.63724589157423      0.38322260288021      0.07376798734089
  C   0.87367313488932      0.32268083545450     -0.19659465073209
  Cl  -0.83753748160620      2.00008093101006      1.00453598714856
  H   1.15737206927387      1.20156470188636     -0.78736044564387
  N   -1.32204404080134      0.38783346758427     -1.15586214048072
  H   -2.32535182010443      0.41817061161560     -1.03525066562648
  H   -1.02372484685420      1.12672351693933     -1.77978724035929
  C   -1.16186593246834     -0.70363256686165      0.98696330160650
  H   -0.62249785185866     -0.72061525656671      1.93070161233557
  H   -2.22070095509041     -0.52555091076981      1.18747535399260
  H   -1.03970274205182     -1.66841973403363      0.49541870167100
  N   1.12139993277363     -0.82350323077240     -1.16323128698049
  O   1.08187670730795     -1.96785599485279     -0.73032990832656
  O   1.33743232044112     -0.49588600297381     -2.32855522568489
  N   1.63118376088296      0.09355146014141      0.99432033525261
  H   2.62145108854790      0.19628307128424      0.80939790614654
  H   1.36728254829289      0.77335249803482      1.69639037834012
