17
Coordinates from ORCA-job run
  C   -0.61326019068603      0.30934663636671      0.04846336333472
  C   0.91797247829904      0.15899440150227      0.04641934793298
  Cl  -0.95707507577167      2.10675158450822     -0.18353193391978
  H   1.33696112713563      0.72796353584587      0.87601840775024
  N   -1.20320018774089     -0.51108511175879     -0.94515023366448
  H   -2.21302040449486     -0.48825216101402     -0.89148615804338
  H   -0.89309838108968     -0.25798111671491     -1.87499035878913
  C   -1.15848293197527     -0.05411412327214      1.41899657585161
  H   -0.71560816622949      0.57342938558034      2.19291364558226
  H   -2.23931385252783      0.09941681667706      1.43841903959062
  H   -0.95002991856444     -1.10440751611205      1.62936007107826
  N   1.51221561485218      0.82921628220701     -1.17958429871922
  O   2.37507354638235      1.67862053857773     -0.99177945955747
  O   1.11511896772729      0.43765061971254     -2.27492102589450
  N   1.36018597645699     -1.19573989573655      0.05386004918320
  H   1.67441796350797     -1.49746982400415      0.96219121871368
  H   0.65214343471871     -1.81134005236515     -0.32319825042961
