17
Coordinates from ORCA-job run
  C   -0.63491512401848      0.17454456968072      0.28066435022921
  C   0.80640491531307      0.08688585158913     -0.29861178342007
  Cl  -0.50566922819490      0.47534769959084      2.05064338372787
  H   0.69508393786269     -0.03728592855064     -1.37799523061779
  N   -1.35160755136812      1.29435500733664     -0.27978791491983
  H   -0.81231803675577      2.14850169097812     -0.20937717631629
  H   -1.58134106428724      1.11301587237232     -1.25040282469329
  C   -1.44238499847721     -1.08924641950691      0.05919575230944
  H   -2.46198364204746     -0.90731680265329      0.39930514376194
  H   -1.02836317614691     -1.93381718993724      0.60648191267596
  H   -1.45447828041489     -1.34699549575390     -1.00392240544087
  N   1.46119377629806     -1.19599006661250      0.15533639508392
  O   2.10649134773936     -1.16179223317996      1.19634256014890
  O   1.26702052864933     -2.18896068403322     -0.54607647936636
  N   1.69758997555138      1.16395676315015     -0.03337541545340
  H   1.65861674151726      1.47322323547025      0.92761891240732
  H   1.58065987877982      1.93057413005949     -0.67703918011667
