17
Coordinates from ORCA-job run
  C   -0.65624754799038      0.15536938071447      0.21307241257246
  C   0.75255884607350      0.14782488285154     -0.40372465760895
  Cl  -0.42334595602948      0.26012965334315      2.05905032561468
  H   0.62276311134139      0.03874061348670     -1.48208146578726
  N   -1.30468766304155      1.29253620257115     -0.31755589074810
  H   -0.74682042200912      2.12607158924588     -0.18088508148696
  H   -2.23174116182470      1.41051663554754      0.06905226847845
  C   -1.47525376768530     -1.09376813471957     -0.03938087021586
  H   -1.04094302432458     -1.97118021926696      0.43289328965735
  H   -1.55107751465947     -1.26342322089075     -1.11494214731667
  H   -2.47742778187136     -0.94527116096369      0.36858607836207
  N   1.50597843000048     -1.11883288065081      0.00496407081348
  O   1.19918128666942     -2.14998077114892     -0.58950482015510
  O   2.36663531859321     -1.01622421107171      0.87325607036088
  N   1.45286420655612      1.34289512476595     -0.09920488645541
  H   2.28083472254755      1.43719448436014     -0.67185419885754
  H   1.72572891765427      1.34840203182590      0.87625950277249
