17
Coordinates from ORCA-job run
  C   -0.65374227997917      0.43380686981571      0.10233073774089
  C   0.84493707457304      0.38733179179646     -0.22521697666461
  Cl  -0.84514739548061      1.97196571955805      1.04109675529809
  H   1.07712785787887      1.29468361202557     -0.79640035542533
  N   -1.37838611707012      0.63506504267417     -1.13659733141149
  H   -1.46589601862865     -0.25950957450286     -1.60508356304043
  H   -2.30682591563949      0.98516051469326     -0.93214987131891
  C   -1.13992708976204     -0.70086884062683      0.98847801787013
  H   -0.55333019034545     -0.77538540593792      1.90325281455734
  H   -1.05820793579269     -1.64149303960862      0.44319504847156
  H   -2.18676906303826     -0.52889239387928      1.24681054064427
  N   1.19314994632932     -0.73061868024604     -1.18922192732566
  O   0.34277434041244     -1.54634936118335     -1.53566482156002
  O   2.36488129399235     -0.73325497546213     -1.55249142512391
  N   1.66573977297302      0.14061986609851      0.93375218482387
  H   1.45889644438812      0.83658652116873      1.63918305453395
  H   2.64072527518931      0.23215233361656      0.67472711793024
