17
Coordinates from ORCA-job run
  C   -0.71513920160547      0.36279284296182      0.09398261934021
  C   0.81526175603324      0.16097313904319      0.19444053942430
  Cl  -0.99216778102848      2.14675456229726      0.06516698710457
  H   1.18558959624168      0.57170321706530      1.13385544487815
  N   -1.34152756022610     -0.20636733157669     -1.06016552341250
  H   -0.83905633857079      0.00342724583374     -1.91290608418941
  H   -1.46815455926520     -1.20352358661228     -0.95001734381269
  C   -1.36487481625214     -0.19407408047565      1.34843391913891
  H   -1.15338962563828     -1.26177889802945      1.42815235224512
  H   -0.98387648971732      0.30915687510317      2.23760928853318
  H   -2.44102216413931     -0.03138931695551      1.28429387831738
  N   1.52630267664227      0.98234507140949     -0.87016684574190
  O   2.25424271242244      1.89750174764541     -0.50163162439661
  O   1.33719062451146      0.63990103265151     -2.03936726549305
  N   1.12436782850801     -1.22677450274806      0.08157049336922
  H   2.08548029580857     -1.41154898056879      0.33918151039531
  H   0.97177304627540     -1.53909903704446     -0.86943234570020
