17
Coordinates from ORCA-job run
  C   -0.64976799953849      0.31773382499797      0.06840498081915
  C   0.87031195438793      0.12981219483892      0.16001734946450
  Cl  -0.91559573205048      2.12584197385862     -0.19706865407237
  H   1.26636566708631      0.72295842567009      0.98445603609182
  N   -1.19942014742102     -0.48311597140965     -0.96366529011729
  H   -0.85285262819282     -0.21853011016088     -1.87688492885499
  H   -2.21031981426417     -0.44967303999305     -0.95099527191047
  C   -1.28952145074228     -0.02408589173639      1.40167711780191
  H   -1.12037540275894     -1.07823214234824      1.61839025694833
  H   -0.86629192953515      0.58579653346366      2.19994281752423
  H   -2.36213391435782      0.17655284712647      1.35460066820981
  N   1.55666365145728      0.74602789314210     -1.06306221010192
  O   2.39092883999502      1.62138497516082     -0.85579489264088
  O   1.26831422207934      0.27782982482884     -2.16490769228644
  N   1.17338678207820     -1.24651787726659      0.31732838409462
  H   0.77496686717580     -1.78763127760739     -0.43919628120325
  H   2.16634103460133     -1.41515218256530      0.40675761023318
