17
Coordinates from ORCA-job run
  C   -0.63267406250137      0.26644501547538     -0.05566196810457
  C   0.90475405797112      0.22283417776532     -0.03111513154180
  Cl  -1.09158927392673      1.83164224516624     -0.91605193375373
  H   1.28129275597785      1.07929125298779      0.52754150851517
  N   -1.16169000357940     -0.89410184762184     -0.67416588066736
  H   -2.17128884611565     -0.91540065756333     -0.61477716322598
  H   -0.86374919767163     -0.97500993158408     -1.63834372631169
  C   -1.16087228744977      0.38984146260635      1.36328042452526
  H   -0.88619532065920     -0.49783400626327      1.93536746869533
  H   -0.76474682972012      1.28151200593671      1.84999642081395
  H   -2.24958940433727      0.47135806002546      1.34517421645400
  N   1.46202843682014      0.43839911822754     -1.42731437623130
  O   1.09394406264926     -0.34389212062602     -2.30076464906880
  O   2.27164913425722      1.34644073784542     -1.57316689411064
  N   1.43472332497227     -1.00626208170300      0.45861493634551
  H   0.76986341879993     -1.75949635536664      0.34427211169397
  H   1.76414003451335     -0.93776707530800      1.40811463597263
