17
Coordinates from ORCA-job run
  C   -0.53260187693111      0.21342830475312      0.28779148829388
  C   0.86234329267778      0.11403978306132     -0.38380977822659
  Cl  -0.33451152454983      0.39051203794181      2.05875543842073
  H   0.67983085680647      0.12683529802265     -1.46182659449469
  N   -1.07235968585769      1.47631194764444     -0.20425179224450
  H   -1.83708281097574      1.77455312706970      0.39062498958145
  H   -1.44777317150303      1.32761754682954     -1.13664212366263
  C   -1.42038262783219     -0.99253442164775      0.02827992606113
  H   -1.50054273070387     -1.16711095518194     -1.04853941803846
  H   -2.41592814279107     -0.79849134651417      0.43233100018067
  H   -1.02972225633274     -1.89858776611735      0.49136315843967
  N   1.45323877652513     -1.23694857869190     -0.11813930565536
  O   2.13935779740961     -1.36082126504322      0.89167774558897
  O   1.17411153413218     -2.13092437429396     -0.91576249733735
  N   1.82802864392964      1.11045047618189     -0.04532238858578
  H   2.05430582624564      1.03584593338039      0.93961992709947
  H   1.39968809975083      2.01482425260539     -0.20714977542056
