17
Coordinates from ORCA-job run
  C   -0.70989393237264      0.36737546567143      0.11862105414934
  C   0.82286169570166      0.16024863302769      0.15473172550732
  Cl  -0.98296523260876      2.15070946652327      0.06755241961662
  H   1.23628706897369      0.58482642781414      1.06971033225757
  N   -1.38862628101820     -0.22163502977245     -0.99553276620481
  H   -0.92554223360845     -0.02673400066741     -1.87379622369058
  H   -1.50742160301500     -1.21706995957335     -0.86284401447397
  C   -1.30452161070743     -0.16322324907239      1.41136150710459
  H   -2.38202317450653      0.00183756186989      1.39204814337391
  H   -0.88295083798317      0.35579478612958      2.27273847481409
  H   -1.09236761013867     -1.22993136197961      1.50194144988772
  N   1.48883292190118      0.96053955596318     -0.95423687667964
  O   2.23436228022294      1.87962797498316     -0.63413289012182
  O   1.24719758346400      0.59852443637467     -2.10776693885250
  N   1.12103768919021     -1.23085626604328      0.05144247016010
  H   2.09062807010394     -1.41605694923246      0.27493248383773
  H   0.93210520640123     -1.55597749201606     -0.88877035068568
