17
Coordinates from ORCA-job run
  C   -0.64326429948102      0.37745019190258      0.07498856978349
  C   0.86765714191450      0.33049387298917     -0.20050528949302
  Cl  -0.85357000871282      1.99539355825529      1.00162749241695
  H   1.14074329740069      1.21192612439950     -0.79255719931182
  N   -1.33316013791091      0.37265421552157     -1.15190498834316
  H   -2.33615333948361      0.39417094967658     -1.02636777169659
  H   -1.04494468694630      1.11372556468410     -1.77806328410215
  C   -1.15333165450246     -0.71114432126475      0.99392560435085
  H   -2.21371431026274     -0.54447829665062      1.19635459672785
  H   -1.02162218412103     -1.67669704240512      0.50639168354332
  H   -0.61038336374128     -0.71722644711509      1.93559750521305
  N   1.12600873980116     -0.81425564841256     -1.16354584356421
  O   1.10873145061221     -1.95743574193731     -0.72537374204429
  O   1.32720052321250     -0.48856917676329     -2.33200599294045
  N   1.62963053822824      0.11156184995961      0.99082896849766
  H   2.62049795193384      0.18462736627712      0.79446926319911
  H   1.38867434205898      0.81780298088324      1.67514042776350
