17
Coordinates from ORCA-job run
  C   -0.67400246764105      0.14610036477204      0.15733100055799
  C   0.78723773473838      0.16616871541911     -0.32230919180048
  Cl  -0.62080665445732      0.16636107599836      2.01787293056861
  H   0.76032829496206      0.10956249719352     -1.41207199085123
  N   -1.27332526551376      1.30726439438075     -0.38182710942034
  H   -2.23220621500148      1.40860139195333     -0.07616151447332
  H   -0.73370613158331      2.13260019852696     -0.15241084014959
  C   -1.45968319125193     -1.08954682807384     -0.23128332121435
  H   -2.49740773419988     -0.95955552553504      0.08346373474952
  H   -1.42977939854774     -1.20898629104650     -1.31576834572312
  H   -1.06991612911458     -1.98829820828469      0.23986870221842
  N   1.50140338253929     -1.11991015845223      0.09520583856592
  O   2.27067160077641     -1.06160410651575      1.04919624126823
  O   1.25930857784326     -2.11978306158523     -0.57744052200027
  N   1.45181458692548      1.34392049658256      0.10467269644571
  H   2.33082946912874      1.46393048882254     -0.38040505524177
  H   1.62923954039743      1.30317455584413      1.10106674650007
