17
Coordinates from ORCA-job run
  C   -0.68827965699325      0.41062264331901      0.08336227393376
  C   0.83527142333056      0.47518725190102     -0.14722895864797
  Cl  -1.08673710195326      2.02340719872511      0.89282542786684
  H   1.08699956931545      1.41828156528164     -0.63302969572555
  N   -1.34657259320648      0.25108689908075     -1.16034198716596
  H   -1.11344036428092      0.98011027571935     -1.82356999517830
  H   -2.35043850041027      0.21330705292857     -1.04277327128899
  C   -1.10859795050626     -0.67891803942936      1.04857694214263
  H   -0.81488288407520     -1.65105663749980      0.64851133268178
  H   -2.19367371935435     -0.65838982165712      1.16855367182358
  H   -0.66006425368986     -0.51926691613599      2.02739216311945
  N   1.17059020412479     -0.58063783553958     -1.20486130201255
  O   1.31026477135125     -1.73573449575700     -0.80932687720465
  O   1.28020744755797     -0.19575297163796     -2.36446268938050
  N   1.57888069026672      0.30901148950769      1.04710895360520
  H   2.54013332123842      0.59646786751267      0.92254064267809
  H   1.55933959728465     -0.65772552631904      1.34672336875315
