17
Coordinates from ORCA-job run
  C   -0.67816068331727      0.46075584919080      0.10585519515253
  C   0.83939985463385      0.53462704661371     -0.14408514001499
  Cl  -1.10537648764549      2.03471771165646      0.86061778198456
  H   1.07251958880584      1.50930305723922     -0.56830870787645
  N   -1.32554416793189      0.42538597439360     -1.19578670408430
  H   -2.26726376191275      0.78907356986174     -1.11942310616733
  H   -1.38457480872400     -0.53764166615317     -1.51109320451521
  C   -1.10720782028109     -0.63317918089708      1.07094694489986
  H   -0.83486134111013     -1.60931571158061      0.66562441169489
  H   -0.64778512861647     -0.49788374008744      2.05049190585021
  H   -2.19104915955371     -0.59051504755315      1.19251774848242
  N   1.18893396949797     -0.43104567821519     -1.27368809931498
  O   0.86766734710309     -1.61159395574587     -1.11559788910048
  O   1.81954843035317      0.01385407050032     -2.22622517642795
  N   1.61290554009190      0.28369732674592      1.02114540269573
  H   1.56177070123611     -0.68860776505244      1.29754775246609
  H   2.58007792737084      0.54836813908319      0.88946088427539
