17
Coordinates from ORCA-job run
  C   -0.62093644767410      0.39212466734600      0.06070207812247
  C   0.89181833622230      0.39722166645398     -0.27028095492448
  Cl  -0.84321892631872      2.02045206196328      0.95479750739316
  H   1.11152115513998      1.29829400682058     -0.84452477755989
  N   -1.35892435766852      0.32283670457892     -1.13616529770463
  H   -1.10232902977175      1.03449498050414     -1.80868077663630
  H   -2.35736688877737      0.34107446775093     -0.97711889508764
  C   -1.06207340266810     -0.68325565364290      1.02992115656603
  H   -0.88900702680886     -1.66451732954787      0.58728269612610
  H   -0.52897989415650     -0.60533877036227      1.97614208144712
  H   -2.12695949580633     -0.56660714725765      1.24169787939363
  N   1.14443083165819     -0.74304388979210     -1.21941036222691
  O   1.22845957888526     -1.86196800939706     -0.71929910146598
  O   1.23487746072860     -0.47451991853594     -2.41226765567093
  N   1.83129095130913      0.27445251022159      0.79966661936393
  H   1.78501050135189      1.08452434537683      1.40262939984708
  H   1.66338665435493     -0.56722469248045      1.33490840301720
