13
Coordinates from ORCA-job run
  C   -0.41641438779474     -0.04756997030904      0.49695510402765
  C   0.73450837467073      0.26244248897965     -0.45811988525159
  Br  0.21948752941427     -0.94564713621472      2.07005320728457
  H   0.33854397257968      0.70270366058461     -1.37494307791210
  H   1.45022756046711      0.92692669863130      0.02461938066867
  N   -0.98833946719833      1.36435020210179      0.85502978139219
  O   -1.47919196772342      1.93350099142421     -0.11102849001155
  O   -0.87424855623004      1.77898370491645      1.99197375264809
  C   -1.51436881434479     -0.79067799578834     -0.09948631002425
  N   -2.44074459682221     -1.35753249171185     -0.55101344682521
  N   1.47503346969654     -0.97548080601709     -0.84309695889570
  O   0.79878379412662     -1.91230626725137     -1.25415848129323
  O   2.69672308915856     -0.93769307934558     -0.74478457580754
