13
Coordinates from ORCA-job run
  C   -0.43758466354412     -0.22695656931461      0.52556695699458
  C   0.32932032839277     -0.51412499505466     -0.75814012050713
  Br  0.45871020983847     -0.95259197746658      2.06291520505777
  H   0.38569784781417     -1.58594076552829     -0.93877611532525
  H   -0.15809665782723     -0.00493705140074     -1.59164914169158
  N   -0.65796259909074      1.31496747046434      0.66746813040510
  O   -0.39594148096483      1.84966594092203      1.72345212469769
  O   -1.13072154595269      1.81533434249545     -0.34201809304260
  C   -1.76860549624387     -0.80697417028461      0.41534591233814
  N   -2.83789238012722     -1.28221362682766      0.29642055771454
  N   1.73019423769663     -0.00084121203481     -0.69103515788497
  O   1.88908068502833      1.09321645569061     -0.15850872433100
  O   2.59380151498031     -0.69760384166047     -1.21004153442522
