13
Coordinates from ORCA-job run
  C   -0.43772856029778     -0.00041591491307      0.42320969120002
  C   0.80436233597703      0.25847919600929     -0.41950062485236
  Br  0.03123868178820     -0.93920265804380      2.05289668349726
  H   0.52439659864187      0.76144975752077     -1.34751475295943
  H   1.52423278904516      0.84539823331354      0.14240891126617
  N   -1.01834073304547      1.37172997804988      0.86132970945253
  O   -0.26048073807243      2.32889027214759      0.78815924236448
  O   -2.16801461285359      1.36029081954060      1.26568570005890
  C   -1.50009765884506     -0.70917796590115     -0.26896121256159
  N   -2.38284707233053     -1.24858065705893     -0.82866740055990
  N   1.46383692993328     -1.02920784758623     -0.79296176921196
  O   2.61601923107468     -1.19117810143664     -0.40344986965645
  O   0.80242280898469     -1.80847511164180     -1.47263430803771
