13
Coordinates from ORCA-job run
  C   -0.48784818957674     -0.26226021847060      0.55929726419495
  C   0.82597818138911     -0.64644717872400     -0.09093817586306
  Br  -0.67107437361923     -1.32295327199624      2.17876040471046
  H   1.65894866974529     -0.42211720941237      0.57410307615718
  H   0.83179608394284     -1.70315151881566     -0.35702852525798
  N   -0.45374201213318      1.20907519561755      1.01265019101601
  O   -1.51715793574511      1.80475168072664      1.00342839093447
  O   0.63438067803752      1.61749960689306      1.38600174062544
  C   -1.64029837945787     -0.48729866800648     -0.29467152897220
  N   -2.54951150558028     -0.74242452503649     -0.99516009593956
  N   1.05767974461011      0.12806417600789     -1.35402184201919
  O   0.31317029891173      1.07827730692585     -1.58147353134219
  O   1.99667873947584     -0.25101537570922     -2.03994736824436
