13
Coordinates from ORCA-job run
  C   -0.50762275111904     -0.25603622381081      0.44197507051234
  C   0.43208193255978     -0.46569540179724     -0.73771832222212
  Br  0.16283619461564     -1.09046772329834      2.03813866980056
  H   0.06805805939745      0.10389428613437     -1.59484284719109
  H   0.51145922857488     -1.52347977748262     -0.98138929307293
  N   -0.74427080423132      1.27529750095741      0.65396156435557
  O   -1.07145021487060      1.84564687685344     -0.37592370552126
  O   -0.63083266108762      1.73704799599554      1.76915678298383
  C   -1.81034369923156     -0.81436029111375      0.10806683107637
  N   -2.85077651552234     -1.27550806896846     -0.18893056033221
  N   1.81006375783045      0.02658937273405     -0.43912012665626
  O   2.73799875386479     -0.64713771432168     -0.87002978864430
  O   1.89279871921954      1.08420916811804      0.17765572491141
