13
Coordinates from ORCA-job run
  C   -0.46585105196124     -0.12505861383402      0.53434761990618
  C   0.40264502166770     -0.65513465062048     -0.59842010715717
  Br  0.34232187205276     -0.43435775879175      2.25028260648812
  H   -0.04060008874408     -0.37316881843713     -1.55530121359965
  H   0.51064164024919     -1.73564455840078     -0.52482446918047
  N   -0.75287950363434      1.39516278281160      0.30354510479841
  O   -0.58786815034521      2.16862988572690      1.22238048049561
  O   -1.16927143170765      1.62790289591359     -0.82131262476324
  C   -1.76324021369364     -0.78370634512017      0.47835422242711
  N   -2.80542836182550     -1.32478295993597      0.41164331311393
  N   1.77529858431715     -0.06788928684541     -0.56249310461365
  O   1.85438826067010      1.12582641268493     -0.28930643337082
  O   2.69984342295482     -0.81877898515127     -0.84889539454440
