13
Coordinates from ORCA-job run
  C   -0.41640588215529      0.03628551093546      0.44271141077194
  C   0.79044225422295      0.21410775297083     -0.46975505755807
  Br  0.10753601357391     -0.80953506283091      2.10610048465602
  H   1.54891355093611      0.81452271773638      0.02284011858661
  H   0.47803874935864      0.66863123871216     -1.41218696897644
  N   -0.94859226243506      1.44589502158662      0.81852482980921
  O   -0.17247964865601      2.37759947193596      0.65901990544080
  O   -2.08133009022433      1.48728842767873      1.26651380896923
  C   -1.52257015344683     -0.69049633499407     -0.15578424600065
  N   -2.44158297473650     -1.24397109556617     -0.63798419794357
  N   1.40115838893328     -1.11010315906730     -0.79469385645795
  O   2.55899523421029     -1.28799395559401     -0.42940137983207
  O   0.69687682041878     -1.90223053350373     -1.41390485146506
