13
Coordinates from ORCA-job run
  C   -0.44403019342887     -0.01094509539380      0.47878415493043
  C   0.77952676931125      0.17932753887880     -0.41477768706714
  Br  0.00350580624831     -1.01727668616256      2.05124510794260
  H   1.54663910746664      0.74004584836269      0.11818611030285
  H   0.48519972145020      0.68887165625806     -1.33416789384465
  N   -0.85665712402282      1.45180721000838      0.85428038117669
  O   -1.22108070509026      2.10218401199242     -0.11650449982053
  O   -0.75510371469647      1.81913837928289      2.00834400428825
  C   -1.59527292740393     -0.59723516137865     -0.18760151663913
  N   -2.55521981097477     -1.02958598780703     -0.71182900266525
  N   1.38733471604703     -1.12727497567630     -0.80772100522379
  O   2.60787251144553     -1.20798621697786     -0.72379433594386
  O   0.61928584364815     -1.99207052138708     -1.21444381743645
