13
Coordinates from ORCA-job run
  C   -0.42661613382983      0.04276928789942      0.43201016904588
  C   0.81852341004726      0.18181405106216     -0.43474944757577
  Br  -0.01838285139011     -0.92766089846122      2.05927035462598
  H   1.60078070957460      0.69925336585819      0.11182371968495
  H   0.56841324415414      0.70730237668444     -1.35867442587563
  N   -0.86974852165789      1.46479049630480      0.87118286140288
  O   -2.01193419414552      1.56422344922732      1.28481355380621
  O   -0.02587153225186      2.34579197241051      0.78458217603020
  C   -1.56113401080220     -0.56843832047472     -0.23827876523756
  N   -2.49678686576015     -1.02816936535897     -0.78290992979155
  N   1.34496220294626     -1.16332037114499     -0.81551636294860
  O   2.47022661767445     -1.44795573719925     -0.41743346006566
  O   0.60656792544083     -1.86940030680763     -1.49612044310135
