15

C	-0.532611	-0.00387	-1.429572
C	0.0	0.0	0.0
F	-1.970927	0.027018	-1.310294
H	1.089691	0.0	0.0
H	-0.329408	-0.989445	-1.854267
N	-0.038102	0.998508	-2.269178
H	-0.007359	1.902879	-1.82353
H	-0.514544	1.01925	-3.158031
N	-0.439602	-1.113522	0.769516
H	-1.325595	-1.482341	0.460653
H	0.280505	-1.818453	0.801672
N	-0.485353	1.285681	0.653615
O	-0.014627	2.335789	0.206312
O	-1.324957	1.22588	1.54212
Br	3.496071	0.0	0.0
