13
Coordinates from ORCA-job run
  C   -0.62670906169927     -0.29534834322975      0.38829939469510
  C   0.50310389063880      0.13851235303376     -0.26155076410494
  C   -0.67650463044085     -0.78801252103220      1.71697164610230
  N   -0.78037844359774     -1.18706351129292      2.81964560170325
  N   -1.92535018799070     -0.21562533236700     -0.27305745404125
  O   -2.90284141029156     -0.57368665233170      0.37342875212406
  O   -1.96047031676158      0.19435224835089     -1.43884561597177
  N   1.81156911297111      0.08140198446521      0.46275707505680
  O   2.65975895885117      0.88336605973077      0.08036937934955
  O   1.93859528729101     -0.74438261204851      1.35696928926067
  N   0.64633881874074      0.61364294999938     -1.50130052803415
  H   -0.19663093082556      0.79959175045591     -2.02466786220898
  H   1.51151891311443      1.09425162626617     -1.69801891393064
