13
Coordinates from ORCA-job run
  C   -0.75873479889895     -0.17627177559072      0.25441217994263
  C   0.44609503693347      0.32523016409899     -0.12572723267332
  C   -1.71216765999588      0.67655333903337      0.86127054118290
  N   -2.42012629215918      1.46746073166559      1.37185591157207
  N   -1.11776479556975     -1.58584069693693      0.11200223485749
  O   -0.21371389455093     -2.41006055332012      0.20108601070176
  O   -2.31124805905337     -1.81932332408097     -0.05325930647113
  N   1.42493538014267     -0.49953441988026     -0.86967231368402
  O   1.01265604292399     -1.10371869682042     -1.84999244838371
  O   2.58105241682787     -0.44156272832995     -0.45876330227041
  N   0.86040653958586      1.60231084206383     -0.00199074989478
  H   1.85586894267602      1.75635757549652     -0.06631148843585
  H   0.35174114113818      2.20839954260106      0.62508996355636
