13
Coordinates from ORCA-job run
  C   -0.69823162982539     -0.34110398909213      0.16519912989033
  C   0.50830346680188      0.20447881737185     -0.19822432474369
  C   -1.84634745048307     -0.42797022100786     -0.66291530417279
  N   -2.83409498926289     -0.51379322023103     -1.29794053650912
  N   -0.89927427062476     -0.82908645333237      1.52750642385276
  O   -2.01609955427694     -1.24483437107758      1.81170061195699
  O   0.06268353367620     -0.79503945779733      2.30325705355416
  N   0.66389311349722      0.73405437109015     -1.58524419808209
  O   1.50559333689310      1.61877358612389     -1.72188838225031
  O   -0.02622352989772      0.24117129925862     -2.46840439808108
  N   1.63750781455931      0.31907364716242      0.50285884081638
  H   2.33716695408854      0.94921195784690      0.14055284905689
  H   1.60412320485450      0.08506403368447      1.48354223471157
