13
Coordinates from ORCA-job run
  C   -0.55700385293675     -0.37079574635750      0.43921547926121
  C   0.45757943751472      0.18235711150117     -0.30456848675225
  C   -0.42465927534589     -0.90031509609718      1.75037831264025
  N   -0.39236333150848     -1.34738157432471      2.83918190622360
  N   -1.93174139183839     -0.31400363309380     -0.05170491742192
  O   -2.80978475304500     -0.75284281651125      0.68008060663262
  O   -2.12570346431553      0.15599579728967     -1.17818059246677
  N   1.85278347489746      0.16264179158955      0.23996758466901
  O   2.62555739921142      0.97793399396500     -0.26263709588873
  O   2.11993589499672     -0.65176234368202      1.11469772511660
  N   0.42144528168581      0.73298194934754     -1.51532944264750
  H   1.24358929793250      1.23771573309080     -1.80851888499068
  H   -0.47963471724858      0.88847483328272     -1.94358219437544
