13
Coordinates from ORCA-job run
  C   -0.57917651117524     -0.23939321743536      0.48494765649396
  C   0.47777568774635      0.17335738955899     -0.29321126432885
  C   -0.51193473047331     -0.69618451756603      1.82587380140848
  N   -0.55012982029956     -1.07885560317397      2.93932009286263
  N   -1.93622433391564     -0.22834149724667     -0.06465385778104
  O   -2.84288228853554     -0.56851243070193      0.68583937376486
  O   -2.08769001095642      0.11641366640496     -1.24222430940729
  N   1.86423017365322      0.13000412287268      0.27368897181163
  O   2.02667654314442     -0.40200872735051      1.36421213264702
  O   2.74013086601988      0.63189750933189     -0.42645045377674
  N   0.46075062087177      0.67067158819736     -1.52846073321315
  H   -0.40666877429385      0.64069054760148     -2.04178923259508
  H   1.34614257821392      0.85026116950712     -1.97809217788645
