13
Coordinates from ORCA-job run
  C   -0.75744607167108     -0.16095966584039      0.26723710089186
  C   0.44243634107251      0.31260557446683     -0.16238490844416
  C   -1.75130894038500      0.74984830492027      0.70183339375130
  N   -2.49303493777366      1.59271229319645      1.05835573706216
  N   -1.07996183042982     -1.58388539012332      0.33236390080077
  O   -2.26469254765126     -1.87078650827850      0.18932308756482
  O   -0.15713486965157     -2.36191708639859      0.55045306522636
  N   1.46817205101767     -0.58545752392528     -0.73744258521016
  O   1.10995279501375     -1.34061328114867     -1.63019512135663
  O   2.60513581062062     -0.43329602269791     -0.29799594403332
  N   0.81379755057332      1.60661969350732     -0.23840713816292
  H   0.25872177462769      2.28852438790352      0.25805630660279
  H   1.80536287463684      1.78560522441828     -0.29019689469287
