13
Coordinates from ORCA-job run
  C   -0.67984297944665     -0.34106522823247      0.22965295529983
  C   0.49620281571735      0.19112852407950     -0.23645121455396
  C   -1.84391259594264     -0.57724309959011     -0.54512484342231
  N   -2.84547678263198     -0.77672031515286     -1.13098796557215
  N   -0.82874250452784     -0.64756582201693      1.65093864955545
  O   -1.92350485278300     -1.05467034956689      2.02092641757558
  O   0.15121902065927     -0.48019298537630      2.38500633752718
  N   0.59607434916909      0.53197786300915     -1.68877649798152
  O   1.39117249829788      1.42647049853270     -1.96646725849510
  O   -0.09505664348033     -0.10114099765560     -2.47565970021786
  N   1.63677336151911      0.44333889833626      0.40718124551359
  H   2.30149917108970      1.04112439896861     -0.06087236753455
  H   1.64359514236002      0.34455861466491      1.41063424230582
