13
Coordinates from ORCA-job run
  C   -0.73096978226741     -0.26931145369747      0.13934254559256
  C   0.50292433080158      0.24848833219022     -0.18214967049082
  C   -1.78346603107709     -0.57815001036333     -0.76117428318967
  N   -2.67958382630891     -0.97060830160056     -1.41668001360965
  N   -1.01533609338028     -0.65119707406385      1.52265864344492
  O   -2.18528169456695     -0.85211110071109      1.82267933418760
  O   -0.05524076234946     -0.77224062362735      2.29475226590952
  N   0.74345877638173      0.74323702683155     -1.57344703468828
  O   -0.20855103469023      0.79667170829769     -2.34207093782237
  O   1.90110338756702      1.06599012771201     -1.83263613206431
  N   1.57764485160839      0.38070332179947      0.59047767892014
  H   1.55447782780114      0.00052938456354      1.52256676899736
  H   2.37882005048048      0.85899866266916      0.21468083481299
