13
Coordinates from ORCA-job run
  C   -0.77500607969351     -0.20569151787693      0.05190082753653
  C   0.50780284811744      0.17178039207429     -0.18588646491683
  C   -1.76067700267179     -0.67448905290633     -0.84086645093204
  N   -2.64783774032324     -1.09006982152225     -1.49674121441052
  N   -1.17858452653008     -0.17408142559980      1.47209109510272
  O   -2.00183782543239      0.67870275176908      1.78369214731842
  O   -0.63627715861570     -0.98616590773886      2.22059562916506
  N   0.98894330462554      0.30315640676816     -1.58353958120817
  O   2.19243164655186      0.51711686646526     -1.72095076147960
  O   0.16132378013981      0.20228306863601     -2.48158007483739
  N   1.43032138038492      0.49986639854119      0.74272301884189
  H   2.35460445445183      0.69324745592135      0.38867570258557
  H   1.36679291899532      0.06534438546885      1.64988612723435
