13
Coordinates from ORCA-job run
  C   -0.76948673295248     -0.14703303077303      0.23986325648027
  C   0.45226015081334      0.30548274385038     -0.14876558778822
  C   -1.76389423431289      0.78095335713274      0.63430048131879
  N   -2.50641797814732      1.63644528093655      0.95752190230678
  N   -1.11387695284674     -1.56489065084188      0.30669965486114
  O   -2.29531824416506     -1.83776284696645      0.11736225053252
  O   -0.21222541389262     -2.35267013171523      0.57240841586780
  N   1.48189589539119     -0.61235493803364     -0.68507024905793
  O   1.13806569249128     -1.37455398096334     -1.57757895091198
  O   2.60900551480570     -0.46878964347117     -0.21791432940944
  N   0.84730819054044      1.59256524649401     -0.21588927565120
  H   0.29006803908420      2.28661216431810      0.26054606407071
  H   1.84261607319097      1.75499643003297     -0.24448363261925
