13
Coordinates from ORCA-job run
  C   -0.75348453464103     -0.18326047357173      0.16843349158939
  C   0.48181518495302      0.33221652616920     -0.08004631983575
  C   -1.85553308900606      0.69215173614056      0.30550954590269
  N   -2.72329166304045      1.48359180656494      0.40773409446913
  N   -1.05777043247049     -1.61412534524062      0.34044184008434
  O   -0.72974757482856     -2.12338125880541      1.40411176732217
  O   -1.67234573581847     -2.14018199212141     -0.58050673510701
  N   1.63611022920057     -0.55446470393267     -0.35397770645206
  O   2.71664283325387      0.00361133200155     -0.53365379675661
  O   1.42232167753876     -1.76028296548149     -0.40993166485170
  N   0.80822559319463      1.64215123376208     -0.07794679557292
  H   0.06490974826105      2.32255158516796     -0.04369294434278
  H   1.66314776340315      1.89942251934704     -0.54547477644888
