13
Coordinates from ORCA-job run
  C   -0.73807590741568     -0.30814983362984      0.10522646178398
  C   0.48378568469280      0.18294451674579     -0.18461244795461
  C   -1.82221990991252     -0.63291250423466     -0.74634300505417
  N   -2.79155212817553     -0.92133055997446     -1.35190512347424
  N   -1.01257379975325     -0.54386163166491      1.54052567558654
  O   -0.80533419430584     -1.68081120402598      1.93937967169441
  O   -1.41184649984299      0.42233576646118      2.17624456538225
  N   0.87346709903446      0.40481145691238     -1.60903729150430
  O   2.02531583586488      0.79727256289394     -1.78317508821783
  O   0.05188895157462      0.13885937185924     -2.47964218816223
  N   1.39370104477468      0.48558603944236      0.81895397113244
  H   2.32445016904213      0.17345356075299      0.56746773924988
  H   1.43099365442225      1.48180245846196      1.00691705953787
