13
Coordinates from ORCA-job run
  C   -0.71023662576913     -0.18165832412383      0.32038504955612
  C   0.44736159068607      0.33458685510452     -0.17493891283778
  C   -1.66449957906665      0.67104263332956      0.92116015315240
  N   -2.39987608904116      1.43206896828027      1.44006863691982
  N   -1.01558182231752     -1.61931390075722      0.36771921471706
  O   -2.06012580718105     -1.95469706631308     -0.18058634534946
  O   -0.24325343715252     -2.33086701549642      0.99596107263308
  N   1.39374353706583     -0.52200506619255     -0.92539627638077
  O   2.54157060328278     -0.09721695861432     -1.03535053215514
  O   0.94669501919284     -1.55491952376202     -1.41153715522683
  N   0.86193997337807      1.60942979651381     -0.06329624931982
  H   1.63547422753921      1.91885533217466     -0.62795715800905
  H   0.26578840938324      2.29469426985661      0.37376850230036
