13
Coordinates from ORCA-job run
  C   -0.63505289135774     -0.23717343115262      0.45725364439539
  C   0.41718606852703      0.33795565904247     -0.18284239766156
  C   -1.36137398463106      0.51068020815923      1.41586788020617
  N   -1.90749880744735      1.22880684516546      2.17306689159762
  N   -1.09412972630920     -1.59689540329410      0.18618968186034
  O   -0.98429380230682     -2.01011900394935     -0.96385972574392
  O   -1.58639872742287     -2.19556495850105      1.13833910488620
  N   1.27978283061210     -0.43831806667750     -1.10227895356509
  O   1.56191990426965      0.12282309982721     -2.15821301265449
  O   1.67718555124144     -1.52668480398704     -0.71016826527498
  N   0.88243645063702      1.59001115980027      0.00303946864981
  H   1.46541483036571      1.96193350094345     -0.73183882178180
  H   0.28482230382209      2.25254519462355      0.47544450508634
