13
Coordinates from ORCA-job run
  C   -0.78320602498294      0.01474135703839      0.16447685128774
  C   0.54437815035613      0.17742558824373     -0.12995602490956
  C   -1.79380115108234     -0.16267989754783     -0.81308879345255
  N   -2.60125000908137     -0.39111082943413     -1.63490164119388
  N   -1.19883757729185     -0.25337546761484      1.53433905426928
  O   -2.37287368873625     -0.54683283106227      1.73193423657138
  O   -0.33408705732659     -0.18929050065332      2.41743848607492
  N   0.88420732123224      0.31958903309585     -1.56859780210712
  O   0.27616469546056      1.17208908250438     -2.20639091844820
  O   1.76170431573167     -0.43052160090430     -1.98439715485507
  N   1.62464984662819      0.23965044916644      0.65618383492700
  H   1.48188644677987     -0.00607129584555      1.62608423896195
  H   2.50906473231268      0.05738691301346      0.20687563287411
