13
Coordinates from ORCA-job run
  C   -0.60781250081189     -0.42658471914406      0.28760508668911
  C   0.48691838564406      0.22022568283569     -0.22750660958024
  C   -0.58617454936801     -1.28278123066888      1.41897790945159
  N   -0.61238048423358     -1.98823206411986      2.36099316776292
  N   -1.93504923752365     -0.16914207076271     -0.26004382534357
  O   -2.01193124064145      0.52801208314650     -1.27825300112981
  O   -2.88819128802744     -0.66727077773634      0.32630839785817
  N   1.80930506401931     -0.01848152295637      0.41341965207603
  O   2.03768799574177     -1.13791638905603      0.85460945487891
  O   2.57308965467255      0.94488086575839      0.42048804836074
  N   0.58776156056982      1.03622206903334     -1.28042606847284
  H   -0.27153210069876      1.35124380321703     -1.70746279190296
  H   1.41730874065725      1.60882427045329     -1.32970942064805
