13
Coordinates from ORCA-job run
  C   -0.60483934624113     -0.43099858985080      0.28410446985224
  C   0.48845368057046      0.23098366891970     -0.21660933521828
  C   -0.58674224974505     -1.34067860112753      1.37233773545909
  N   -0.63108987000039     -2.08469714322428      2.28369025214761
  N   -1.93679266519197     -0.14710874902453     -0.24423891781789
  O   -2.88285110775827     -0.70433573092575      0.29909189173491
  O   -2.02576737432439      0.62714243942531     -1.20386779784062
  N   1.82654117111018     -0.04892684148229      0.38162703909636
  O   2.64306744841358      0.86619042355839      0.30150619069453
  O   2.01399145806934     -1.15338392219808      0.87596682462635
  N   0.57190181017506      1.09952677745142     -1.22642625123337
  H   -0.29181678371032      1.43660214304003     -1.62476572115816
  H   1.41594382863290      1.64968412543841     -1.28341638034278
