13
Coordinates from ORCA-job run
  C   -0.74113270478705     -0.17057212917104      0.29368288781693
  C   0.42165721071937      0.36754416231953     -0.15266348899730
  C   -1.60521613439910      0.57048555606211      1.12716600930752
  N   -2.26720633076746      1.22260351865768      1.85289219068212
  N   -1.10228900935765     -1.57687285122891      0.05064388999648
  O   -0.27400421418659     -2.42882803379507      0.34492043497742
  O   -2.22987729183556     -1.75893065707695     -0.39654143426657
  N   1.30593062473266     -0.41239897560936     -1.05515733957714
  O   0.76378617894878     -1.16071741702570     -1.85930624810747
  O   2.51114236363784     -0.21032964497050     -0.93057876110066
  N   0.88323972651452      1.61335344456692      0.06763073357189
  H   1.85302737598647      1.77802954441875     -0.14968337588794
  H   0.47994220479378      2.16663348285252      0.80699450158470
