13
Coordinates from ORCA-job run
  C   -0.69675624517642     -0.20161705576388      0.33268768470001
  C   0.45034774270521      0.34454155812761     -0.15460503301799
  C   -1.42924686829491      0.46911126985619      1.33853040746292
  N   -1.99263475575482      1.06378725727121      2.18696337818091
  N   -1.25354112555532     -1.49181660289742     -0.09288497951469
  O   -1.35151693812813     -2.34238037887112      0.78413409726787
  O   -1.60285763751527     -1.58915961331928     -1.26310691652153
  N   1.35328497101442     -0.43335615767755     -1.03972593442830
  O   2.18195192716921      0.21639056630380     -1.67278918265702
  O   1.22187473688941     -1.65136889158438     -1.04001591631091
  N   0.89798170531733      1.58761064902787      0.09443610877570
  H   0.38515944568016      2.20329992376142      0.70373593454924
  H   1.83695304164914      1.82595747576551     -0.17835964848620
