13
Coordinates from ORCA-job run
  C   -0.76244044747551     -0.16062615710121      0.26692257951964
  C   0.49093002996790      0.25996875031103     -0.05925738476202
  C   -1.63672560693915      0.73829004071259      0.92797878381065
  N   -2.25197276714630      1.58828139014047      1.46253104875553
  N   -1.27344768142710     -1.48529375980068     -0.05453727505829
  O   -2.43622742714075     -1.70474950909100      0.27092336457562
  O   -0.51309475133484     -2.26609085589357     -0.61738184754762
  N   1.44530938053236     -0.59663634949476     -0.78654027043505
  O   2.20954719256768     -1.25662172496421     -0.09643066401245
  O   1.42014424166450     -0.49031832107812     -2.00673720530446
  N   1.03268976805721      1.44682755110886      0.27241431502927
  H   0.43109359404010      2.16314506475844      0.65321232364524
  H   1.84419447463390      1.76382388039216     -0.23409776821605
