13
Coordinates from ORCA-job run
  C   -0.66499650550858     -0.24465168788711      0.41403488371907
  C   0.38676564944640      0.34970334184330     -0.21192385420550
  C   -1.38581801073378      0.47876709373442      1.39677794286374
  N   -1.89019539292077      1.17118579003879      2.20541116848204
  N   -1.06879462429050     -1.62344497463671      0.16652249564590
  O   -0.31095876643264     -2.32875763082481     -0.49063770674288
  O   -2.14009364937204     -1.96292850877290      0.65948050749742
  N   1.17507768551338     -0.34386055530213     -1.24844625633013
  O   0.67233726892445     -0.41583459242912     -2.35995249309869
  O   2.29169809817438     -0.70719197296263     -0.89345544845162
  N   0.78902325346925      1.62571753811997     -0.04907838939240
  H   1.73336729494663      1.85448297698853     -0.31951455452762
  H   0.41158769878385      2.14681318209038      0.72978170454067
