13
Coordinates from ORCA-job run
  C   -0.73661512206431     -0.16532458176345      0.30977647160313
  C   0.42568472623641      0.38365572512812     -0.13182212252270
  C   -1.72333888798051      0.60343852726886      0.97820552826583
  N   -2.52218038826213      1.36502247641388      1.39007129169180
  N   -1.06999633658344     -1.58914303578707      0.12711275645174
  O   -0.17939319478751     -2.41484520725860      0.30762145642301
  O   -2.24130423620277     -1.80903635626235     -0.14978279931646
  N   1.26287785972119     -0.35705986822813     -1.12520394854369
  O   0.69456262219304     -1.10929788818057     -1.90507271645605
  O   2.46604407065178     -0.11529084823309     -1.09523553615409
  N   0.93051223789150      1.57410310554259      0.25229943901342
  H   0.88361910856305      1.81834408936493      1.24303676921679
  H   1.80952754062370      1.81543386199487     -0.20200658967275
