13
Coordinates from ORCA-job run
  C   -0.74922751055753     -0.16163573088166      0.29054182321858
  C   0.46340982946445      0.30256429889837     -0.11231034219999
  C   -1.69562735228661      0.74136964882055      0.83359674738032
  N   -2.40826820218359      1.58325074530075      1.24703337948556
  N   -1.15572801463328     -1.55737943523696      0.15819618779958
  O   -0.64821410097857     -2.21014935732652     -0.74780644095192
  O   -2.00164168558368     -1.94618369474330      0.95810666023512
  N   1.52517769318411     -0.61100034759905     -0.58847823862424
  O   2.03531811174189     -0.30619082118348     -1.66322099948643
  O   1.83927925131504     -1.53142241777918      0.15263314619199
  N   0.89906342721185      1.57585623456833     -0.03594899451484
  H   0.21739728893750      2.30113788677675      0.13389870099331
  H   1.68006126436842      1.82178299038539     -0.62524162952704
