13
Coordinates from ORCA-job run
  C   -0.75307253206196     -0.19613865585189      0.26986499784940
  C   0.43733757600616      0.31282423579295     -0.15030842997785
  C   -1.65007880464806      0.65057083910187      0.96879863295893
  N   -2.29253090609355      1.46118228384972      1.53228194101071
  N   -1.14250155792603     -1.58659940742145      0.08816874951385
  O   -0.33461120679088     -2.33907915174406     -0.44613684778607
  O   -2.26028509756025     -1.88816932991673      0.49703460570012
  N   1.42795570259993     -0.49833365317055     -0.88227851505830
  O   1.26070261043060     -0.59686398695665     -2.08912768563881
  O   2.35916396938124     -0.92059044798475     -0.20629056454824
  N   0.83216321659470      1.59488625447655     -0.03068230331017
  H   0.29957430979338      2.20643504858609      0.57160852251092
  H   1.81518272027473      1.79887597123889     -0.12093310322447
