13
Coordinates from ORCA-job run
  C   -0.65103754182821     -0.25159776408871      0.43711256520698
  C   0.38387585778751      0.34717492743776     -0.21423361484571
  C   -1.35693009043966      0.47249377221012      1.42914788680683
  N   -1.86704946049395      1.18090952079721      2.21992142600756
  N   -1.08392529293784     -1.61261231073279      0.15462351757348
  O   -0.72963591862234     -2.11096633096146     -0.90937463604593
  O   -1.78465373370344     -2.14200178956855      1.01217282702623
  N   1.23901275328649     -0.39423111930535     -1.16361783904749
  O   1.20743480415546     -0.00865430659223     -2.32631850801582
  O   1.94636126346916     -1.26680670907423     -0.67647461859643
  N   0.75024179214164      1.63363465931752     -0.09703264379882
  H   0.30826779326582      2.21512960359793      0.59902483353496
  H   1.63703777391935      1.93652784696280     -0.46495119580586
