13
Coordinates from ORCA-job run
  C   -0.78489875918898     -0.14159140023421      0.19102847681485
  C   0.46002478195134      0.29934140493818     -0.13285595009363
  C   -1.80735183816112      0.79908674579360      0.46562828958255
  N   -2.57285903102382      1.66604845027112      0.68932687678524
  N   -1.12660258631720     -1.55601324923191      0.31446366774586
  O   -2.29426947455537     -1.84696278994761      0.07217076536208
  O   -0.23883745171167     -2.32223335854557      0.67364021936612
  N   1.52972054408589     -0.63516769637619     -0.54834898888733
  O   2.62069982240011     -0.45761948323705     -0.01227590691658
  O   1.25389101917626     -1.44380744854213     -1.42333365885484
  N   0.85260316810906      1.58437850663344     -0.23785430842331
  H   1.84668236963572      1.75399852970184     -0.21212744502073
  H   0.26019743559978      2.29854178877648      0.15953796253970
