13
Coordinates from ORCA-job run
  C   -0.73861540681925     -0.18313605876959      0.22100981656603
  C   0.51628161176584      0.29063160917621     -0.01057187513919
  C   -1.58351675267473      0.47587247580852      1.14231213120893
  N   -2.23948366529656      1.03824532966747      1.94439685878739
  N   -1.30730149361749     -1.39871690384825     -0.38836962465505
  O   -2.17081614748755     -1.21578326559470     -1.23836243745394
  O   -0.90649308455100     -2.47023326315694      0.04700093058843
  N   1.38018805735667     -0.31758324192375     -1.04905449927748
  O   2.52630163639152      0.11874815665820     -1.12734225181270
  O   0.88012966308059     -1.17866322624653     -1.76411147060213
  N   1.11633818890615      1.29768946170371      0.65198843794493
  H   1.93323766263240      1.71708458867581      0.23716441719897
  H   0.59374973031343      1.82484433784985      1.33293956664582
