13
Coordinates from ORCA-job run
  C   -0.75397064860295     -0.15367458151221      0.25720960743322
  C   0.48304615826802      0.31281744389446     -0.05501143968961
  C   -1.73656616727430      0.72013344116988      0.78668647236254
  N   -2.54016922257941      1.47404412368097      1.19983889108220
  N   -1.16630749381216     -1.53964062826840      0.02716220345714
  O   -0.40124584352907     -2.41721921594977      0.41794792115732
  O   -2.26961283087753     -1.69653426336380     -0.48413718838794
  N   1.41455984694467     -0.49518244969245     -0.86697493260257
  O   0.92555965332668     -1.24053970243295     -1.70915463926514
  O   2.61337752760962     -0.29724810706376     -0.67269719559427
  N   0.96069362404946      1.55627295105527      0.16848726664418
  H   0.50836962200665      2.13163243479184      0.86102816563336
  H   1.96226577447031      1.64613855369092      0.06961486776958
