13
Coordinates from ORCA-job run
  C   -0.71943150556903     -0.28909926929249      0.17924932790879
  C   0.50166027057557      0.22843961867461     -0.18824966691930
  C   -1.82788905159962     -0.41941280354497     -0.69519067510462
  N   -2.77212562548109     -0.62339029998965     -1.36695544137402
  N   -0.94806745838975     -0.76321469976738      1.53760812085704
  O   -2.05128161455541     -1.23841355667104      1.78399670945567
  O   -0.02487401681721     -0.66419810270890      2.35531870392109
  N   0.69062324427987      0.68884818470764     -1.59002885264305
  O   1.44484644062489      1.64972309590151     -1.72843815978089
  O   0.13583892350960      0.05434367265009     -2.47966896514432
  N   1.62398989558703      0.32249584388408      0.51853923659408
  H   1.58408077080144      0.14272016339603      1.51267829983750
  H   2.36262972703372      0.91315815276046      0.16114136239202
