13
Coordinates from ORCA-job run
  C   -0.75597346012771     -0.15936217942002      0.27457820166667
  C   0.46381167972658      0.30116957609288     -0.11078363109952
  C   -1.67614777329378      0.72750698643742      0.88533817002374
  N   -2.36153609489738      1.54589159686605      1.38384577749596
  N   -1.17818660224445     -1.54395517330863      0.09323564970518
  O   -2.04583066119954     -1.94536696000422      0.86271488895904
  O   -0.66431563170688     -2.17381092896246     -0.82554397807683
  N   1.50941983603569     -0.60533239468665     -0.62999469517354
  O   1.99344275317857     -0.28344518658994     -1.71154603612397
  O   1.83752967303363     -1.53904919595948      0.08815107228189
  N   0.92313530914763      1.56200606093310      0.02336902008833
  H   0.25235662409686      2.28955347743187      0.22675351746524
  H   1.70229434825076      1.82319432117009     -0.56211795721219
