13
Coordinates from ORCA-job run
  C   -0.74989678277258     -0.17372579853774      0.27813731785799
  C   0.43420672840598      0.32096438387046     -0.17105161651678
  C   -1.74752588539645      0.72027755392056      0.73784584229189
  N   -2.49500613731971      1.55026523807486      1.11207908480518
  N   -1.04733123101810     -1.60184916813634      0.34962118964027
  O   -0.11450577995970     -2.36058089383926      0.59180944802169
  O   -2.22462240598411     -1.91146025214351      0.19250804666318
  N   1.45831310876202     -0.55835612275850     -0.77794105977014
  O   1.08070439027387     -1.35014040926750     -1.63027118072837
  O   2.61171189279207     -0.35815560049499     -0.40486974363652
  N   0.78418604248788      1.62135529836800     -0.24172444497838
  H   1.77197742804819      1.81314520664956     -0.32108269032332
  H   0.23978863168064      2.28826056429439      0.28593980667331
