13
Coordinates from ORCA-job run
  C   -0.75889731917483     -0.16436145149349      0.26803933759636
  C   0.47154857320016      0.28921668417494     -0.09411249137292
  C   -1.67436559881185      0.73176387706310      0.87479536305898
  N   -2.34460661316015      1.57128669102549      1.35799217881793
  N   -1.20467420408956     -1.53417480991892      0.04849667708054
  O   -2.15794772168794     -1.90308094775713      0.72813654341859
  O   -0.61558819281543     -2.19153486105319     -0.80360590483321
  N   1.50358102757324     -0.60715029381555     -0.65369470506597
  O   1.92215675808342     -1.49106904146900      0.07982410650298
  O   1.88634899793878     -0.31971331590645     -1.78344358013822
  N   0.94604656515010      1.53643427554423      0.09410120041909
  H   0.29024166923323      2.26108893909355      0.34767679352544
  H   1.73715605856082      1.82029425451243     -0.46320551900959
