13
Coordinates from ORCA-job run
  C   -0.74790428051131     -0.18173342955642      0.28958434732336
  C   0.44536676532054      0.29929483801094     -0.15530917804698
  C   -1.59624163448218      0.68357215586214      1.02731025921765
  N   -2.18454508263522      1.50445305266770      1.63328365760080
  N   -1.19665008196670     -1.54798304994261      0.07291462947300
  O   -2.33617836602859     -1.80369191754596      0.44846582644343
  O   -0.40970039174445     -2.32614955263638     -0.45571407353261
  N   1.38988056230939     -0.52625962680035     -0.92632677222667
  O   1.18814964669364     -0.60455942539069     -2.12986673853324
  O   2.33129681928699     -0.97799080984239     -0.28263438755802
  N   0.87728584771606      1.57137132688394     -0.03354743559550
  H   0.36981659385706      2.17551376411497      0.59848495915381
  H   1.87142360218477      1.73416267417509     -0.08564509371902
