13
Coordinates from ORCA-job run
  C   -0.74460833896190     -0.16941086071512      0.24198477001295
  C   0.47314208341676      0.32805403037473     -0.09929338567579
  C   -1.67895957022233      0.67107580687772      0.89007364116280
  N   -2.39227057588790      1.45649267114148      1.40273054545888
  N   -1.19445692394223     -1.54149010115265     -0.03810241588852
  O   -0.69755722817083     -2.43454321433189      0.63915720104865
  O   -2.08392204463210     -1.64975480290654     -0.87355904441332
  N   1.44490638306000     -0.50367122217536     -0.84562572134807
  O   2.61857937895128     -0.14252487075632     -0.79286069635858
  O   1.00648007745742     -1.47485711156830     -1.45241391031784
  N   0.91060934750914      1.59231604800701      0.10293755584708
  H   0.42741993684081      2.15325900782116      0.78830129122596
  H   1.91063747458187      1.71405461938409      0.03667016924580
