13
Coordinates from ORCA-job run
  C   -0.52420321435889     -0.39549013498728      0.44820774366042
  C   0.44209811081468      0.26043268745048     -0.28065353256423
  C   -0.30790316800896     -1.27213925872080      1.54174125631803
  N   -0.21544855834845     -2.00614306807979      2.45834592630609
  N   -1.93611378304651     -0.22246377439226      0.10438889532547
  O   -2.22288260991599      0.54081391805939     -0.82520325976856
  O   -2.75147769791881     -0.85131004171659      0.76808841411491
  N   1.88642292414027      0.06987877581956      0.07500557808499
  O   2.15800659309860     -0.65094010867110      1.02620743523317
  O   2.69202449773789      0.67024080662079     -0.63261098249095
  N   0.29343730790105      1.09067911897015     -1.30892427296678
  H   1.12344563554613      1.47309303468042     -1.73490070539244
  H   -0.63740603764103      1.29234804496703     -1.63969249586012
