13
Coordinates from ORCA-job run
  C   -0.64422823226845     -0.22217927168900      0.42539820440368
  C   0.42204636601060      0.34929433961068     -0.20403774571809
  C   -1.42643179193434      0.55689730405090      1.30924702547377
  N   -2.00634931462363      1.28307477503622      2.03542529117191
  N   -1.08736719298254     -1.61367551865072      0.23542786524888
  O   -0.85429125156145     -2.37685887785661      1.16696192033824
  O   -1.69002629001551     -1.86719828907964     -0.80000913284869
  N   1.29447907770486     -0.45683333749263     -1.09227825457161
  O   1.13205182170656     -1.67010355613333     -1.09878325406265
  O   2.11103216834175      0.17356199547804     -1.76054561450601
  N   0.80952574097077      1.63158598702863     -0.10172606894064
  H   0.30432469975905      2.28316592597810      0.47814780822612
  H   1.63523419889234      1.92926852371935     -0.59222804421491
