13
Coordinates from ORCA-job run
  C   -0.65812677035833     -0.38828495936437      0.23081167226735
  C   0.49138378946645      0.19950304170915     -0.23818348095715
  C   -1.83507551376689     -0.59298954803996     -0.53728940361908
  N   -2.83417967918747     -0.75864031167056     -1.13677979160107
  N   -0.79635165841827     -0.70089217557237      1.64905335269896
  O   0.18253025900399     -0.51702738550698      2.38124341059182
  O   -1.87811231396979     -1.14159217047976      2.01933686303059
  N   0.56846937024525      0.55581057700270     -1.68645882210448
  O   1.30224732991002      1.50296555325720     -1.95687337882085
  O   -0.07103920478627     -0.12357947970207     -2.47880347876664
  N   1.62906665009092      0.47873027533980      0.40192848052261
  H   1.63193878737446      0.37336420772119      1.40594398369998
  H   2.26624895439591      1.11463237530604     -0.05392940694205
