13
Coordinates from ORCA-job run
  C   -0.76859177251804     -0.15300899534816      0.22711786629555
  C   0.45143196613762      0.33715205790378     -0.10674014013724
  C   -1.73249738339039      0.69531655047531      0.82069936140058
  N   -2.43847151064173      1.47312891650426      1.35421211722684
  N   -1.14975086676248     -1.56599983219240      0.06674647616275
  O   -0.39638568707376     -2.40881707398281      0.53581593462455
  O   -2.22180417289315     -1.75889914830658     -0.49318827301781
  N   1.44010610517322     -0.52323082252776     -0.81965976333205
  O   0.99927296704159     -1.36364619331087     -1.59665216120975
  O   2.62370024557557     -0.25448359714214     -0.62598751956411
  N   0.89525304995689      1.60304793938517      0.02253851668914
  H   0.39791016321391      2.22271197095625      0.64317025928949
  H   1.90082689618077      1.69772822758594     -0.02907267442794
