13
Coordinates from ORCA-job run
  C   -0.73420392470220     -0.18930325894185      0.30849904427968
  C   0.46579987801788      0.31193206740910     -0.08793887802236
  C   -1.53665939303182      0.53785097043156      1.21983593295107
  N   -2.13439308723935      1.20908125821489      1.98280210574654
  N   -1.25911309594034     -1.46928226717899     -0.16287934719247
  O   -0.94938915189013     -1.82247396948195     -1.29586468919659
  O   -1.99380598197915     -2.06708516778453      0.61717123531271
  N   1.41020502333022     -0.49204891627518     -0.89918180308306
  O   1.64001319620993     -1.63028679421958     -0.51577394265066
  O   1.93166076356420      0.09756760977320     -1.84157613984670
  N   1.00140367965528      1.49323232662875      0.27434264149007
  H   0.39768505373751      2.18509712451646      0.69323620727982
  H   1.76179704026798      1.83671901690810     -0.29267236706806
