13
Coordinates from ORCA-job run
  C   -0.64648473104354     -0.25187245545075      0.43967846269931
  C   0.37777127626902      0.34926225071330     -0.22562975335655
  C   -1.37381667409953      0.48787506263979      1.40504491022753
  N   -1.90069675236766      1.20815058412507      2.17382058874754
  N   -1.04732556017492     -1.63160105597179      0.20362259367998
  O   -0.63556716031753     -2.17517467107413     -0.81656055830503
  O   -1.77970753053538     -2.13043426356718      1.05289039682210
  N   1.24498074295152     -0.39837782563437     -1.15721090056534
  O   2.02450469016404     -1.18869440762965     -0.63982363017398
  O   1.14623675146206     -0.09768145097218     -2.34036358269044
  N   0.71326037397753      1.64825724072774     -0.14847994051390
  H   0.26406998483335      2.23118993439077      0.54276244006010
  H   1.61177458888103      1.94810105770336     -0.48975102663131
