18
Coordinates from ORCA-job run
  C   0.83602937646639     -0.50665905859326      0.14422670308936
  C   -0.60970570504874     -0.29779549896619     -0.30144893401964
  Cl  1.22027601741105     -2.23415186044555      0.33784684853795
  H   -0.73537723455056     -0.91099339060141     -1.19783853143627
  N   1.73235887435967     -0.05022593009604     -1.06262232692183
  O   1.51728029692539     -0.57083524583451     -2.14796738301231
  O   2.55043537926656      0.83538751235975     -0.83195310536056
  N   1.16040405293774      0.16946022414673      1.33406679123483
  H   2.12176954921919      0.00094749707903      1.60229849998450
  H   1.02597343186627      1.16657086656036      1.22457466179485
  C   -0.86139996748742      1.16455446513442     -0.67576455863222
  H   -0.80587397436160      1.82089875409777      0.19755287796804
  H   -0.17057866575097      1.53322388222073     -1.43699656743271
  H   -1.87108629452269      1.25950287768483     -1.08096303878545
  C   -1.58834019813429     -0.75967457323589      0.77355076049130
  H   -1.47006619959449     -0.17054209396821      1.68411627768212
  H   -1.44127317340696     -1.80976629369660      1.02712948282881
  H   -2.61182556559453     -0.63890213384598      0.41019154198922
