18
Coordinates from ORCA-job run
  C   0.91435831071041     -0.23541097642451      0.26390115990273
  C   -0.46855954333595      0.25315684856875     -0.19636242228011
  Cl  0.78724751561265     -1.31800990225509      1.65133940832141
  H   -0.24307046491954      0.93182552820259     -1.02892143191346
  N   1.49583778782842     -1.01091780985233     -0.93378232565980
  O   1.79389527726139     -0.27911532275874     -1.87425531718534
  O   1.57384956472162     -2.22835295118029     -0.90990317648945
  N   1.89469593481763      0.76654517219119      0.56430657514387
  H   1.74058825291091      1.15573707612790      1.48351122855549
  H   1.87722443610932      1.49561540347180     -0.13792135090446
  C   -1.17093061559029      1.04771871960826      0.89999779916491
  H   -1.46821352391781      0.40106850836648      1.72749754904732
  H   -2.07302461110268      1.50981606786047      0.49273514452164
  H   -0.54075973458439      1.84796563996105      1.29367057722033
  C   -1.35227771866772     -0.87400662741898     -0.72314991719287
  H   -0.91289515675877     -1.37129402874824     -1.58993008310957
  H   -1.53252036533572     -1.62607158522952      0.04763791638747
  H   -2.31744534575946     -0.46626976049079     -1.03237133353010
