18
Coordinates from ORCA-job run
  C   0.86962329214531     -0.37522337976713      0.03330698726499
  C   -0.61491742578204     -0.28872351685656     -0.30277489332527
  Cl  1.35009676061485     -2.14870845817797      0.17947371495832
  H   -0.78013916259437     -0.96488856634769     -1.14435673524013
  N   1.71414493332090      0.08225856009467     -1.16306152781920
  O   2.75829466719189      0.67325999334568     -0.91295456029208
  O   1.29929050701475     -0.21534596324162     -2.27442002229424
  N   1.23772327859380      0.40511758652736      1.13537061026534
  H   2.24211115927280      0.44406636566827      1.25072035459135
  H   0.79368456199670      0.07547236082120      1.98108225871515
  C   -0.99167287957615      1.13415965872445     -0.71738449155193
  H   -0.76744122699688      1.84152037266479      0.08259727243098
  H   -2.06342433633989      1.17582586205186     -0.92662414854430
  H   -0.46910836551216      1.44959958152560     -1.62109067526638
  C   -1.46909052950045     -0.74147593119787      0.88049244809357
  H   -1.17462521867328     -1.72382325815038      1.25246706638774
  H   -1.42292513663881     -0.01888397101020      1.70029299348452
  H   -2.51362487853697     -0.80220729667446      0.56786334814157
