18
Coordinates from ORCA-job run
  C   0.87556250558149     -0.18994323219110      0.05617317739292
  C   -0.56132738272829      0.23022381678315     -0.23793630900376
  Cl  0.88809297879339     -1.54822397799040      1.28593225000777
  H   -0.48887577141289      0.80501186939516     -1.16664446872547
  N   1.55869034844792     -0.79930853540499     -1.18230599658912
  O   0.89662047207230     -0.93731922512747     -2.20324679001732
  O   2.74580896210473     -1.07014745591967     -1.05119189976145
  N   1.71098361791812      0.88759006812866      0.40797058993217
  H   1.39469948421711      1.33697897480076      1.25601878893085
  H   2.66589936695158      0.56877091752572      0.52598315059587
  C   -1.08637924522739      1.15171731438016      0.86363522699648
  H   -1.01200646984043      0.67494766461404      1.84508364525685
  H   -0.56330961569659      2.10945019056728      0.88548094769677
  H   -2.14181611122345      1.36437898085999      0.68126787106078
  C   -1.52658302613039     -0.93491625820555     -0.45004518333997
  H   -2.44143047625320     -0.55207977004487     -0.90919197480609
  H   -1.11788382998767     -1.69942656495949     -1.10781281631425
  H   -1.79474580758636     -1.39770477721138      0.50082979068697
