18
Coordinates from ORCA-job run
  C   0.93618201810963     -0.40218811127589      0.37270898592293
  C   -0.57014468700747     -0.06407508860854      0.43667549981243
  Cl  1.21919594039418     -1.94084081422310      1.20959564268826
  H   -0.81188619439665     -0.15577818865887      1.50307693179410
  N   1.29918449803656     -0.56720440355752     -1.10905709132075
  O   1.22943079356971     -1.67207950797854     -1.62515690205080
  O   1.55836582674454      0.48693334767814     -1.68710867018522
  N   1.86365920756892      0.55073009453880      0.89809716256359
  H   1.79295513207981      1.42557644270983      0.39574959276611
  H   1.69365441010797      0.69248203836135      1.88538889105647
  C   -1.43830862122117     -1.05076648702238     -0.34231832497874
  H   -2.48973823171211     -0.86951834181386     -0.10777509618148
  H   -1.20763406742763     -2.08706784592581     -0.09709213314967
  H   -1.31202642636219     -0.91957653480820     -1.41984724241529
  C   -0.86956868827570      1.37016052664429      0.00239523524061
  H   -0.61391303848781      1.53551463249988     -1.04585425984139
  H   -1.93871694966175      1.56052646935910      0.12118700094091
  H   -0.33969092205884      2.10617177208131      0.60933477733791
