18
Coordinates from ORCA-job run
  C   0.83565636629225     -0.17944491015322      0.37395960791209
  C   -0.49628088049534      0.31190625494395     -0.20149314389116
  Cl  0.62158032362873     -1.23990938787491      1.76913288990611
  H   -0.20578028353986      1.01390953067137     -0.99428925372161
  N   1.48788555084883     -1.02964808060651     -0.76920568460288
  O   1.46586885651997     -2.24993288995890     -0.73477720974232
  O   1.93325907081870     -0.33790267884185     -1.68380247764208
  N   1.67391754336066      0.90348311128483      0.73993553267451
  H   1.89951378616353      1.45098076150091     -0.08197265598265
  H   2.52730453367730      0.57997050429189      1.17932192783396
  C   -1.29378698697401      1.06969147217457      0.85632114821014
  H   -0.67109909102225      1.79929270543360      1.37352518318795
  H   -1.71019717923648      0.38174070470019      1.59457847559552
  H   -2.12517805352377      1.59276868512163      0.37752869711298
  C   -1.31904255058979     -0.80858267970422     -0.82999722070894
  H   -2.28080440199920     -0.40829850160588     -1.15809809651487
  H   -0.83024414451326     -1.24658996195294     -1.70210040685028
  H   -1.51257245941600     -1.60543463942451     -0.10856731277650
