18
Coordinates from ORCA-job run
  C   0.93528289968460     -0.20960467238671      0.20716434973992
  C   -0.48569927671311      0.23793568479240     -0.17155999281003
  Cl  0.92524677879425     -1.24831023615707      1.63356496041435
  H   -0.33186497950977      0.89247714903962     -1.03905434632121
  N   1.44988388903012     -1.01334175811943     -1.00232520564586
  O   1.55457305441294     -2.22764478719529     -0.94555210455780
  O   1.66792390696810     -0.30732754805443     -1.98367020002706
  N   1.91257282575598      0.81982771621394      0.40785544484592
  H   1.83245204020984      1.52486562545546     -0.31421211212227
  H   1.81375348561977      1.23568751372269      1.32292041901021
  C   -1.12764256726119      1.05468233674211      0.94523014721750
  H   -1.35660144305805      0.42902253890287      1.80976282304330
  H   -2.06354872259833      1.48884609774392      0.58642212331570
  H   -0.48763460859487      1.87702790829300      1.27168867193269
  C   -1.38051919787126     -0.92157399432248     -0.60014007047031
  H   -0.98893390936725     -1.44351407088664     -1.47527355806157
  H   -2.37059309744030     -0.54036755714523     -0.86070598538893
  H   -1.49765107806148     -1.64768794663873      0.20688463588546
