18
Coordinates from ORCA-job run
  C   0.99715454894718     -0.18160701005539      0.29039105805712
  C   -0.53760442917337     -0.22293596483382      0.41319621071164
  Cl  1.72348150945899     -0.34472072371657      1.90742245130491
  H   -0.76883306479229     -1.09236754104360      1.03651953601280
  N   1.37047152613238     -1.43793802915760     -0.51209647105249
  O   1.16903060098362     -2.51701236614117      0.02735710756362
  O   1.73172439164160     -1.26085300965652     -1.67054961948259
  N   1.60991759189656      0.92734491384992     -0.35558520618672
  H   1.43321745942565      1.78093116053471      0.15523819029788
  H   1.31777157874199      1.00673422127140     -1.31990289199081
  C   -1.19974535669477     -0.41129235790355     -0.95155839001853
  H   -0.95169295276531     -1.37058132187487     -1.40884576744486
  H   -2.28485575645328     -0.37614336298458     -0.83233853407025
  H   -0.92170935120236      0.38538278010323     -1.64756962244456
  C   -1.06063267314184      1.03955466690521      1.09137316673595
  H   -0.92992772249244      1.91348246179988      0.44734315464113
  H   -2.13050789008867      0.93436465093272      1.28378054587126
  H   -0.56726001042366      1.22865683197061      2.04582508149451
