18
Coordinates from ORCA-job run
  C   0.96408889776583     -0.23711997791133      0.35379635094912
  C   -0.57607181147313     -0.22037573172650      0.35929575542155
  Cl  1.55708665377465     -0.51028576563272      2.01030676737914
  H   -0.88729147179318     -1.10919047321183      0.91701088325878
  N   1.35059437466437     -1.46668916658766     -0.48299495714712
  O   1.80688827828955     -1.24760537690138     -1.60000462138404
  O   1.06695733695040     -2.56168374344143     -0.01760866465138
  N   1.66610081703683      0.87595031429233     -0.18491850174950
  H   1.45364963924449      1.01498929299110     -1.16318171198148
  H   1.48372845838269      1.71005889297891      0.35512182790204
  C   -1.13801758936292     -0.31328901821543     -1.05920730860164
  H   -2.22693798350943     -0.23819455672706     -1.01996852649779
  H   -0.77673305040820      0.50375713756975     -1.69029013369627
  H   -0.89270546560220     -1.25901747965793     -1.54530894639539
  C   -1.10119188412759      1.02757639614754      1.06214649161634
  H   -0.88707783143528      1.92667394772558      0.47789563688185
  H   -0.67697021233157      1.14697890453771      2.06011730165906
  H   -2.18609715606531      0.95846640377037      1.16679235703675
