18
Coordinates from ORCA-job run
  C   0.90129485313275     -0.26382951389228      0.28238445373769
  C   -0.45685748026720      0.26900461938186     -0.20212259780172
  Cl  0.71026801827249     -1.37603154715370      1.63906554011733
  H   -0.19323566387210      0.96145097199374     -1.01180035512554
  N   1.49727232822201     -1.02395902332618     -0.91767787036905
  O   1.54651483428470     -2.24312651190868     -0.92132938914166
  O   1.83731097274288     -0.27685160988543     -1.83169923778548
  N   1.89681511114836      0.70631292983674      0.63400063124074
  H   1.91951859391685      1.44863324518122     -0.05421304849380
  H   1.72155477389717      1.08246406500015      1.55493493762816
  C   -1.16972848750514      1.05395346035085      0.89439139285681
  H   -2.04926277750425      1.54752967180051      0.47484016687987
  H   -0.53199982831340      1.82918489966064      1.32431569670167
  H   -1.50464440121687      0.39516239408887      1.69757739487816
  C   -1.35246485601701     -0.82360313472259     -0.77910959322012
  H   -1.57419902493602     -1.58700923959490     -0.03061344145676
  H   -2.29766818373907     -0.38493198005939     -1.10720716004935
  H   -0.90048878224617     -1.31335369675144     -1.64373752059696
