18
Coordinates from ORCA-job run
  C   0.89008566080619     -0.11261010990823      0.02931320846781
  C   -0.58788030341747      0.16600100266261     -0.22749624312962
  Cl  1.06645292070657     -1.38022524007713      1.34039360789527
  H   -0.60062244584857      0.68210514066483     -1.19268166146772
  N   1.57524472405011     -0.74372321077780     -1.19683065523882
  O   0.88851055780494     -1.00615553823497     -2.17619251094216
  O   2.78566741359513     -0.90366264978250     -1.10178024589286
  N   1.64223953907232      1.05205181813049      0.27575741038386
  H   2.62511916176252      0.82329067871564      0.37053015092932
  H   1.32137739577191      1.52836932441226      1.10718657580251
  C   -1.14738084003023      1.11209018036181      0.83574300312986
  H   -0.99423970000736      0.71009177205566      1.84121718793558
  H   -2.22346131658953      1.22330976786086      0.68703774324672
  H   -0.70844267732397      2.10949007176110      0.77356555410952
  C   -1.45717696186992     -1.08675709482549     -0.32265006521442
  H   -1.64817916679635     -1.50486244900700      0.66678490822027
  H   -2.41835663334494     -0.81313730097349     -0.76487572166835
  H   -1.00995732834136     -1.85766616303866     -0.94702224656676
