18
Coordinates from ORCA-job run
  C   0.86763876341228     -0.34481338745440      0.47356319063447
  C   -0.64062478235351     -0.05956500842389      0.44735872694932
  Cl  1.20336357931632     -1.86555660960727      1.31856259610534
  H   -0.92973127841079     -0.15117304456141      1.50013181646434
  N   1.32213326072656     -0.54424012380509     -1.01386317866373
  O   1.65392027357434      0.49563654971097     -1.58307665395898
  O   1.25104865295766     -1.65077336505223     -1.52761092751477
  N   1.59892017411003      0.69042932246159      1.10430122356479
  H   2.56303654498057      0.41466918218668      1.24811278259070
  H   1.57852453508943      1.52494391906253      0.53177423738237
  C   -1.43065768807407     -1.07517591884447     -0.37407758266675
  H   -1.16760141463296     -2.10331778861986     -0.12582589638628
  H   -2.49651602436130     -0.93893130992938     -0.17779675088056
  H   -1.27027693185156     -0.93250522962651     -1.44530774602919
  C   -0.95181039598449      1.36606049282766     -0.00903870286917
  H   -0.58924433463476      1.55396837649516     -1.02221259089514
  H   -2.03475544023389      1.50832963061452     -0.01218874131387
  H   -0.52836749362986      2.11101431256540      0.66619419748710
