18
Coordinates from ORCA-job run
  C   0.94208858159527     -0.38514346815202      0.37572327443849
  C   -0.56995716482646     -0.07271372857896      0.43590666749988
  Cl  1.25023871705679     -1.91726523945844      1.21625022548527
  H   -0.81085077838861     -0.16321918188335      1.50265082525666
  N   1.31093339325681     -0.54728673578684     -1.10514299123407
  O   1.55890482865463      0.50888982926357     -1.68433516448174
  O   1.25507660341200     -1.65382604604940     -1.61941523857791
  N   1.85139280035798      0.58479115942128      0.90094340410676
  H   1.67485596727583      0.72883203583927      1.88670865600523
  H   1.77046178635103      1.45569447235617      0.39340107985277
  C   -1.42115803840772     -1.07689448009647     -0.33909973022027
  H   -1.17478024863804     -2.10823312092221     -0.08838488888543
  H   -1.29515666977755     -0.94929744530063     -1.41708237424577
  H   -2.47571617962891     -0.91094347274150     -0.10729061950676
  C   -0.89178440704948      1.35446029869250     -0.00554760306128
  H   -0.37552487618912      2.10174938756215      0.59933719194439
  H   -1.96420814269132      1.52800046945020      0.10921071723775
  H   -0.63581617236312      1.51940526638468     -1.05383343161395
