18

C	0.0	0.0	0.0
C	-0.271395	0.018811	-1.556064
Cl	1.77231	0.0	0.0
H	0.509605	-0.639406	-1.947508
C	-0.516229	1.146523	0.723317
N	-0.624591	2.183973	1.281444
N	-0.46615	-1.250806	0.652399
O	-0.530181	-1.257621	1.891304
O	-0.422414	-2.277645	-0.050401
C	-0.026702	1.433601	-2.079221
H	0.95526	1.822279	-1.796885
H	-0.094154	1.43357	-3.173097
H	-0.790477	2.11406	-1.687782
C	-1.576988	-0.509602	-2.150156
H	-1.367478	-0.731395	-3.207766
H	-1.89908	-1.427937	-1.664197
H	-2.382532	0.220323	-2.105818
H	-1.965558	0.0	0.0
