18

C	0.0	0.0	0.0
C	-0.326168	0.005813	-1.538264
Cl	1.761479	0.0	0.0
H	-1.412853	0.078667	-1.561165
C	-0.751589	1.098823	0.629134
N	-0.720513	2.187093	1.121411
N	-0.369608	-1.264304	0.774522
O	-0.481994	-1.132785	1.989402
O	-0.344158	-2.343129	0.186991
C	0.079703	-1.212398	-2.363076
H	-0.535194	-2.077619	-2.128088
H	1.128961	-1.483539	-2.223053
H	-0.062073	-0.960364	-3.420202
C	0.250428	1.279783	-2.169129
H	0.128405	2.148059	-1.517166
H	-0.290057	1.47665	-3.100334
H	1.310778	1.175474	-2.412934
H	-2.167997	0.0	0.0
