18

C	0.0	0.0	0.0
C	-0.280839	0.025932	-1.553628
Cl	1.772082	0.0	0.0
H	0.506373	-0.617979	-1.958046
C	-0.53209	1.137337	0.725556
N	-0.602779	2.178799	1.284787
N	-0.464332	-1.257475	0.650019
O	-0.41447	-2.281418	-0.056484
O	-0.538406	-1.266307	1.886421
C	-0.06018	1.450118	-2.063693
H	-0.851138	2.105732	-1.687082
H	-0.100292	1.456637	-3.157036
H	0.900562	1.862411	-1.752341
C	-1.587417	-0.513748	-2.141701
H	-1.384287	-0.740065	-3.201234
H	-2.395999	0.213083	-2.088454
H	-1.902152	-1.431513	-1.652242
H	-1.975921	0.0	0.0
