13
Coordinates from ORCA-job run
  C   -0.68221090265574      0.15633766692029      0.13496909679035
  C   0.70196411974368      0.61787044977106     -0.27576820137710
  F   -1.48827377373876      0.04132848122391     -0.93924579654220
  H   0.65753745381036      1.63061787032218     -0.67360151374391
  H   1.38497320579194      0.56310259420549      0.57193018458073
  N   -0.61259662934836     -1.21467126571774      0.84195871088397
  O   -1.36785301997155     -2.07941414103358      0.44605429360163
  O   0.18752905695839     -1.25475803603989      1.76423342231111
  C   -1.25455611730192      1.08969664100204      1.10996227614546
  N   -1.71515946290261      1.85684987903767      1.87152791903785
  N   1.25136941945719     -0.25438921014132     -1.35918122771511
  O   1.89798640553738      0.30668761169353     -2.23449173922732
  O   1.03829024462001     -1.45825854124364     -1.25734742474546
