13
Coordinates from ORCA-job run
  C   -0.58035066310773      0.14088807536614      0.26261373553856
  C   0.51610133146787     -0.33216109436406     -0.66851343413163
  F   -1.46639095901764      0.93093837847210     -0.39419499708698
  H   1.15287248977564     -1.07463240490985     -0.18620860787150
  H   0.07416375551714     -0.76419686538823     -1.56495927965403
  N   -1.39921462451910     -1.09815068135353      0.69035637768008
  O   -1.51676599987193     -1.97192908401321     -0.16071497137424
  O   -1.92009163920123     -1.06083021017707      1.79597013318097
  C   -0.08248837416769      0.79150283501708      1.47358393506158
  N   0.34952494554502      1.26981517136781      2.45554500337957
  N   1.40480127490109      0.78980912216503     -1.11466380344798
  O   2.32841830454591      0.44979990272929     -1.84215515182183
  O   1.13842015813266      1.92914685508851     -0.74665893945255
