13
Coordinates from ORCA-job run
  C   -0.68483160638325      0.10455189053627      0.17275050237929
  C   0.61624737489823      0.64972572803281     -0.38216727068431
  F   -1.54739561385965     -0.18424496068296     -0.82191651272144
  H   1.35860686060128      0.73659067608566      0.41113640628006
  H   0.44579509957841      1.61259007250627     -0.86148108259851
  N   -0.43338829906482     -1.18151031032615      0.98938713964292
  O   -1.13081859174874     -2.14257756250112      0.73464274944291
  O   0.43227251103220     -1.06402438925005      1.84337390073737
  C   -1.27640049428176      1.06997020409030      1.10401412817435
  N   -1.73402814961657      1.86896268398758      1.83426468715314
  N   1.17151672218096     -0.26685016061078     -1.42566436682594
  O   1.07875862428868     -1.47045871279835     -1.20652158253872
  O   1.70366556237502      0.26627484093055     -2.39081869844109
