13
Coordinates from ORCA-job run
  C   -0.77057294674837      0.15281350166067      0.18889244694899
  C   0.09892957019350      0.10833014251708     -1.04954433263195
  F   -2.06859903666749      0.19407400686976     -0.23616305068481
  H   -0.12789596167494     -0.79371736106383     -1.61747512790910
  H   -0.07926081588736      0.99384812279763     -1.65937506330617
  N   -0.65576112568307     -1.15023421033480      0.98850343659318
  O   -0.58060407112097     -2.16543666388985      0.31038193346202
  O   -0.73294256724047     -1.06357284526352      2.20441183155599
  C   -0.49669234808122      1.29459010599384      1.05898636926215
  N   -0.30050202425529      2.27053166892463      1.68272228232630
  N   1.54901790306731      0.07168747751650     -0.70574975635340
  O   1.84051817519218     -0.21167529851720      0.45485388998446
  O   2.32536524890622      0.30076135278909     -1.62244485924769
