13
Coordinates from ORCA-job run
  C   -0.59756978104166      0.14403552535250      0.22147515258827
  C   0.60797096523970     -0.32147077590237     -0.57216958327781
  F   -1.40451902188609      0.89757203686887     -0.54876292441276
  H   1.27844264242982     -0.91852969795583      0.04594942974833
  H   0.27586605117758     -0.89879023818693     -1.43573456554397
  N   -1.36162646654054     -1.15231861220739      0.58265182976856
  O   -0.74516380289434     -1.91201416120685      1.31669290885051
  O   -2.46525752890709     -1.29886501392780      0.08937571156753
  C   -0.29501181126839      0.81489672716399      1.48521111040749
  N   -0.08360264843574      1.31702995331101      2.52606401176353
  N   1.39441360340364      0.83466923082968     -1.10820537454653
  O   1.31817575839726      1.90224439539065     -0.51012594800962
  O   2.07888204032583      0.59054063047046     -2.09342175890350
