13
Coordinates from ORCA-job run
  C   -0.60425158820860      0.10222838336870      0.22684599037680
  C   0.62703770787240     -0.34156079285384     -0.53896761135864
  F   -1.53843115557631      0.57490589435272     -0.61949036676062
  H   0.35111866995172     -1.11411865220279     -1.25758731157863
  H   1.39750445209511     -0.71281869880300      0.13680028516221
  N   -1.15929611599649     -1.19022419095954      0.87230276833900
  O   -0.41404896739793     -1.70156794327800      1.69640059085721
  O   -2.24637959587468     -1.57839784655195      0.48460973333830
  C   -0.35806389698344      1.04121607239301      1.32059951467663
  N   -0.18684055805462      1.75877198982753      2.23497043258291
  N   1.22033095596553      0.78391689747495     -1.32882103093448
  O   1.00974366335345      1.92732747772059     -0.93930017820522
  O   1.90057642885385      0.44732140951159     -2.28936281649546
