13
Coordinates from ORCA-job run
  C   -0.80703790701795      0.14083249825612      0.17466179258713
  C   0.09323667385178      0.23852898504814     -1.04692898203664
  F   -2.08991022047072      0.20114808360494     -0.25938004949651
  H   -0.05168194220215      1.20661397402448     -1.52386192041004
  H   -0.14451888539875     -0.58882437219680     -1.71496521590240
  N   -0.60450405594667     -1.24485375965824      0.81098429566900
  O   0.10345814672269     -1.29167303035524      1.80686024783385
  O   -1.14522912685591     -2.16314974267525      0.21724527903841
  C   -0.56205138406981      1.17205347153010      1.18055059408912
  N   -0.40038465013041      2.04759973298165      1.94726961074718
  N   1.52217912473569      0.12426088550513     -0.63828388756191
  O   1.96987846357797     -1.01616543727238     -0.54397997637739
  O   2.11756576320425      1.17362871120734     -0.41017178817976
