13
Coordinates from ORCA-job run
  C   -0.81093727147554      0.13776308205481      0.15880355340504
  C   0.11431262379962      0.24799554373249     -1.04313924929825
  F   -2.08446827531675      0.19418190848425     -0.30224783059495
  H   -0.10963721058054     -0.57313652545741     -1.72347095225092
  H   -0.02199084166656      1.22039515247080     -1.51388413162363
  N   -0.61167265699754     -1.25121713821553      0.78860529688976
  O   -1.15649400020275     -2.16661233641198      0.19421767027077
  O   0.09269268380204     -1.30112914402855      1.78700583575923
  C   -0.59464939022198      1.16180101160906      1.17828774181348
  N   -0.45776163405414      2.03197122641448      1.95589787581058
  N   1.53480272883098      0.13037519269662     -0.60728440928610
  O   1.99170629608965     -1.00853563476192     -0.54495644811955
  O   2.11409694799351      1.17614766141293     -0.32683495277547
