13
Coordinates from ORCA-job run
  C   -0.66406199136425      0.15698743613285      0.21673376879059
  C   0.63571095884072      0.60137429307732     -0.42392653423661
  F   -1.61187816586724     -0.05763018560800     -0.71716209123951
  H   0.50789218319161      1.57422108120627     -0.89640858633914
  H   1.43231698169375      0.63402210064393      0.31931270345970
  N   -0.46054637218948     -1.14864839123920      1.01513599858645
  O   -1.25014802424095     -2.04883887314935      0.81167900800311
  O   0.47009932455535     -1.10567488688912      1.80544117199365
  C   -1.11342380119501      1.16191052331188      1.18524657218838
  N   -1.45612465140366      1.99377172791781      1.94106115261201
  N   1.05523611060341     -0.35379963304003     -1.49590940278422
  O   0.86115457426310     -1.54581751224999     -1.28084772156245
  O   1.59177287311262      0.13812231988569     -2.48035603947192
