13
Coordinates from ORCA-job run
  C   -0.60872199549202      0.03427354906451      0.23300627091868
  C   0.66316153530049     -0.29352234227235     -0.52529204899979
  F   -1.61183065743979      0.29973482847965     -0.62476193301679
  H   0.49003528928734     -1.15371185284511     -1.17298357041490
  H   1.48729514990270     -0.49522344085728      0.15893201324191
  N   -0.96593910630329     -1.26548304291266      0.99307028826798
  O   -0.14342389421903     -1.59807011487525      1.83507796439714
  O   -1.99334948606772     -1.83188704193336      0.66686494287045
  C   -0.48478669470590      1.08546960656106      1.24214252316095
  N   -0.41389505905647      1.89691392885572      2.08870623125348
  N   1.07940912706644      0.83535918394039     -1.41702153885143
  O   0.71054506040073      1.96533086741556     -1.11621112163231
  O   1.79050073132652      0.52081587137909     -2.36253002119533
