13
Coordinates from ORCA-job run
  C   -0.76966490552161      0.13198738643402      0.21677758407997
  C   0.10599717173071      0.32198910153727     -1.00337995912213
  F   -2.06367103589265      0.29410872861922     -0.19138161613050
  H   -0.14316205768902     -0.43377814860620     -1.74786177473445
  H   -0.04259417812646      1.32049187807114     -1.41407606721558
  N   -0.69309495874395     -1.31093378346251      0.72939846771197
  O   -0.78258702938296     -1.47569813225092      1.93638228394466
  O   -0.63337744268569     -2.16546558371353     -0.14371036929566
  C   -0.47098050965619      1.06109830663011      1.30457952808157
  N   -0.22985256595581      1.87804788085795      2.11350691143996
  N   1.55251067564630      0.17080825861821     -0.67585569776748
  O   1.82989177112838     -0.34971305585312      0.40305873756941
  O   2.33958506514895      0.55505716311836     -1.52943802856177
