13
Coordinates from ORCA-job run
  C   -0.60116011091621      0.06700016672011      0.24415904326675
  C   0.63729762080797     -0.32720031834073     -0.53751797856556
  F   -1.60309090340306      0.38929110087791     -0.59525612870405
  H   0.40813857305582     -1.17721435555614     -1.18116635161710
  H   1.46264185645828     -0.57153984510546      0.13124208283298
  N   -1.01577885258168     -1.21293760496216      1.00842132269801
  O   -2.08246458488114     -1.71665203575768      0.70587872017624
  O   -0.19442035949796     -1.59667968137209      1.82959742816617
  C   -0.40137756826833      1.10684761198176      1.25294562980706
  N   -0.26797904666739      1.90523218436406      2.10440230844197
  N   1.09492418488828      0.77921316888167     -1.43694359229204
  O   1.75961235887836      0.42820220053110     -2.40324397474929
  O   0.80265683212707      1.92743740773770     -1.12151850946115
