13
Coordinates from ORCA-job run
  C   -0.40629221255218      0.12286330574229      0.49554383106872
  C   0.25524011338490     -0.06821567060370     -0.85567304333971
  F   -0.98333979398563      1.33693975621454      0.56847822159449
  H   0.74213419097634     -1.04127565046153     -0.92055327485480
  H   -0.48983478456426      0.03446834368219     -1.64538185542870
  N   -1.52994795696007     -0.94000968049075      0.54385827240776
  O   -1.13061448196187     -2.09587369504634      0.51685764687681
  O   -2.67654190251042     -0.53124290850743      0.57545528893972
  C   0.45105508235331     -0.12543722205807      1.65401817730052
  N   1.09665591592857     -0.36117856002292      2.60680001034182
  N   1.29642548821452      0.97734012437845     -1.11146806334298
  O   1.82632399493011      1.50378233444468     -0.13917296655435
  O   1.54873634674668      1.18783952272859     -2.29076224500931
