13
Coordinates from ORCA-job run
  C   -0.66271404263140     -0.02950677213385      0.26822941799854
  C   0.29962191076096      0.52053683190286     -0.76558985153365
  F   -1.42477136730843     -1.00912286604100     -0.25732019136237
  H   1.00553043517517      1.20691614063591     -0.29804142745612
  H   -0.25046092503560      1.01608487368179     -1.56425148273528
  N   0.10563070288333     -0.60435362005575      1.47797884636935
  O   0.92695779492096      0.16506692473169      1.95332092029373
  O   -0.20403264485415     -1.71818322814403      1.85005761436544
  C   -1.50273885832319      1.05065749534514      0.79478492469319
  N   -2.17222291599452      1.93224802775624      1.18884247343052
  N   1.08936632483558     -0.58150748377037     -1.39757481897592
  O   1.44718769141740     -1.49627108496838     -0.66268218649242
  O   1.34164589415391     -0.45356523894023     -2.58875423859500
