13
Coordinates from ORCA-job run
  C   -0.66298406917070     -0.08022862599723      0.25653049833811
  C   0.27459627255288      0.55285146438579     -0.75226306853611
  F   -1.34527743458159     -1.10222040830932     -0.29729308671762
  H   -0.29692502226079      1.01956982419579     -1.55325706928136
  H   0.92254666412929      1.28056467734688     -0.26386164879840
  N   0.12435052103687     -0.61912266006177      1.47025653134354
  O   -0.11165849648488     -1.75786767468506      1.82036500057517
  O   0.88154759947774      0.19851473992461      1.97099329524420
  C   -1.58611695881661      0.92902488129860      0.78462376012860
  N   -2.32405432012288      1.75358723335548      1.18003048792555
  N   1.15101519720897     -0.48052705780943     -1.38634689977406
  O   1.41456481001207     -0.31488928253180     -2.57044076865612
  O   1.55939523701968     -1.38025711111252     -0.65933703179150
