13
Coordinates from ORCA-job run
  C   -0.77021643119093      0.10298137349757      0.22082015501158
  C   0.09082421254330      0.32584045809800     -1.00407292014420
  F   -2.07151142974995      0.22015791170952     -0.17955101709849
  H   -0.13207358428039     -0.44056323057215     -1.74611330903437
  H   -0.09961009294419      1.31663512948191     -1.41611522537451
  N   -0.63944601396830     -1.33748304846278      0.72988889286976
  O   -0.70561733770737     -1.50760161179850      1.93756813913173
  O   -0.56400877313286     -2.18780179261983     -0.14614335144868
  C   -0.49955152989340      1.03999944097459      1.30913022182149
  N   -0.30722968934709      1.86408159232170      2.12388457045772
  N   1.54350193885361      0.23241054311678     -0.68313591961119
  O   2.31139893926561      0.65506648322225     -1.53602893876605
  O   1.84553979155200     -0.28472324896910      0.39086870218518
