13
Coordinates from ORCA-job run
  C   -0.81054280135433      0.15309465733434      0.13537029682881
  C   0.14641739289395      0.22492569266281     -1.04379619738932
  F   -2.07107786853638      0.23298093185197     -0.35807823978905
  H   0.03488830262703      1.18821248760794     -1.53894905308422
  H   -0.06883468663192     -0.60847644416370     -1.71200207585758
  N   -0.66631754049524     -1.23053444639403      0.79207343625090
  O   -0.03414772727248     -1.28001520844603      1.83743995912405
  O   -1.17309441124962     -2.14589098175317      0.16467991583781
  C   -0.59238063543894      1.18968184539398      1.14202149388188
  N   -0.45088686296565      2.06958891952870      1.90776741461431
  N   1.55321859060885      0.10117745768843     -0.56667264841634
  O   2.16202981908557      1.14713247537430     -0.35949664732847
  O   1.96972842872918     -1.04287738668558     -0.40035765467276
