11

C	0.0	0.0	0.0
C	-0.246977	0.209689	-1.547577
Br	1.949859	0.0	0.0
H	0.489333	-0.4274	-2.051168
H	-0.376047	-0.945004	0.380672
H	0.044528	1.244102	-1.774268
C	-0.391965	1.125468	0.832944
N	-0.572785	1.996573	1.600609
C	-1.503146	-0.055459	-2.270656
N	-2.240778	-0.093431	-3.191715
Cl	-3.016448	0.0	0.0
