11

C	0.0	0.0	0.0
C	-0.542435	-0.012343	-1.429379
Br	1.947529	0.0	0.0
H	-1.642828	-0.011663	-1.316274
H	-0.339618	-0.881018	0.54427
H	-0.227264	0.890743	-1.958191
C	-0.404773	1.207585	0.716729
N	-0.625006	2.177585	1.341247
C	-0.105307	-1.188228	-2.170406
N	0.237361	-2.133131	-2.777369
Cl	-3.428704	0.0	0.0
