11

C	0.0	0.0	0.0
C	-0.541696	0.065706	-1.428085
Br	1.947578	0.0	0.0
H	-0.222393	0.994552	-1.908121
H	-0.343669	-0.907301	0.49633
H	-1.641798	0.064923	-1.315374
C	-0.40015	1.16904	0.780495
N	-0.620822	2.101821	1.459191
C	-0.11168	-1.071228	-2.230916
N	0.221885	-1.984572	-2.88911
Cl	-3.417308	0.0	0.0
