11

C	0.0	0.0	0.0
C	-0.235028	0.215883	-1.534218
Br	1.949964	0.0	0.0
H	0.028105	1.257017	-1.745986
H	-0.38062	-0.952005	0.361362
H	0.525729	-0.388995	-2.038086
C	-0.429036	1.11276	0.835826
N	-0.526221	2.066244	1.51574
C	-1.466008	-0.072847	-2.275688
N	-2.23298	-0.095181	-3.167287
Cl	-2.993102	0.0	0.0
