11

C	0.0	0.0	0.0
C	-0.24203	0.128629	-1.546549
Br	1.949779	0.0	0.0
H	0.472342	-0.546673	-2.014202
H	-0.380837	-0.933234	0.403427
H	0.081268	1.137082	-1.825198
C	-0.400803	1.141715	0.789971
N	-0.595252	2.022558	1.547371
C	-1.50436	-0.109088	-2.261802
N	-2.249959	-0.122108	-3.168891
Cl	-3.015214	0.0	0.0
