12
Coordinates from ORCA-job run
  C   -0.62199333218076     -0.59827880313768      0.33349567083218
  C   0.56872714241213      0.23398195893979      0.72950907932509
  Cl  -1.73656925990809     -0.71216723224099      1.69772096252302
  H   0.28096893181299      1.24708643581492      0.99912209401040
  H   -0.36307896964846     -1.60054494276043      0.00530666631550
  H   1.10263970076886     -0.23385247000159      1.55802586408024
  N   -1.35174880704649      0.03694383945965     -0.82649171694885
  O   -1.98440414034357     -0.72825331377990     -1.54150865175802
  O   -1.26910268950134      1.25524031643495     -0.93688820669252
  N   1.54395745899575      0.34448749931489     -0.40080867766479
  O   2.41971284830645      1.18940426485490     -0.27398987864855
  O   1.40989111633252     -0.43404755289850     -1.34249320537371
