12
Coordinates from ORCA-job run
  C   -0.71920935157368     -0.52887409387498      0.29022381280264
  C   0.72867198916920     -0.60766197945692     -0.13308808594462
  Cl  -0.89332832288211     -0.26152080560285      2.00997805306848
  H   1.22913942477189     -1.43781582173930      0.36100033636586
  H   -1.21132053311791     -1.46818575850810      0.03283324128654
  H   0.79409185701152     -0.70858830945483     -1.21681959303243
  N   -1.46891783403531      0.51343064914175     -0.53913549151387
  O   -1.33287542387180      0.34611182181752     -1.74594637272845
  O   -2.14991544256639      1.35278988002450      0.01810916422760
  N   1.48489122532344      0.62852551539845      0.23151881278749
  O   0.89425533301925      1.69486748225738      0.09201895985073
  O   2.64451707875188      0.47692141999738      0.59830716283003
