12
Coordinates from ORCA-job run
  C   -0.70577802729041     -0.54690662559882      0.28632744398448
  C   0.74313521948009     -0.58893253546979     -0.13994779607454
  Cl  -0.88306191541481     -0.28726136524717      2.00676298945077
  H   1.26290206964783     -1.41455340857722      0.34157463077198
  H   -1.17599088163217     -1.49699513548799      0.02798879426078
  H   0.80811058767822     -0.67228937734751     -1.22529360087980
  N   -1.48070787344279      0.48018800388816     -0.53934077423120
  O   -2.16619816690732      1.31417136381309      0.02048276143781
  O   -1.35484062521949      0.30830663673414     -1.74657402858207
  N   1.46936493045526      0.65926293864154      0.24185901362546
  O   0.86594261434586      1.71477635854360      0.07679568036262
  O   2.61812206829974      0.52923314610797      0.64936488587372
