12
Coordinates from ORCA-job run
  C   -0.48864224912925     -0.78419075213495     -0.01608577345261
  C   0.49239022439709     -0.00136310339361      0.81562006171216
  Cl  -1.57724908435757     -1.67675350276987      1.04949598939345
  H   -0.00823402400113      0.73043264055265      1.44485957340094
  H   -0.01924422393705     -1.48130703781788     -0.70386490444737
  H   1.09307752018477     -0.67154581310070      1.43217932780239
  N   -1.31707576357639      0.14284583006236     -0.87419137306012
  O   -1.76162304941342     -0.34167561440249     -1.90590810713489
  O   -1.49277302741415      1.28177192451931     -0.45566606752710
  N   1.44969081469172      0.75387543105168     -0.05299832688091
  O   1.47713270630346      0.46941607540885     -1.24842149752004
  O   2.15155015625192      1.57949392202465      0.51498109771412
