12
Coordinates from ORCA-job run
  C   -0.71281377832008     -0.52841912558082      0.30339539588862
  C   0.73726537465016     -0.60217743168629     -0.11452024547745
  Cl  -0.89472033618829     -0.20528888442026      2.01249979815369
  H   1.24604817955540     -1.41345993005695      0.40185442060405
  H   -1.19267315411858     -1.48177608031337      0.07666057979274
  H   0.80524545445313     -0.72833024202873     -1.19546929706631
  N   -1.47296722863344      0.47655062805070     -0.56202037395304
  O   -1.34126870711127      0.26324365367115     -1.76197238845258
  O   -2.15584873330107      1.33352481674057     -0.03464543102971
  N   1.47574252878544      0.65225375250454      0.22166186779492
  O   0.88293010342222      1.70723152216174      0.01857392309807
  O   2.62306029680637      0.52564732095773      0.63398175064701
