12
Coordinates from ORCA-job run
  C   -0.69745475679698     -0.53500506438345      0.32619731845515
  C   0.72641671767720     -0.60091299571673     -0.17509890747146
  Cl  -0.78081958239489     -0.26543879759105      2.05215948714832
  H   0.73289615927074     -0.69252228273197     -1.26162253806233
  H   -1.19463602880078     -1.47891913494267      0.09732243107315
  H   1.25883012007049     -1.43031533844493      0.28564705751932
  N   -1.49956737014626      0.49985251036526     -0.46295441013381
  O   -1.43675316678683      0.32419839426493     -1.67453275310500
  O   -2.14693874171450      1.34215148996113      0.12885859596481
  N   1.48955126019230      0.63934629398933      0.15902066404912
  O   2.65718328664961      0.49502044160417      0.50286490666924
  O   0.89229210277991      1.70254448362599      0.02313814789348
