16
Coordinates from ORCA-job run
  C   -0.67805767784577     -0.48017166119779     -0.22896397335099
  C   0.70243775151294      0.12468926074247     -0.49397889827166
  Cl  -1.04641698284328     -1.65872908412887     -1.49899034114585
  H   0.85186290245547      0.35413173883037     -1.54445573246399
  N   -0.79163027079548     -1.07711144126099      1.02486578129733
  H   -1.69496192228042     -1.51500918586027      1.14927953166266
  H   -0.60768699137585     -0.41089622544450      1.76532008714952
  N   -1.70052089380357      0.68437066394189     -0.48945590775160
  O   -1.38686499832212      1.51078030848476     -1.33678026096446
  O   -2.73480813943605      0.63516382173382      0.15580535676056
  N   1.77040921397463     -0.84536336985591     -0.06449880132471
  O   2.10471016312404     -1.66126650996047     -0.91254959236891
  O   2.18522854089180     -0.74011704012334      1.08202727294192
  N   0.93857889725719      1.38907150967154      0.27660829967536
  O   0.23478756652950      1.60331894140615      1.25915708761495
  O   1.85293284095698      2.08613827302117     -0.14238990946014
