16
Coordinates from ORCA-job run
  C   -0.62889878892700     -0.37299442412757     -0.26596490855911
  C   0.66161311729121      0.30946885461572      0.19414868635470
  Cl  -0.57354586450729     -0.89325333433127     -1.92979580170987
  H   0.49739753771532      0.78648005745068      1.16003739731735
  N   -0.86636391506732     -1.47905465389735      0.58420946921535
  H   -1.00053980396536     -1.19132643258548      1.54711866653171
  H   -1.64318939655757     -2.04169575340791      0.26135558632130
  N   -1.77287221835134      0.69840453680856     -0.10103260467581
  O   -1.77480092648399      1.22336964704094      1.00928120247879
  O   -2.59201272344480      0.84763369175222     -0.98649940189693
  N   1.13621874449871      1.38908908128503     -0.73402921773033
  O   0.25031147036406      2.03788436869583     -1.27715816624011
  O   2.34236160689916      1.57721405149183     -0.79404980787944
  N   1.73566233363845     -0.71290040940432      0.38808286539115
  O   2.01072423215350     -0.96053413143047      1.55847897937287
  O   2.21693459474426     -1.21878514995644     -0.61518294429160
