16
Coordinates from ORCA-job run
  C   -0.67583686298315     -0.25970461522101     -0.22864884351917
  C   0.63732581382635      0.34759444982107      0.26568703180391
  Cl  -0.62230347933494     -0.55809243726728     -1.98930900631601
  H   0.45489039396059      0.91788098531457      1.17369073365916
  N   -1.02920770510696     -1.37403029717525      0.56680550540050
  H   -1.98036309934248     -1.65744314793123      0.35681760935291
  H   -0.40340039142996     -2.15040399757015      0.38859439718302
  N   -1.82245506713814      0.75503663859712      0.04563700201365
  O   -2.87852370005239      0.50076538690546     -0.51095214561661
  O   -1.61092414137344      1.64451317795833      0.85564450410942
  N   1.23776670231377      1.29697752794197     -0.74066612869790
  O   0.50106884052893      2.21742046751064     -1.06254486327534
  O   2.37757217853652      1.07833577116784     -1.12415584742162
  N   1.67255145520889     -0.67972368859342      0.58999177189509
  O   1.69674059139169     -1.70785494979098     -0.07964429753087
  O   2.44309847099472     -0.37027127166768      1.49205257695986
