16
Coordinates from ORCA-job run
  C   -0.70336006977657     -0.42437409906939     -0.15983803344468
  C   0.65893703238702      0.16621709333215     -0.55054368543568
  Cl  -1.26968234411827     -1.46159032713418     -1.54088113114860
  H   0.76876021631062      0.29375798007354     -1.62476485934262
  N   -0.69922429271377     -1.03893311944208      1.09248933404476
  H   -1.63007930593555     -1.05212306787224      1.49125156169104
  H   -0.30389885072121     -1.96924699845007      1.05415201282200
  N   -1.71781008673810      0.73054616907242     -0.14949360662844
  O   -1.54864027747438      1.58521616502196     -1.00676073521606
  O   -2.63015309077387      0.65947540860642      0.65833314797138
  N   1.75976262264159     -0.75843886132538     -0.07866749466285
  O   2.69051928651671     -0.26737960403170      0.54126518699726
  O   1.61808911088158     -1.93237511600117     -0.39711822042020
  N   0.92448143341324      1.50383910477709      0.07601542387476
  O   0.43384862376409      1.72149474894756      1.17587000381599
  O   1.64844999233687      2.24291452349507     -0.58030890491805
