16
Coordinates from ORCA-job run
  C   -0.62419305662986     -0.38071758596980     -0.26906256154024
  C   0.65712422510131      0.31330375120099      0.19894061994737
  Cl  -0.56006030287707     -0.89190715126045     -1.93527551141319
  H   0.48874585737252      0.77295213576798      1.17243700039952
  N   -0.85168968329825     -1.49434533942409      0.57396313859131
  H   -1.62189958429789     -2.06297197075969      0.24567094852579
  H   -0.99117684925215     -1.21429905943309      1.53838579579999
  N   -1.78019756529575      0.67772448166476     -0.10108673454585
  O   -2.60398515952421      0.81602799679530     -0.98391272510579
  O   -1.78489297042032      1.20445019649379      1.00839963116633
  N   1.11792717407365      1.41381033693692     -0.71156911835868
  O   2.31876781098794      1.64067409487281     -0.73498239271839
  O   0.22840844090391      2.03756990533231     -1.27745462615697
  N   1.74669571719048     -0.69640680158267      0.37425891285377
  O   2.01688751258437     -0.97161589692965      1.53927543240265
  O   2.24453843338133     -1.16524909370541     -0.63898780984763
