17

C	-0.298903	-0.045646	-1.499213
C	0.0	0.0	0.0
F	-0.03611	1.278827	-1.996739
H	1.095827	0.0	0.0
N	0.600318	-0.965953	-2.096232
H	0.641239	-0.79409	-3.094528
H	1.530852	-0.790579	-1.696473
N	-1.664385	-0.357661	-1.806213
H	-1.760117	-0.464033	-2.810508
H	-2.231707	0.434193	-1.523071
C	-0.451246	-1.268391	0.72064
H	-0.061148	-1.261579	1.741804
H	-1.538656	-1.364309	0.742391
H	-0.032028	-2.128459	0.197519
C	-0.558903	1.1893	0.614904
N	-1.050717	2.123269	1.133618
H	2.804088	0.0	0.0
