17

C	-0.358609	-0.163108	-1.486017
C	0.0	0.0	0.0
F	-0.022774	-1.464659	-1.836193
H	1.094236	0.0	0.0
N	-1.768693	-0.022413	-1.729057
H	-2.118074	0.805252	-1.261973
H	-1.898539	0.089966	-2.728125
N	0.445331	0.677607	-2.344618
H	1.420533	0.53119	-2.070402
H	0.228685	1.641601	-2.121266
C	-0.511051	-1.115224	0.904807
H	-0.087438	-2.058208	0.558666
H	-1.601331	-1.188032	0.894414
H	-0.166223	-0.94383	1.927944
C	-0.453832	1.309326	0.438097
N	-0.839683	2.376796	0.750261
H	2.802737	0.0	0.0
