17

C	-0.318362	0.048964	-1.51014
C	0.0	0.0	0.0
F	-0.135823	-1.280049	-1.97404
H	1.096928	0.0	0.0
N	-1.66276	0.372674	-1.933544
H	-1.887315	1.296646	-1.583827
H	-2.304669	-0.294152	-1.518858
N	0.584574	0.956399	-2.09423
H	0.554989	0.873123	-3.101123
H	1.525641	0.781981	-1.729505
C	-0.518691	-1.237313	0.719265
H	-0.051553	-2.120894	0.28589
H	-0.244126	-1.18782	1.774822
H	-1.607973	-1.33665	0.652695
C	-0.488973	1.218837	0.621242
N	-0.929529	2.176332	1.14389
H	2.801656	0.0	0.0
