17

C	-0.299094	-0.06284	-1.49833
C	0.0	0.0	0.0
F	-0.033042	1.255145	-2.011679
H	1.09583	0.0	0.0
N	0.59841	-0.991863	-2.084492
H	0.639518	-0.831313	-3.084819
H	1.529398	-0.811701	-1.687084
N	-1.665149	-0.37527	-1.80079
H	-1.76317	-0.487968	-2.804693
H	-2.231046	0.419467	-1.521525
C	-0.451613	-1.259872	0.735466
H	-1.539121	-1.353843	0.760625
H	-0.034908	-2.126257	0.220771
H	-0.059374	-1.242421	1.755686
C	-0.558757	1.196183	0.601101
N	-1.051431	2.134654	1.110693
H	2.803612	0.0	0.0
