17

C	-0.29943	-0.106444	-1.504452
C	0.0	0.0	0.0
F	-1.57184	-0.743115	-1.670713
H	1.095482	0.0	0.0
N	-0.285383	1.163192	-2.124137
H	-0.994845	1.774061	-1.739874
H	-0.410835	1.035702	-3.119549
N	0.644592	-0.945511	-2.195443
H	0.495491	-1.899495	-1.887545
H	1.572569	-0.671302	-1.846906
C	-0.426078	-1.23759	0.786628
H	0.014791	-2.126376	0.328859
H	-0.031095	-1.170274	1.803208
H	-1.510665	-1.356668	0.820979
C	-0.544745	1.204454	0.595576
N	-1.010863	2.172593	1.075422
H	2.780377	0.0	0.0
