17

C	-0.317969	0.037814	-1.497699
C	0.0	0.0	0.0
F	-1.658877	0.499447	-1.670013
H	1.095386	0.0	0.0
N	0.517151	0.961268	-2.220242
H	1.476162	0.771303	-1.904184
H	0.285042	1.895223	-1.898368
N	-0.163989	-1.244935	-2.082774
H	-0.258277	-1.132876	-3.085038
H	-0.872725	-1.8773	-1.736053
C	-0.501302	-1.224808	0.756291
H	-0.260651	-1.127412	1.817273
H	-1.583225	-1.362743	0.65817
H	0.023985	-2.104958	0.380983
C	-0.449882	1.235835	0.622728
N	-0.798323	2.228881	1.147038
H	2.790137	0.0	0.0
