17

C	-0.30031	-0.067963	-1.506199
C	0.0	0.0	0.0
F	-1.575461	-0.694595	-1.688113
H	1.095349	0.0	0.0
N	-0.280855	1.215619	-2.093611
H	-0.40686	1.112722	-3.091974
H	-0.988605	1.816821	-1.694239
N	0.639077	-0.894461	-2.21963
H	0.483061	-1.855321	-1.937912
H	1.569487	-0.635882	-1.867891
C	-0.422884	-1.258111	0.755295
H	0.031949	-2.132124	0.283592
H	-1.505989	-1.3877	0.775797
H	-0.039176	-1.209241	1.777266
C	-0.544681	1.189487	0.625092
N	-1.000434	2.155476	1.119041
H	2.777616	0.0	0.0
