12

C	-0.131613	-0.056	-1.517171
C	0.0	0.0	0.0
F	-0.14322	1.299043	-1.994494
H	1.092368	0.0	0.0
H	-0.470444	0.896404	0.39837
H	-0.390183	-0.90518	0.46606
N	0.966955	-0.784158	-2.009929
H	1.819102	-0.542305	-1.450638
H	1.085373	-0.661423	-3.005357
C	-1.412638	-0.597547	-2.038819
N	-2.436648	-1.029881	-2.420884
F	2.755131	0.0	0.0
