12

C	-0.538807	0.190866	-1.38665
C	0.0	0.0	0.0
F	-0.128965	-0.847159	-2.215436
H	1.090133	0.0	0.0
H	-0.354931	0.820664	0.634822
H	-0.40329	-0.944918	0.375165
N	-1.986976	0.180477	-1.428501
H	-2.344456	0.742809	-0.668156
H	-2.327761	0.555945	-2.306078
C	-0.007644	1.435311	-2.016215
N	0.271224	2.456865	-2.523639
F	2.675882	0.0	0.0
