11

C	-0.391588	-0.060094	-1.458792
C	0.0	0.0	0.0
F	-1.765004	-0.224263	-1.649399
H	1.093639	0.0	0.0
H	0.1069	-0.910469	-1.932644
H	-0.352435	0.923204	0.466287
C	0.000549	1.171172	-2.166776
N	0.252212	2.138228	-2.780352
C	-0.511202	-1.152844	0.71943
N	-0.900752	-2.093282	1.306471
H	2.712103	0.0	0.0
