11

C	-0.405434	-0.000376	-1.465591
C	0.0	0.0	0.0
F	-0.109798	-1.240386	-2.009346
H	1.093039	0.0	0.0
H	0.186609	0.747786	-2.002752
H	-0.373533	-0.90863	0.479003
C	-1.842908	0.246659	-1.692706
N	-2.987939	0.427962	-1.881603
C	-0.499437	1.178766	0.684926
N	-0.902762	2.139288	1.229248
H	2.723981	0.0	0.0
