11

C	-0.389707	-0.106145	-1.453486
C	0.0	0.0	0.0
F	-1.728691	-0.47216	-1.628803
H	1.093806	0.0	0.0
H	0.225676	-0.890122	-1.905232
H	-0.2995	-0.927161	0.498702
C	-0.175706	1.145219	-2.197429
N	-0.038266	2.152328	-2.78482
C	-0.582493	1.137998	0.682621
N	-1.035971	2.061067	1.252052
H	2.706992	0.0	0.0
