11

C	-0.520588	-0.001105	-1.428925
C	0.0	0.0	0.0
F	-0.176033	1.194197	-2.039065
H	1.092729	0.0	0.0
H	-1.61393	-0.065228	-1.461632
H	-0.331793	0.929542	0.473762
C	0.001519	-1.118194	-2.238816
N	0.311639	-2.012137	-2.933202
C	-0.533788	-1.135526	0.731435
N	-0.96996	-2.055258	1.31947
H	2.729956	0.0	0.0
