11

C	-0.387137	-0.091574	-1.454514
C	0.0	0.0	0.0
F	-1.719552	-0.479669	-1.637059
H	1.093829	0.0	0.0
H	0.242687	-0.858016	-1.917283
H	-0.298564	-0.933981	0.48668
C	-0.196333	1.175111	-2.179651
N	-0.080225	2.193625	-2.750878
C	-0.585377	1.128436	0.696918
N	-1.039375	2.042623	1.279843
H	2.704773	0.0	0.0
