16

C	-0.532025	-0.001597	-1.448153
C	0.0	0.0	0.0
Br	0.265693	-1.498268	-2.393407
H	1.094143	0.0	0.0
C	-2.040195	-0.062278	-1.554086
H	-2.473711	0.816694	-1.068086
H	-2.338517	-0.074444	-2.600284
H	-2.403534	-0.963633	-1.060295
N	-0.045716	1.262139	-2.15667
O	-0.564383	1.503209	-3.242663
O	0.814455	1.929189	-1.600656
C	-0.46465	-1.208079	0.684647
N	-0.868579	-2.164324	1.234084
C	-0.501126	1.175834	0.715417
N	-0.932406	2.125844	1.255521
Br	3.347451	0.0	0.0
