16

C	-0.352908	-0.008293	-1.49599
C	0.0	0.0	0.0
Br	0.103323	1.716324	-2.26399
H	1.097941	0.0	0.0
C	0.38483	-1.113928	-2.217343
H	0.197207	-1.058083	-3.287579
H	1.451149	-1.001424	-2.003344
H	0.042686	-2.08291	-1.842553
N	-1.858827	-0.168147	-1.707791
O	-2.592111	0.040759	-0.746288
O	-2.225601	-0.488572	-2.8329
C	-0.438109	-1.251294	0.61967
N	-0.7633	-2.273978	1.097762
C	-0.487517	1.151864	0.751447
N	-0.834991	2.080743	1.380504
Br	3.330076	0.0	0.0
