16

C	-0.374193	0.043217	-1.488927
C	0.0	0.0	0.0
Br	-2.31489	0.101905	-1.728835
H	1.095987	0.0	0.0
C	0.300074	1.205211	-2.183508
H	1.378829	1.11421	-2.010939
H	-0.053496	2.14588	-1.761353
H	0.079648	1.176268	-3.2495
N	0.092968	-1.244568	-2.172418
O	0.552825	-2.131257	-1.46295
O	-0.02269	-1.277728	-3.391981
C	-0.553728	-1.127211	0.744212
N	-1.039739	-1.983346	1.384915
C	-0.428473	1.246631	0.636661
N	-0.762836	2.252343	1.143566
Br	3.31863	0.0	0.0
