16

C	-0.410422	-0.005328	-1.468219
C	0.0	0.0	0.0
Br	0.255044	1.616043	-2.31208
H	1.097923	0.0	0.0
C	0.089949	-1.220849	-2.225614
H	1.175689	-1.279369	-2.136101
H	-0.354801	-2.123558	-1.798087
H	-0.185938	-1.149899	-3.277255
N	-1.938221	0.043112	-1.617691
O	-2.598661	0.102932	-0.586733
O	-2.382827	-0.040112	-2.757024
C	-0.438854	-1.21894	0.659445
N	-0.741203	-2.239425	1.166662
C	-0.432516	1.178796	0.731794
N	-0.707736	2.142201	1.351648
Br	2.742687	0.0	0.0
