11

C	0.0	0.0	0.0
C	-0.366551	-0.003529	-1.49989
F	1.390515	0.0	0.0
H	0.348415	0.69202	-1.955142
H	-0.325267	0.897015	0.535343
H	-0.386855	-0.890611	0.499634
H	-0.096001	-0.99217	-1.882243
N	-1.701695	0.295891	-1.956701
H	-2.396394	-0.375157	-1.645641
H	-2.047941	1.161437	-1.562731
Br	-4.28264	0.0	0.0
