11

C	0.0	0.0	0.0
C	-0.505541	0.218245	-1.398264
F	1.396342	0.0	0.0
H	-1.596024	0.163257	-1.342581
H	-0.346441	0.784785	0.673964
H	-0.330689	-0.972685	0.365165
H	-0.224339	1.233206	-1.725587
N	0.007169	-0.838213	-2.274904
H	-0.462708	-0.787744	-3.170088
H	0.995569	-0.684335	-2.434562
Br	-3.936949	0.0	0.0
