16

C	0.0	0.0	0.0
C	-0.672638	0.092815	-1.339707
Br	1.941833	0.0	0.0
H	-1.75195	0.14412	-1.0401
H	-0.504065	-0.868365	-1.842182
N	-0.228209	1.340415	0.796874
O	-1.32246	1.864958	0.572396
O	0.579923	1.727135	1.637549
C	-0.606515	-1.087278	0.855022
H	-1.700665	-0.885241	0.804272
H	-0.214044	-1.044409	1.874336
H	-0.384094	-2.064414	0.421598
N	-0.244582	1.255217	-2.111983
H	0.408565	0.991818	-2.842317
H	-1.057153	1.67288	-2.550363
F	-3.120758	0.0	0.0
