16

C	0.0	0.0	0.0
C	-0.317326	0.341925	-1.499113
Br	1.950684	0.0	0.0
H	-0.017493	1.384605	-1.638528
H	0.391146	-0.267084	-2.071
N	-0.410327	1.126054	0.942712
O	-0.499677	0.84343	2.133351
O	-0.574629	2.244963	0.470255
C	-0.617173	-1.284557	0.466724
H	-0.288578	-1.548559	1.471191
H	-1.707647	-1.083367	0.435338
H	-0.348746	-2.080743	-0.233056
N	-1.644514	0.112581	-2.006711
H	-2.361632	0.278695	-1.248473
H	-1.735048	-0.881308	-2.186305
F	-3.173941	0.0	0.0
