14
Coordinates from ORCA-job run
  C   1.12308142203877     -0.41011451771493      0.18735893228008
  C   -0.35238724483719      0.02089646885867      0.21457840973870
  Cl  1.77233067453947     -0.56499667994526     -1.46624135335354
  H   -0.63532589839026     -0.06114085019375      1.27893469775811
  H   1.21631723483320     -1.39531847516918      0.65208527734687
  C   1.93495570640675      0.53787938011044      0.94728835562415
  N   2.56094559259490      1.28759800046415      1.59932299927602
  C   -1.22692911837929     -0.92950644882704     -0.58636811468784
  H   -1.02558238692788     -0.81654174684465     -1.65192205855713
  H   -1.05187493088304     -1.96920289070851     -0.30081469830671
  H   -2.28095432918712     -0.70398250346666     -0.40503481242999
  N   -0.46912423679104      1.36859011809387     -0.31188928279815
  H   -1.43741039229070      1.58303762769823     -0.51243760347021
  H   -0.13004209272657      2.05180251764461      0.35513925157963
