14
Coordinates from ORCA-job run
  C   1.09003053551007     -0.13417027186229      0.65437269756480
  C   -0.41219098112608      0.10952735848486      0.43126336654631
  Cl  1.37711073727216     -1.70370379376446      1.46569607054116
  H   -0.89888655605575     -0.08982841780088      1.39699384753419
  H   1.47981199462477      0.63049871685366      1.33009870098133
  C   1.83408163710167     -0.07469129124244     -0.59986119659362
  N   2.42143578335482     -0.04263109552311     -1.61579202593617
  C   -0.99208534747097     -0.81673224831009     -0.62280825935926
  H   -2.07497181914884     -0.68038237558762     -0.68073530176722
  H   -0.79637336524371     -1.86310027505823     -0.38723153388139
  H   -0.56046430904589     -0.58836758146034     -1.60027293449862
  N   -0.52972376673220      1.49578103582305     -0.00214531867409
  H   -0.57225527022433      2.12619858728042      0.78867125344445
  H   -1.36451927281570      1.63060165216747     -0.55724936590186
