14
Coordinates from ORCA-job run
  C   1.14428562475071     -0.38656758886738      0.08891317213906
  C   -0.31050367799953      0.05487466606270      0.29092977237461
  Cl  1.63218879710913     -0.27031696181636     -1.63341944813316
  H   -0.47397759737338     -0.01557436640185      1.37366803667351
  H   1.25476615373678     -1.43943770680395      0.35983334266552
  C   2.05373147726148      0.41104488130680      0.90548951355342
  N   2.76739270226063      1.02656179448387      1.60517886118490
  C   -1.28578096682979     -0.88876772491968     -0.41014737110929
  H   -2.31096425649323     -0.59104084266175     -0.17833275725257
  H   -1.15659685577845     -0.84613374784150     -1.49356525159785
  H   -1.15356523124153     -1.92589551837773     -0.08767212036120
  N   -0.42575064311609      1.45899122417023     -0.06464504636478
  H   -0.45541636054221      1.56519372585666     -1.07184559357046
  H   -1.27880916574452      1.84806816580993      0.31561488979827
