14
Coordinates from ORCA-job run
  C   1.17277374824276      0.18943464983287      0.18284955034494
  C   -0.34565502298538      0.05880662048882      0.33358831426288
  Cl  1.90536997114074      0.85903709831679      1.67688112405576
  H   -0.52947813560708     -0.59339367282532      1.20155859707535
  H   1.37773541989863      0.91188929617009     -0.61073691977309
  C   1.80662898761187     -1.08878002038406     -0.12238447148987
  N   2.28685967190482     -2.12882295837932     -0.38051892618718
  C   -0.94190046216645     -0.57709412859464     -0.91416538657072
  H   -0.55673610868087     -1.58376415594064     -1.08144516009549
  H   -2.02755757578606     -0.64902532448420     -0.80809021941086
  H   -0.72851061309725      0.04249240915071     -1.78862128377893
  N   -0.88576805765297      1.40390434985848      0.48482255969201
  H   -1.89668571771616      1.36850581425984      0.43550600724331
  H   -0.63807610510659      1.78581002253056      1.38975621463189
