14
Coordinates from ORCA-job run
  C   1.16370261940140      0.09119510212041      0.28556937635926
  C   -0.36735298494960      0.06514441107601      0.30857245993009
  Cl  1.81546468873337      0.61872376138464      1.87115372434580
  H   -0.66708094822945     -0.62000959651114      1.11677972321496
  H   1.48285456564975      0.84026864646949     -0.44297743661851
  C   1.73017213995273     -1.21125763211599     -0.04825458930386
  N   2.15613317532438     -2.26818283508072     -0.33214875869338
  C   -0.90069949347514     -0.45216753529406     -1.01978426045699
  H   -0.56755521148435      0.19489065858531     -1.83436895469002
  H   -0.57904528496772     -1.47535835072266     -1.21630774146645
  H   -1.99352302772271     -0.44292886542019     -1.00749577572063
  N   -0.82340173211937      1.43594771427017      0.50123149507708
  H   -1.82688005473691      1.47830474538127      0.37129141297580
  H   -0.62478845137638      1.74642977585746      1.44473932504685
