14
Coordinates from ORCA-job run
  C   1.07509445157750     -0.42276171142201      0.03043076721651
  C   -0.37538610380112      0.04273826356894      0.31699983154199
  Cl  1.43048373546972     -0.44133053062152     -1.72420411053516
  H   -0.46512168418257     -0.00225608319790      1.41003249534650
  H   1.21909808923205     -1.44672780413731      0.38486813094894
  C   2.02342695148449      0.45801863285805      0.70441983035247
  N   2.72667735672449      1.20068234540998      1.28188214449169
  C   -1.38817569694341     -0.91572241984509     -0.29070927387975
  H   -1.36239081686228     -0.87256699573396     -1.38142639093077
  H   -2.38651611706079     -0.62685123108798      0.03832825008634
  H   -1.19783815224702     -1.94743629080006      0.01542894614493
  N   -0.67258576420315      1.39980082202666     -0.08457448880822
  H   -0.55677614196874      1.50837681895044     -1.08503132100840
  H   -0.06899010721914      2.06603618403178      0.38255518903292
