14
Coordinates from ORCA-job run
  C   1.16601182632820      0.12101132057325      0.26179379061266
  C   -0.36354009409762      0.06827123848030      0.31302469627757
  Cl  1.83578502865136      0.70362457341177      1.82048408337181
  H   -0.63660735853515     -0.59557938677285      1.14808271692618
  H   1.45837596740720      0.85568024545593     -0.49224372628294
  C   1.75120111007452     -1.17915929566864     -0.04737032664264
  N   2.19341225685969     -2.23505629193220     -0.30917027191529
  C   -0.91104735928934     -0.50158093786470     -0.98781102075449
  H   -0.57390360339387     -1.52492261701007     -1.15708996202755
  H   -0.60516958371481      0.12480894819484     -1.82916488592095
  H   -2.00359262228964     -0.51170887582815     -0.95467963794499
  N   -0.84137322742940      1.43625702858552      0.46974870573072
  H   -1.84940264356426      1.45440556392652      0.37008564535558
  H   -0.62114969700688      1.78394848644847      1.39531019321433
