14
Coordinates from ORCA-job run
  C   1.20230654389078      0.08221898904782      0.30149364104820
  C   -0.33625679113146      0.05399092611299      0.36243052205128
  Cl  1.87546250105743      0.45472911987054      1.91333331201684
  H   -0.60221758699514     -0.64584114199256      1.16292880736871
  H   1.50493961795308      0.89972465257936     -0.35690991578091
  C   1.76985279175584     -1.17579665866835     -0.17519247473726
  N   2.18655923687060     -2.19918390118763     -0.57325453062123
  C   -0.92091900547601     -0.43498456763093     -0.95769790989426
  H   -0.58639966537015     -1.44092658886385     -1.21403364849865
  H   -0.63451061233105      0.23870102887342     -1.77203361967262
  H   -2.01101080232197     -0.44276881717364     -0.89102236910033
  N   -0.78350236487314      1.40258414455431      0.68998029413651
  H   -1.36653113533395      1.77890699658536     -0.04484838899411
  H   -1.30077272769487      1.42664581789314      1.55582628067784
