14
Coordinates from ORCA-job run
  C   1.13166734829824     -0.36977645680207      0.21331624842902
  C   -0.30698390395626      0.15980074189418      0.25576882855033
  Cl  1.60296191960456     -0.85653881955865     -1.44748155192829
  H   -0.46027063687113      0.46220101283355      1.29935699804917
  H   1.21547577569281     -1.27231214809264      0.82370735354568
  C   2.07399096110713      0.62686136974628      0.71283754576001
  N   2.82943213661507      1.40265532049429      1.16582813260894
  C   -1.31831339548543     -0.93202179318346     -0.08736450497975
  H   -1.21480759834757     -1.80386031852361      0.56554599367388
  H   -2.33126188286236     -0.54024945066480      0.03035864801618
  H   -1.19952603038716     -1.26066511326162     -1.12183406776333
  N   -0.38269419005278      1.36624930640463     -0.55067899956222
  H   -0.41880435999051      1.12916342094307     -1.53514085882329
  H   -1.21986614336462      1.88749292777083     -0.32421976557632
