14
Coordinates from ORCA-job run
  C   1.16510460526447      0.12658901463108      0.26771919869480
  C   -0.36371273455952      0.04787419953453      0.31604723243870
  Cl  1.82557725534827      0.65057338904076      1.85091305088652
  H   -0.62636865429623     -0.65878106569970      1.11866640257337
  H   1.44469871680191      0.89870898297453     -0.45284146821593
  C   1.77033766529607     -1.14939478423594     -0.09793416068132
  N   2.22803211260476     -2.18573057841237     -0.40711451583650
  C   -0.90266190650722     -0.46833446511699     -1.01051591792920
  H   -0.61195564793608      0.20506306641109     -1.82052509733987
  H   -1.99474177683784     -0.50330079193121     -0.97580808430751
  H   -0.54462175751728     -1.47485020600013     -1.23069660725599
  N   -0.86221743743422      1.39935511380187      0.53718439652791
  H   -0.66010715992877      1.70171289541384      1.48261685482278
  H   -1.86836328029833      1.41051522958864      0.42228871562225
