14
Coordinates from ORCA-job run
  C   1.10148549508366     -0.40713882746047      0.30782525182156
  C   -0.33987195685162      0.11681238890292      0.19802894968328
  Cl  1.68648291775105     -1.15776398101014     -1.20019305045215
  H   -0.59133414427996      0.42445376366278      1.22841007839423
  H   1.14127811965095     -1.18269244779901      1.07731815967671
  C   1.99641556953627      0.68137196872953      0.69493262670841
  N   2.65834216931140      1.59252656594771      1.02737336744320
  C   -1.30188705211183     -0.98266444002737     -0.22063453189285
  H   -1.18856427338356     -1.87124000622348      0.40441272836195
  H   -2.33189810026244     -0.63087487707628     -0.12096529768276
  H   -1.12783954296268     -1.25736654368773     -1.26123039842225
  N   -0.38435653876674      1.20830718573677     -0.75771609425095
  H   0.02450459280937      2.05010126692697     -0.36921594037166
  H   -1.34275725552388      1.41416798337781     -1.00834584901672
