14
Coordinates from ORCA-job run
  C   1.10136134465358     -0.09733417458589      0.64201097824664
  C   -0.40763261750008      0.11649816856198      0.43371339852242
  Cl  1.42524700217436     -1.63793571963939      1.49407973783580
  H   -0.87689423725289     -0.05881745497085      1.41258568838372
  H   1.48763301631844      0.69269998482644      1.29005771910759
  C   1.82706332726487     -0.06164209679517     -0.62387771251707
  N   2.39951002133269     -0.04919615736368     -1.64867849296887
  C   -0.98878429613272     -0.85191341216871     -0.58086229779777
  H   -0.77847048659365     -1.88726634537888     -0.31178697386086
  H   -2.07376039970949     -0.72971298779284     -0.62995083767406
  H   -0.57162979554242     -0.65301425290378     -1.57088935825756
  N   -0.55213756732485      1.48618390781556     -0.04193668180293
  H   -1.39377111634776      1.59046811709985     -0.59291904151803
  H   -0.59673419534008      2.14098242329537      0.72845387430098
