14
Coordinates from ORCA-job run
  C   1.07025477694692     -0.32943538392540      0.28445290297493
  C   -0.41340922938675      0.11691882579169      0.24256307169276
  Cl  1.64499915731539     -0.86997376929590     -1.32254803163126
  H   -0.64003319173439      0.40754361497332      1.27645710369595
  H   1.18790622591865     -1.18290513033501      0.95717212604241
  C   1.90889337879724      0.77011978287286      0.75082855249115
  N   2.51973192074317      1.69425418586975      1.14108897818144
  C   -1.32234228516995     -1.03977890327405     -0.14426032954576
  H   -2.35971957687871     -0.72267604276625     -0.03654440561033
  H   -1.16128188197383     -1.33338727837438     -1.18347994436644
  H   -1.15049280443624     -1.91398332279983      0.48865232154415
  N   -0.68377158984082      1.26311203325214     -0.59668228773266
  H   -0.44438364578717      1.06290382239111     -1.56038909904353
  H   -0.15735125451353      2.07528756561995     -0.29731095869282
