15

C	0.0	0.0	0.0
C	-0.547379	0.094864	-1.44428
Br	1.962388	0.0	0.0
H	-1.63519	-0.078231	-1.30515
C	-0.413929	1.144065	0.813025
N	-0.586753	2.110027	1.461687
C	-0.385316	-1.265134	0.634134
N	-0.571335	-2.306887	1.146767
C	0.009565	-0.969771	-2.269602
N	0.439875	-1.79903	-2.982808
C	-0.347796	1.470607	-2.072443
H	-0.751169	1.4583	-3.086845
H	0.707036	1.751327	-2.116121
H	-0.906038	2.210023	-1.495898
Br	-3.514504	0.0	0.0
