15

C	-0.566438	-0.027707	-1.408639
C	0.0	0.0	0.0
F	-0.204002	1.098287	-2.142115
H	1.100779	0.0	0.0
H	-1.662597	-0.041173	-1.350639
C	-0.152067	-1.224807	-2.163797
N	0.145283	-2.152131	-2.817925
N	-0.495717	-1.240874	0.630651
H	0.273918	-1.903128	0.593341
H	-0.648382	-1.058754	1.615583
C	-0.496751	1.227319	0.734711
H	-0.252599	2.132017	0.175549
H	0.008223	1.293183	1.703397
H	-1.582361	1.187783	0.898445
H	2.934655	0.0	0.0
