15

C	-0.563702	-0.057714	-1.408508
C	0.0	0.0	0.0
F	-0.241486	1.075088	-2.149931
H	1.095069	0.0	0.0
H	-1.658268	-0.110164	-1.351073
C	-0.107796	-1.248148	-2.151483
N	0.197617	-2.206137	-2.756861
N	-0.480592	-1.234939	0.651149
H	0.327183	-1.848696	0.731346
H	-0.763866	-1.016059	1.598195
C	-0.495998	1.24202	0.710854
H	-0.236047	2.136769	0.144088
H	-0.004791	1.312619	1.685284
H	-1.5844	1.217807	0.859396
H	2.922249	0.0	0.0
