12
Coordinates from ORCA-job run
  C   -0.76956194767706      0.09726419770306     -0.03046693946161
  C   0.72095171346628      0.39630945379771     -0.15995451240117
  F   -1.24685942261287     -0.31188356834624     -1.25317827525651
  H   1.15170454920151      0.68907569088297      0.79967503176332
  H   0.87321605135468      1.18873050861743     -0.89221276675745
  C   -1.44075763723386      1.35686042570509      0.34485149072469
  N   -1.93898011795341      2.37952278803555      0.63759312953876
  C   -1.07459556096930     -0.91637450607381      0.99312820038425
  N   -1.35458607234404     -1.65922086847846      1.85845496088733
  N   1.49387110823080     -0.79017473701370     -0.65186669056585
  O   2.57037900892892     -0.52733560784576     -1.17270987115974
  O   1.01421832760837     -1.90377377698385     -0.47431375769603
