12
Coordinates from ORCA-job run
  C   -0.49613051027348      0.33742300298625      0.49235939638165
  C   0.45027235228991      0.15374083289526     -0.69015701665709
  F   0.19471535767805      0.92660744977902      1.52490351764909
  H   -0.04779630594406     -0.34702575550366     -1.52277233180732
  H   0.82592479148145      1.12443743822329     -1.01263329826461
  C   -1.10832681791053     -0.92097376892466      0.95060988503271
  N   -1.67408089913266     -1.89435739964908      1.28448184610732
  C   -1.57212253978397      1.24960509225919      0.05885385516138
  N   -2.40774097241187      1.98240945983556     -0.32130071150373
  N   1.65123054860224     -0.66753919539888     -0.32955300512344
  O   1.56021186977798     -1.43355321578244      0.62262833928663
  O   2.62384312562698     -0.50977394071985     -1.05642047626258
