12
Coordinates from ORCA-job run
  C   -0.58496133994930      0.17779701971680      0.47788735184922
  C   0.57290887153339      0.35280802881227     -0.50010107007591
  F   -0.11113191122001      0.34171547277369      1.75820273933404
  H   0.99348883541431      1.35240346344728     -0.39370982677873
  H   0.24988985694128      0.19336025907035     -1.53081604685770
  C   -1.26144439058299     -1.12426483776952      0.35490727600957
  N   -1.87132909694865     -2.11919695835841      0.22385114077116
  C   -1.56657919147080      1.24272304094417      0.19457575965504
  N   -2.32085090118275      2.10737839938504     -0.05685548599603
  N   1.69040436329524     -0.60900388206071     -0.22935483187440
  O   1.42555577247528     -1.64637878241915      0.36673700353056
  O   2.78304913169500     -0.26934122354181     -0.66532400956683
