16

C	0.0	0.0	0.0
C	-0.615435	0.121525	-1.389185
Cl	1.796467	0.0	0.0
H	-1.724913	0.099605	-1.06682
C	-0.472092	1.132511	0.906705
H	-0.078189	0.990788	1.915104
H	-1.566662	1.06492	0.882043
H	-0.111578	2.08692	0.514994
C	-0.397434	-1.295551	0.569269
N	-0.593866	-2.325059	1.09864
N	-0.280386	-1.019304	-2.225327
H	-1.017516	-1.169975	-2.900806
H	0.591995	-0.8697	-2.718534
C	-0.281284	1.410096	-1.998365
N	-0.021628	2.412561	-2.55798
F	-2.84554	0.0	0.0
