16

C	0.0	0.0	0.0
C	-0.457221	0.107842	-1.471546
Cl	1.800049	0.0	0.0
H	-0.148646	-0.834315	-1.954085
C	-0.393347	1.203398	0.854457
H	0.064909	1.115889	1.843159
H	-0.017359	2.098327	0.357204
H	-1.47809	1.204148	0.915774
C	-0.417643	-1.271916	0.589802
N	-0.611464	-2.317844	1.08852
N	0.177843	1.27809	-2.098429
H	-0.400922	1.51568	-2.895892
H	1.1028	1.02799	-2.430774
C	-1.932465	0.250669	-1.711529
N	-2.655391	0.48042	-2.628002
F	-2.608662	0.0	0.0
