16

C	0.0	0.0	0.0
C	-0.634072	0.272839	-1.370933
Cl	1.783335	0.0	0.0
H	-1.710884	0.426371	-1.049771
C	-0.475877	1.047527	1.004096
H	-0.144357	2.035476	0.672021
H	-0.049334	0.845279	1.98868
H	-1.568741	0.9627	0.99999
C	-0.413452	-1.336479	0.446601
N	-0.636658	-2.419014	0.84377
N	-0.493946	-0.895156	-2.253402
H	-1.292644	-1.487632	-2.038214
H	-0.605254	-0.594297	-3.214669
C	-0.065614	1.466597	-1.977512
N	0.342544	2.441507	-2.492993
F	-2.856879	0.0	0.0
