17

C	-0.572913	-0.017874	-1.431596
C	0.0	0.0	0.0
Br	0.084897	1.549998	-2.443537
H	1.100985	0.0	0.0
C	-0.100129	-1.200049	-2.148086
N	0.187269	-2.154156	-2.771307
C	-2.097118	0.011089	-1.446027
H	-2.455906	-0.875609	-0.919142
H	-2.471875	-0.001827	-2.47051
H	-2.450647	0.903708	-0.931984
N	-0.451659	-1.225674	0.643562
H	-1.17792	-1.001841	1.312963
H	0.330412	-1.658828	1.116838
N	-0.526582	1.167147	0.722012
H	-0.26093	2.000111	0.20379
H	0.012454	1.214083	1.583046
Cl	3.419294	0.0	0.0
