17

C	-0.572598	0.035821	-1.431098
C	0.0	0.0	0.0
Br	0.085505	1.639325	-2.383137
H	1.09758	0.0	0.0
C	-0.103919	-1.119737	-2.192457
N	0.178546	-2.049994	-2.852665
C	-2.097375	0.066904	-1.443554
H	-2.471667	0.092256	-2.467883
H	-2.449305	0.940352	-0.896615
H	-2.456474	-0.838424	-0.950022
N	-0.452808	-1.248202	0.596948
H	-1.178476	-1.048904	1.273783
H	0.32826	-1.701608	1.053437
N	-0.526171	1.14036	0.765163
H	-0.254154	1.99172	0.281241
H	0.008564	1.149923	1.629845
Cl	3.422834	0.0	0.0
