17

C	-0.4159	-0.030427	-1.472778
C	0.0	0.0	0.0
Br	-2.40428	-0.249834	-1.576181
H	1.097254	0.0	0.0
C	-0.145636	1.246508	-2.128977
N	0.06997	2.227816	-2.738412
C	0.246953	-1.175615	-2.217494
H	1.329222	-1.042765	-2.114826
H	-0.034854	-1.177088	-3.271889
H	-0.03863	-2.112621	-1.742503
N	-0.377404	-1.261105	0.629644
H	0.293996	-1.461622	1.361472
H	-1.302142	-1.192214	1.039243
N	-0.444581	1.235404	0.617661
H	-1.388325	1.142628	0.974596
H	0.179656	1.465688	1.379932
Cl	3.365124	0.0	0.0
