15

C	0.0	0.0	0.0
C	-0.580899	0.105721	-1.398896
F	1.399996	0.0	0.0
H	-0.039275	0.896471	-1.929268
H	-1.630455	0.400241	-1.228036
C	-0.336221	1.255891	0.719465
N	-0.448621	2.303897	1.238105
C	-0.511077	-1.207843	0.745389
H	-0.199882	-2.100418	0.201583
H	-1.608085	-1.125895	0.763112
H	-0.103241	-1.224741	1.758699
N	-0.488505	-1.169114	-2.117789
H	-1.405559	-1.599341	-2.066537
H	-0.290292	-0.988495	-3.092108
H	-3.323902	0.0	0.0
