15

C	0.0	0.0	0.0
C	-0.543505	0.040819	-1.407669
F	1.400488	0.0	0.0
H	-0.303488	-0.923528	-1.883324
H	-1.639282	0.095574	-1.262906
C	-0.347541	1.249442	0.718279
N	-0.487339	2.230916	1.34619
C	-0.523696	-1.199589	0.752743
H	-0.127075	-1.214205	1.770878
H	-1.622326	-1.104604	0.756451
H	-0.222103	-2.113616	0.23269
N	-0.044172	1.203568	-2.133629
H	-0.712956	1.470788	-2.843142
H	0.835331	0.990659	-2.584201
H	-3.298514	0.0	0.0
