15

C	0.0	0.0	0.0
C	-0.51812	-0.026252	-1.424503
F	1.396021	0.0	0.0
H	-1.616304	-0.021643	-1.309846
H	-0.207066	0.900022	-1.928352
C	-0.374963	1.275311	0.653835
N	-0.557977	2.28325	1.225713
C	-0.500175	-1.169116	0.812285
H	-0.071411	-1.134945	1.817528
H	-1.596107	-1.086531	0.841886
H	-0.198174	-2.085491	0.304728
N	-0.051231	-1.237397	-2.100462
H	-0.750611	-1.5407	-2.764199
H	0.80656	-1.050526	-2.601441
H	-3.296156	0.0	0.0
