14

C	-0.565951	0.019431	-1.401654
C	0.0	0.0	0.0
Br	0.178866	-1.436131	-2.465174
H	1.091349	0.0	0.0
H	-0.341626	-0.935587	0.459346
C	-2.022213	-0.089785	-1.432874
N	-3.1861	-0.245173	-1.369526
N	-0.191231	1.316833	-2.126382
O	0.842473	1.863613	-1.787579
O	-0.955628	1.679811	-3.018241
N	-0.520277	1.194138	0.671916
H	0.286005	1.710831	1.005211
H	-1.097017	0.95069	1.465213
F	2.609794	0.0	0.0
