14

C	-0.545223	0.000718	-1.411252
C	0.0	0.0	0.0
Br	0.241453	-1.450111	-2.450132
H	1.091337	0.0	0.0
H	-0.343942	-0.931135	0.46594
C	-1.998141	-0.130955	-1.469947
N	-3.160391	-0.306555	-1.433663
N	-0.174171	1.299436	-2.136465
O	0.859531	1.847289	-1.798802
O	-0.940253	1.662335	-3.027163
N	-0.529766	1.200769	0.651064
H	-1.111918	0.96536	1.442702
H	0.270665	1.725389	0.983866
F	2.611088	0.0	0.0
