14

C	-0.477859	-0.041549	-1.424863
C	0.0	0.0	0.0
Br	-0.126349	1.650052	-2.335834
H	1.093091	0.0	0.0
H	-0.395338	0.901487	0.475045
C	0.132934	-1.12219	-2.188892
N	0.628435	-1.988255	-2.808666
N	-2.007446	-0.225205	-1.496816
O	-2.466995	-0.898339	-2.412365
O	-2.659701	0.343761	-0.630786
N	-0.452166	-1.251815	0.60985
H	-1.17222	-1.093398	1.301023
H	0.354092	-1.670836	1.056301
F	2.597363	0.0	0.0
