14

C	-0.471236	-0.013463	-1.448203
C	0.0	0.0	0.0
Br	0.383934	-1.462668	-2.433894
H	1.090312	0.0	0.0
H	-0.344242	-0.946208	0.433899
C	-1.916762	-0.167247	-1.581089
N	-3.083571	-0.315447	-1.560618
N	-0.091828	1.279531	-2.181695
O	-0.823066	1.619006	-3.111239
O	0.910822	1.861442	-1.800152
N	-0.509802	1.128825	0.752495
H	-1.477267	1.355471	0.562374
H	0.081603	1.929287	0.58017
F	2.606347	0.0	0.0
