14

C	-0.526055	0.002133	-1.4207
C	0.0	0.0	0.0
Br	0.394635	-1.332608	-2.498365
H	1.092861	0.0	0.0
H	-0.381442	0.905251	0.486912
C	-1.961457	-0.260834	-1.499848
N	-3.125784	-0.428125	-1.481536
N	-0.3023	1.352923	-2.115261
O	-0.83466	1.503679	-3.210042
O	0.377087	2.178588	-1.523147
N	-0.436669	-1.242613	0.639082
H	-1.123744	-1.066956	1.359893
H	0.386035	-1.645592	1.070253
F	2.602755	0.0	0.0
