14

C	-0.220527	0.035457	-1.483201
C	0.0	0.0	0.0
Br	-2.155935	-0.027794	-2.040317
H	1.095868	0.0	0.0
H	-0.414346	-0.925216	0.401374
C	0.323404	1.242127	-2.090284
N	0.704424	2.265621	-2.523945
N	0.401551	-1.190724	-2.141751
O	0.169536	-2.262728	-1.602197
O	1.059216	-1.014775	-3.159761
N	-0.463787	1.178917	0.700653
H	0.242817	1.897787	0.613249
H	-1.344375	1.530184	0.341811
F	2.550707	0.0	0.0
