14

C	-0.373455	0.011295	-1.452085
C	0.0	0.0	0.0
Br	-2.340604	-0.130448	-1.776871
H	1.099706	0.0	0.0
H	-0.379116	-0.922166	0.448045
C	0.061707	1.220054	-2.137542
N	0.366311	2.215868	-2.681607
N	0.226014	-1.211562	-2.140603
O	0.014455	-2.285367	-1.596024
O	0.86112	-1.033896	-3.172659
N	-0.460346	1.229435	0.630821
H	-1.185974	1.053014	1.310507
H	0.339155	1.636144	1.099748
F	2.568245	0.0	0.0
