14

C	-0.490033	-0.011851	-1.439474
C	0.0	0.0	0.0
Br	0.361154	1.369323	-2.48867
H	1.093332	0.0	0.0
H	-0.380573	-0.918176	0.462405
C	-0.261231	-1.296503	-2.092433
N	-0.093905	-2.331659	-2.623698
N	-2.018809	0.203858	-1.437539
O	-2.643096	-0.727466	-0.931963
O	-2.498323	1.249536	-1.840762
N	-0.46622	1.216025	0.658224
H	0.352968	1.661262	1.05798
H	-1.111947	1.003973	1.406778
F	2.597896	0.0	0.0
