11
Coordinates from ORCA-job run
  C   -0.22791678016623      1.18629297529523      0.09689828309297
  C   0.20404571114772     -0.20408133673927     -0.35787534993214
  Cl  0.95567707148518      2.38303350447537     -0.45367279032430
  H   0.31542201368155     -0.24053647034479     -1.44217100806916
  H   -0.28987938959770      1.22218300917389      1.18294809038585
  H   -1.19426652526813      1.42504471632830     -0.34811684627173
  N   -0.92151375310120     -1.15625607987958     -0.01546863078935
  O   -1.13891720301432     -1.32997123278870      1.17814482664262
  O   -1.54445251070056     -1.62872300462191     -0.95935592156927
  C   1.42599069139667     -0.65307480617426      0.29887355632733
  N   2.41681067413703     -1.00491127472428      0.82079579050719
