11
Coordinates from ORCA-job run
  C   -0.14768484652833      1.21591325783038     -0.22097507547177
  C   0.21202027021291     -0.25366796765620     -0.36957127208388
  Cl  -0.29354587523706      1.66017625344682      1.48680228042743
  H   0.23289227399605     -0.50298158201091     -1.43580123369252
  H   -1.10204871723369      1.39720329734013     -0.71189940333461
  H   0.63420267850981      1.82520706537206     -0.67398861166066
  N   -0.91216615320020     -1.10180187147177      0.20254978901359
  O   -2.01051905195497     -0.88616689870974     -0.29481299813002
  O   -0.64322092354096     -1.91126313596657      1.07805248635450
  C   1.48568918359028     -0.60109515433681      0.24591066235754
  N   2.54438116138616     -0.84052326383739      0.69273337622040
