11
Coordinates from ORCA-job run
  C   -0.24791878539106      1.20639613279212     -0.08311984777974
  C   0.22732413109783     -0.22917511005957     -0.26986234695861
  Cl  1.04310635428235      2.31361744178791     -0.58755190236470
  H   0.48565343844427     -0.39937247928216     -1.31989578374968
  H   -0.48305125583773      1.39677566989273      0.96361317637226
  H   -1.12091474667708      1.38610316946262     -0.70378382152796
  N   -0.91670727943632     -1.19757939380882      0.01585821769880
  O   -0.62695245680277     -2.28634752233904      0.49004345635958
  O   -2.03293105483309     -0.81327187144833     -0.31362881089943
  C   1.36835221298833     -0.56164317386875      0.57394203573774
  N   2.30403944216525     -0.81650286312871      1.23538562711174
