11
Coordinates from ORCA-job run
  C   -0.10139975270552      1.21818493663661     -0.12937018732311
  C   0.32058285027982     -0.23497631059887     -0.26713582873749
  Cl  -1.35838063131256      1.59406952715791     -1.32098441083439
  H   0.60338348151654     -0.47409268663950     -1.29329730209948
  H   -0.49922032562701      1.39112931150415      0.86902212861078
  H   0.75694370833714      1.86353620421286     -0.31374823164709
  N   -0.85636975274738     -1.13616988406208      0.05260627254378
  O   -1.13698416051218     -1.98523773795092     -0.78348244695252
  O   -1.41754239011378     -0.93030742055579      1.12103210599652
  C   1.40376823235270     -0.54684195191376      0.66010897914776
  N   2.28721874053224     -0.75829398779060      1.40424892129524
