11
Coordinates from ORCA-job run
  C   -0.16868027681799      1.22078698625622     -0.17294717851229
  C   0.22795546876610     -0.23289821752084     -0.37351182788651
  Cl  -0.37447330644936      1.58640489444624      1.54735176878629
  H   0.28431758741612     -0.43588882137422     -1.44831205345454
  H   -1.11183804984750      1.40407671638942     -0.68423696848893
  H   0.61309924920724      1.86517392686887     -0.57474816796417
  N   -0.89262922575060     -1.12948823742139      0.12856052497287
  O   -1.98306508195340     -0.91026541368939     -0.38414712305957
  O   -0.62771742789184     -1.97686143809320      0.96865488107709
  C   1.49103600226898     -0.57908905006345      0.26400830720719
  N   2.54299506105227     -0.81295134579825      0.72932783732256
