11
Coordinates from ORCA-job run
  C   -0.09610462089782      1.20801354824856     -0.20533397191883
  C   0.31200679845535     -0.25453367143600     -0.26109932889020
  Cl  -1.38326906116831      1.51763423619565     -1.38417780086247
  H   0.56283948285465     -0.56171449844101     -1.27739591663280
  H   0.76055538555798      1.83390378291501     -0.45328802492375
  H   -0.46601127024045      1.44720185540681      0.79013379324550
  N   -0.86178139796973     -1.12270329335428      0.14963385315177
  O   -1.38880059803888     -0.84491923449245      1.21915699415846
  O   -1.17434677205734     -2.01947227972418     -0.62288144685484
  C   1.41885651278929     -0.51538023774312      0.65377894580745
  N   2.31705554071529     -0.68703020757500      1.39047290371971
