11
Coordinates from ORCA-job run
  C   -0.26587563632941      1.17433096803704      0.12546156101438
  C   0.20912499847967     -0.19036885736925     -0.36368939301256
  Cl  0.87303544852212      2.42288238323509     -0.40326367809255
  H   0.31254064254807     -0.19824498800422     -1.44935620081887
  H   -0.32184473074584      1.18288012095214      1.21255917964670
  H   -1.24254258524088      1.39006826064272     -0.30864878237364
  N   -0.88419141827138     -1.18434792779575     -0.03547066194256
  O   -1.52604280168820     -1.62145099565490     -0.98384900451339
  O   -1.06305633439781     -1.42124410114103      1.15353872608585
  C   1.45018358680887     -0.61297314006129      0.27393310836442
  N   2.45866883031480     -0.94153172284056      0.77678514564223
