11
Coordinates from ORCA-job run
  C   -0.14462705627266      1.21080028770217     -0.24961678936325
  C   0.21341657461235     -0.26238802550022     -0.36482449219468
  Cl  -0.29449629490505      1.69363421570558      1.44730551751447
  H   0.23555593156433     -0.53499193184456     -1.42525858004289
  H   -1.09738838416806      1.38260740067470     -0.74708748121847
  H   0.63961275084458      1.80848051670335     -0.71390149746446
  N   -0.91348226066221     -1.09572160350529      0.22348109003901
  O   -2.00843544887534     -0.89565256818803     -0.28777429285047
  O   -0.65032784764037     -1.87820085979433      1.12481408613909
  C   1.48484635093155     -0.59752137272862      0.26179984874032
  N   2.53532568457089     -0.83004605922476      0.73106259070130
