11
Coordinates from ORCA-job run
  C   -0.18231693591640      1.21664716750181     -0.19042734912569
  C   0.22546874285046     -0.23637012358895     -0.37435924544339
  Cl  -0.36360873179400      1.60905487901587      1.52669932214132
  H   0.26776720429895     -0.45496494625769     -1.44664335758230
  H   0.58560672437095      1.86223240542689     -0.61624754577792
  H   -1.13581106077304      1.38170924566914     -0.68876931196632
  N   -0.87924309995113     -1.13437144191463      0.15860973854332
  O   -1.97548018251737     -0.94348175733188     -0.35333969689504
  O   -0.59877954751558     -1.95341648664493      1.02142629443921
  C   1.50090782592751     -0.56136934933413      0.24949798372995
  N   2.55548906101966     -0.78566959254152      0.71355316793683
