11
Coordinates from ORCA-job run
  C   -0.01139387423382      1.22136634639775      0.13552529137574
  C   0.19107937246808     -0.18680297967558     -0.39773167496677
  Cl  -1.54008683159094      1.88023443760285     -0.47335866100858
  H   0.10106913470800     -0.22047889996812     -1.48442138591940
  H   0.80297524947428      1.85924345639161     -0.20667428529673
  H   -0.04547666904955      1.20003821593796      1.22334494304460
  N   -0.90608572078677     -1.09057215824292      0.13116913598380
  O   -1.06721514991949     -1.08842788819078      1.34474493088336
  O   -1.52846586520395     -1.73812529074180     -0.70070991205086
  C   1.47712406987350     -0.72247464714806      0.03766748604211
  N   2.52647628426066     -1.11500059236292      0.38944413191274
