11
Coordinates from ORCA-job run
  C   -0.15756868526827      1.21275989592613     -0.23049395064451
  C   0.22925837677315     -0.25163373736103     -0.36061340913288
  Cl  -0.37355099515456      1.65945487754977      1.46930088310005
  H   0.29343814102056     -0.50397252416810     -1.42441175794081
  H   -1.09566059428392      1.37860753219554     -0.75694082968832
  H   0.63165218376853      1.83234171882947     -0.65599043817125
  N   -0.90245666888396     -1.11504329552262      0.17258258727435
  O   -1.98492327902281     -0.91710551508927     -0.36529932317519
  O   -0.65381305626562     -1.91790257278346      1.06003327597671
  C   1.48435107810685     -0.57802146403271      0.30278234960872
  N   2.52927349921006     -0.80048491554372      0.78905061279314
