14
Coordinates from ORCA-job run
  C   -0.76245623487980      0.23317577325095      0.27645786547915
  C   0.77922742148557      0.36330359868946      0.29486850293557
  F   -1.14010623837973      0.56557408695412      1.58804166774427
  H   1.04974113531157      1.39712815970088      0.51661757509044
  C   -1.37392381744172      1.24541795213783     -0.60146799845480
  N   -1.90354207268883      2.05272059881715     -1.26945133956639
  N   -1.14484115463623     -1.04967071296011     -0.13126499303781
  H   -0.75425141062514     -1.78188249800388      0.44923869426029
  H   -2.14646209196370     -1.15145722911699     -0.22370516829584
  N   1.31355834969186      0.05557359360537     -1.08608102471300
  O   1.25958501149411      0.99109419432144     -1.87627768405764
  O   1.71328162889607     -1.08018616452409     -1.29932615081759
  C   1.34308963696017     -0.55085671348058      1.27760757031717
  N   1.76709983677580     -1.29093463939155      2.08474248311618
