14
Coordinates from ORCA-job run
  C   -0.76685112694320      0.11987276805378      0.10275888338407
  C   0.75465986956515      0.07202767294450      0.34070414584986
  F   -1.12937484065395      1.45170371832175      0.33927930207437
  H   0.94299493598777      0.26711162933665      1.39903385094107
  C   -1.13337843954545     -0.19298617435020     -1.28840230041269
  N   -1.49644107588550     -0.46139593800358     -2.37221996745280
  N   -1.38325664073702     -0.79982017453071      0.97052094146941
  H   -1.24498429119370     -0.55441549995569      1.94298234555233
  H   -2.36752490724035     -0.92151850054578      0.77200381955082
  N   1.41520403573750      1.20877815302539     -0.40572448395470
  O   1.87231319484677      2.11164912324880      0.28353322496602
  O   1.41191276282653      1.12677334040957     -1.62733596574115
  C   1.32641531661380     -1.19840868015229     -0.07489059572543
  N   1.79731120662160     -2.22937143780218     -0.38224320050114
