14
Coordinates from ORCA-job run
  C   -0.77850674695159      0.18689459282988      0.43228228310833
  C   0.75017973426144      0.38407864774639      0.32523328535334
  F   -1.10953429374169      0.64536365484435      1.69615863634914
  H   0.97832712776667      1.41742287956184      0.59055609657878
  C   -1.45262283115104      1.09605891679442     -0.52797433955813
  N   -2.00403274263304      1.76301553760550     -1.32331103451282
  N   -1.13125156659164     -1.17289136776322      0.32009700697915
  H   -2.11671268141564     -1.30942242460025      0.14116990974598
  H   -0.56427383337688     -1.67441748789735     -0.35096984903272
  N   1.19453192756457      0.20417606154011     -1.10822350821526
  O   1.14138081806634     -0.93745727697027     -1.55760634389302
  O   1.54611526018862      1.21574972549925     -1.70121168367903
  C   1.46677247261776     -0.54786971905755      1.18481968297891
  N   2.07962735539610     -1.27070174013310      1.87797985779740
