14
Coordinates from ORCA-job run
  C   -0.77667491984457      0.18748833834231      0.27007558836606
  C   0.75377146257396      0.41192619156781      0.29719691012910
  F   -1.18218308437174      0.50483145811708      1.57739028371499
  H   0.95844090629700      1.46101930893091      0.51796982810958
  C   -1.44428183231899      1.15425503587497     -0.61816866542194
  N   -2.02142529155261      1.91447446801160     -1.30187640102048
  N   -1.07729778160450     -1.11868971831353     -0.13123139204589
  H   -2.07004596497468     -1.28312172169435     -0.22859706560684
  H   -0.64451065550373     -1.82234113510550      0.45457631126858
  N   1.31521467622792      0.13287981059840     -1.07866243737044
  O   1.20884791133646      1.05958511363443     -1.87384253972628
  O   1.78647786111935     -0.97684515812590     -1.28373463331922
  C   1.36675988362551     -0.46214137056042      1.28711922793467
  N   1.82690682899062     -1.16132062127776      2.11078498498807
