14
Coordinates from ORCA-job run
  C   -0.76206523616189      0.30027917005014      0.20517726637495
  C   0.75228834163394      0.02240605620234      0.31604664932239
  F   -0.88490915448330      1.64851806395278      0.54820088539831
  H   1.03541634165440      0.14767515153059      1.36458508795318
  C   -1.25865755995009      0.15735817654822     -1.17451046681649
  N   -1.72066896485668      0.00862157895732     -2.24380139580934
  N   -1.48349771706607     -0.52918748945717      1.06856137433766
  H   -2.25143507356234     -1.05214464332189      0.68617632945085
  H   -0.99024219137657     -0.98619155225783      1.81633875936517
  N   1.53137338181587      1.07246008262996     -0.44229417728942
  O   2.15578480394268      1.87580472249076      0.23818735708098
  O   1.44719425245246      1.02841179430885     -1.66322744685992
  C   1.08775366434934     -1.30447130090321     -0.17570206403072
  N   1.34166511160831     -2.39053981073087     -0.54373815847756
