14
Coordinates from ORCA-job run
  C   -0.71425610347847     -0.05326014407452      0.31728314458051
  C   0.72822316858530      0.30924677846593     -0.10205136961230
  F   -0.66913264416850     -0.78130234680658      1.48003167756111
  H   0.70763268473126      1.02231542318880     -0.92963169617558
  C   -1.42017959802554      1.21560286998533      0.63103857413413
  N   -2.00156177385285      2.22092643355412      0.81222664965597
  N   -1.32083378968880     -0.85676719736483     -0.68189872161055
  H   -1.18000390436307     -0.51120157608926     -1.62195687717893
  H   -2.30582031503177     -0.99713924453267     -0.49764618744449
  N   1.38994445765328     -0.93867877393716     -0.64523822100047
  O   1.34425044749787     -1.05895085992964     -1.86477019910893
  O   1.86944551336085     -1.71595552089807      0.16581986863072
  C   1.48267794187334      0.84031060424338      1.02224429072983
  N   2.08861391490708      1.30385355419517      1.91454906683898
