14
Coordinates from ORCA-job run
  C   -0.70315859228074      0.29117402590479      0.28107054910848
  C   0.81692560449843      0.03485994467869      0.31593375204146
  F   -0.90281458179707      1.57403420503608      0.72640132315842
  H   1.14137181757641      0.22546278434318      1.34033266776113
  C   -1.24318284620893      0.21166271365914     -1.09718631749761
  N   -1.73187820076053      0.07057943781369     -2.15672153691354
  N   -1.32253353204539     -0.59584484548774      1.21641505490543
  H   -2.30625097949420     -0.36263063125508      1.30079356770064
  H   -1.24330865329189     -1.56206288968515      0.91827310554024
  N   1.52045731550197      1.04210716059510     -0.56244860880146
  O   1.53285994519049      0.80914328237713     -1.76572660569377
  O   1.98691901936965      2.01529587930421      0.01664189015634
  C   1.12581611725109     -1.31963235077749     -0.11184184622554
  N   1.32777756649076     -2.43414871650654     -0.42293699524021
