14
Coordinates from ORCA-job run
  C   -0.76359624430363      0.22683497830020      0.44111658979964
  C   0.76971958000708      0.36005598059553      0.30418199523976
  F   -1.05299748083683      0.72323745566477      1.70104644369694
  H   1.04354191306223      1.38894101842507      0.54214807510157
  C   -1.41703354078403      1.14375077557996     -0.52556567285029
  N   -1.94417467446218      1.82537478673217     -1.32488277195260
  N   -1.17237249362029     -1.11944126561640      0.36258437523337
  H   -2.16501758382784     -1.22035993138231      0.20096739780932
  H   -0.63560144206653     -1.65880095162411     -0.30382507737457
  N   1.18200105010205      0.13167025613680     -1.13203694977201
  O   1.56278043239720      1.11584917544700     -1.75261105271300
  O   1.07661802256034     -1.01614172669928     -1.55552264980540
  C   1.46272309191827     -0.58145382836222      1.17249961406368
  N   2.05340936985415     -1.31851672319716      1.86989968352357
