14
Coordinates from ORCA-job run
  C   -0.70092614848098     -0.13720728160481      0.31803282744374
  C   0.71110515909270      0.35984501376928     -0.06520865768696
  F   -0.59323818228844     -1.03032904733663      1.35387485067356
  H   0.63506725791272      1.18941298146093     -0.77215997131908
  C   -1.46159119987547      1.03144874070769      0.83087113705353
  N   -2.09035261131344      1.96859664872263      1.15959648888309
  N   -1.29038576022068     -0.81232146155067     -0.78247532968945
  H   -2.25613003253041     -1.04917273952021     -0.59386988588852
  H   -1.21433821695393     -0.30509772365962     -1.65448357150452
  N   1.41815724499423     -0.75395171246261     -0.80687238187291
  O   1.35486566931503     -0.68304733541331     -2.02922727685706
  O   1.94694908928932     -1.62539610647847     -0.13390553793225
  C   1.46728265208739      0.74974590723830      1.11429066692319
  N   2.07253507897200      1.09647411612750      2.05853664177363
