14
Coordinates from ORCA-job run
  C   -0.79659713794443      0.13010890498470      0.24678691675156
  C   0.70303210975104      0.51053886245598      0.26691780958337
  F   -1.25424209875155      0.51444382060280      1.51789020421793
  H   0.79757189073213      1.59025947539497      0.39517516864663
  C   -1.54186447496305      0.94523736673861     -0.72765423758154
  N   -2.17660476489783      1.59298620740858     -1.47329847911465
  N   -0.95712242138067     -1.22956178672354     -0.04256122537879
  H   -0.46926154018290     -1.83261324150771      0.60859697124318
  H   -1.92648835630777     -1.50087347220925     -0.13649468337819
  N   1.31345112303524      0.17140150537366     -1.07463682655083
  O   1.89699722376506     -0.89813646964989     -1.17798416055654
  O   1.12770064322657      1.01055317950795     -1.94863559186041
  C   1.38300994804054     -0.20803467898463      1.33489275831197
  N   1.90041785587764     -0.79430967339223      2.21100537566626
