14
Coordinates from ORCA-job run
  C   -0.75967636224892      0.09216232392458      0.00252835301837
  C   0.78558120969790      0.19702981104311      0.06692236152087
  F   -1.08265340354609     -1.05096802241907      0.74794895689485
  H   1.12527461951674      0.92471939941714     -0.67394074010085
  C   -1.35600305140771      1.24424983641484      0.70308982491812
  N   -1.84047132108873      2.17043236412042      1.23817101861577
  N   -1.22084797197496      0.06763280135288     -1.32311294185659
  H   -2.23053484223704      0.02033457854555     -1.36620068038417
  H   -0.79187754445328     -0.67125239289883     -1.86524613251452
  N   1.36433651100898     -1.14547553384731     -0.35280418921178
  O   1.18512835048845     -1.43882048509219     -1.53145161862555
  O   1.93992315291259     -1.81535716281937      0.48922840714808
  C   1.25448982316952      0.53745182041627      1.40138942114677
  N   1.62833083016252      0.86786066184194      2.46447795943066
