14
Coordinates from ORCA-job run
  C   -0.75054348094972     -0.05308889829665      0.13733086320171
  C   0.71719581916059      0.35066190176750     -0.15538126970372
  F   -0.67706604059701     -0.95817290595817      1.20598051222685
  H   0.75944794211487      0.87245573653156     -1.11444398529598
  C   -1.49245157165911      1.12482215606261      0.62302662017266
  N   -2.09924843660059      2.05779931558621      0.99742879585098
  N   -1.38561528855452     -0.55975463887486     -1.00736299128524
  H   -2.35096266473442     -0.79998469015887     -0.82344258393612
  H   -0.88115937265999     -1.33649778546941     -1.41471082424437
  N   1.53035866434650     -0.92376591921578     -0.32403846718252
  O   1.24781029921768     -1.58847983954562     -1.31677779768651
  O   2.37347786766417     -1.18719004284657      0.51786198839836
  C   1.28453431438105      1.15611707237869      0.91511709417818
  N   1.72222194887042      1.84507853803937      1.75941204530569
