14
Coordinates from ORCA-job run
  C   -0.77589883020364      0.10010116820566      0.00250378672582
  C   0.71047238032497      0.15497683983734      0.40601211110610
  F   -1.19810782643817      1.43503210181917     -0.00955008777723
  H   0.77357558488661      0.51479667357184      1.43583766280471
  C   -0.97642561467066     -0.43445623489988     -1.35469218284460
  N   -1.21134237226203     -0.87253496055418     -2.41840665233340
  N   -1.46082488833986     -0.70417548965478      0.93116695630721
  H   -2.41033307300754     -0.90474084448713      0.64581074124787
  H   -1.44591284857309     -0.30513243796205      1.86159567804169
  N   1.42018910657158      1.19442892597404     -0.43160447007316
  O   1.55481799026110      0.93090745665206     -1.61970667596617
  O   1.77369971122577      2.20911431505734      0.15550723289229
  C   1.35771784708357     -1.13776026313308      0.25321945919409
  N   1.88837283314142     -2.17955725042636      0.14330644067476
