14
Coordinates from ORCA-job run
  C   -0.70896886585039     -0.11255432152741      0.26455942657271
  C   0.65364223988772      0.40678694020953     -0.26130961443016
  F   -0.38659212869151     -1.05007149798387      1.25700804103293
  H   0.49006552021322      0.96637929064463     -1.18543895113495
  C   -1.42582163287905      0.98913798872981      0.93235867420497
  N   -2.01402592473230      1.86216570608158      1.45277004628635
  N   -1.50486197129852     -0.61988650373577     -0.77394694745172
  H   -2.40475797945451     -0.93530831172598     -0.43632204256035
  H   -1.03264181404294     -1.34112174711723     -1.30350474240659
  N   1.50393483717489     -0.79823618257580     -0.63403574637287
  O   1.09045590315125     -1.44502699766944     -1.59212779718417
  O   2.50093377751319     -1.02992999032841      0.03039376660572
  C   1.35055783391830      1.21042732473025      0.73118570074328
  N   1.88708020509066      1.89823830226817      1.51741018609484
