14
Coordinates from ORCA-job run
  C   -0.75361214119173      0.31176672594015      0.25819431959676
  C   0.76952306678473      0.03842761134011      0.25721787021079
  F   -0.85367457285638      1.65495763555246      0.59959897947056
  H   1.13352445372008      0.19929220770846      1.27542843261724
  C   -1.34625948404620      0.13678434682035     -1.07870984844063
  N   -1.87134395719926     -0.02826435553104     -2.11583838966046
  N   -1.43687297690153     -0.49420942680151      1.18597413179321
  H   -0.90652784164102     -0.79350615662301      1.98933309050133
  H   -2.02253748089876     -1.21693058617151      0.80197431080383
  N   1.48835260759953      1.05595259288526     -0.59777304916938
  O   1.33425740015641      0.94908485629497     -1.80846827568588
  O   2.13538228255317      1.90364742703241      0.00364729520330
  C   1.05891789141226     -1.30800624874813     -0.20954656706313
  N   1.27187075250871     -2.40799662969894     -0.56203230017754
