14
Coordinates from ORCA-job run
  C   -0.72139473131150     -0.16550681895039      0.19337886030310
  C   0.66160179966585      0.45322986023372     -0.13387817106032
  F   -0.44362852786912     -1.28402731152722      0.99305938908670
  H   0.54428994789437      1.18791418141898     -0.93411521576968
  C   -1.49190860453221      0.77602002993735      1.02626551483269
  N   -2.12409917087829      1.52341647252586      1.67475594685986
  N   -1.44819921088043     -0.45387527808082     -0.97205117965442
  H   -0.93460187317663     -1.05051149195311     -1.60757704937313
  H   -2.36018930562371     -0.83612407310767     -0.75882143987305
  N   1.54990276256171     -0.64900050576884     -0.69100892619226
  O   1.20169314616617     -1.09003656582425     -1.78248546369430
  O   2.51067170576884     -1.00699174080167     -0.02942016921788
  C   1.28757678861115      1.04075788728692      1.04068984259448
  N   1.76828527360385      1.55573535461116      1.98020806115820
