14
Coordinates from ORCA-job run
  C   0.50366744434107     -0.97818586051252     -0.29363631610789
  C   -0.45729805764593      0.17757757040434     -0.56206268197605
  Cl  1.38338108463860     -1.40842495711128     -1.74225216819136
  H   -0.98129436102040     -0.05427641616448     -1.49164248585954
  H   -0.03673784619259     -1.85274150723545      0.06593952488016
  N   1.44474694771619     -0.59058636202717      0.83257224093108
  O   0.87775304170141     -0.01178001102188      1.75827516595519
  O   2.62150561957851     -0.89990929661986      0.77797135614244
  N   0.19122732274001      1.42361240605183     -0.65766903676472
  H   -0.38638078356701      2.10981426998532     -1.12067977277184
  H   0.45143139723003      1.77596677578429      0.25420645695353
  N   -1.58962526828051      0.11831324632197      0.49177126260284
  O   -1.91372610438227      1.16887400288671      1.02623493800755
  O   -2.10965043685712     -0.97925386074182      0.66197151619860
