14
Coordinates from ORCA-job run
  C   0.90775869744256     -0.28308859413714     -0.13841420290579
  C   -0.55088592582609      0.14420547147684     -0.38096724292299
  Cl  1.88215272967370      1.01254766895235      0.51626467234761
  H   -1.10895334268153     -0.75545285759245     -0.64409361374133
  H   1.33202194759975     -0.59934795068866     -1.09112352186960
  N   0.94909235414610     -1.53398896817798      0.72820629315469
  O   0.44415772143171     -2.50455455035813      0.17318807263927
  O   1.44370232422868     -1.49017152077079      1.84067618496082
  N   -0.75879356583005      1.15776265587410     -1.34944866817935
  H   -0.68374281358940      0.80138131422965     -2.29099471959744
  H   -0.16501031254120      1.96349431297657     -1.21234401851019
  N   -1.10902653848131      0.59598397463552      0.95323357520188
  O   -1.27211450250562      1.79524082767706      1.12935428545478
  O   -1.30935877306729     -0.30301178409693      1.76646290396765
