14
Coordinates from ORCA-job run
  C   0.94811306007142     -0.36260938662423     -0.15527457902890
  C   -0.47056357701090      0.12198119620270     -0.42643219265141
  Cl  1.94790484880668      0.90282943300753      0.52497228709783
  H   -1.08482153914620     -0.74958418192058     -0.65880122930231
  H   1.37592180798975     -0.68081840299891     -1.10509569069220
  N   0.93682138707354     -1.61805037900046      0.70806554578738
  O   0.29142029000298     -2.53083741059284      0.20509562533679
  O   1.55998186398621     -1.64223486425064      1.75368004352563
  N   -0.48541911870734      1.05286288038661     -1.48749076798648
  H   -1.43087570018861      1.26170087751216     -1.77698017054366
  H   -0.03048126627975      1.91818516456680     -1.22546451880315
  N   -1.04670826526819      0.65591189422016      0.89731851598324
  O   -1.44653424723786      1.81361817583478      0.91777672082912
  O   -1.06275954409173     -0.14195499634308      1.82863041044812
