14
Coordinates from ORCA-job run
  C   0.49133873275335     -0.98425044195695     -0.32321831105768
  C   -0.47876341845908      0.18418325783036     -0.50262544860126
  Cl  1.38085382748179     -1.24742873250995     -1.80984300198408
  H   -1.05265511486931     -0.00266068188520     -1.41799183821137
  H   -0.02599883605627     -1.90005603394770     -0.04394368385478
  N   1.40851636624352     -0.63596146534432      0.83026248710023
  O   0.79169125538910     -0.46299802491889      1.87660314882917
  O   2.61025680975761     -0.54924410582670      0.65915346312110
  N   0.21666456597567      1.43285355866855     -0.45389727856168
  H   0.40935466000309      1.77811289073609     -1.38313321961229
  H   -0.32503593638749      2.11328611551877      0.06365195164840
  N   -1.53824276764924      0.11264701398502      0.58685778932386
  O   -2.09072680324554     -0.97273844540633      0.70783412015516
  O   -1.79725334093719      1.13325509505725      1.21028982170522
