14
Coordinates from ORCA-job run
  C   0.38066088675367     -0.89619538956313      0.32397940967334
  C   -0.42125122923691      0.20723864670544     -0.34040108892681
  Cl  -0.00579403043165     -2.47263395369754     -0.35569978942456
  H   -0.45319491669278      0.05472545118817     -1.42382501243153
  H   0.22065209042739     -0.91263627393113      1.39792519484818
  N   1.84629174128728     -0.63682724268284      0.10319821426985
  O   2.16897616711190     -0.16356647743896     -0.98476603318528
  O   2.59911522513337     -0.94630638243654      1.01771834413957
  N   0.04957001975002      1.49791975694037      0.10763293578705
  H   -0.64702594328370      2.19875545002536     -0.12071691501086
  H   0.89297399817779      1.73273883752591     -0.40216535548441
  N   -1.85764630395726      0.11311145435216      0.11638133441156
  O   -2.12876635194253     -0.56775322169385      1.09868002960986
  O   -2.64456135309658      0.79142934470658     -0.53794126827597
