14
Coordinates from ORCA-job run
  C   0.45873457836617     -0.90386809309240     -0.28068854108622
  C   -0.55494604597303      0.21895136065041     -0.56542061441343
  Cl  1.60165119103525     -1.04954682980349     -1.60811417319521
  H   -1.17327126963793     -0.13122980383533     -1.39410149813043
  H   -0.04601415344090     -1.85496364358060     -0.13312745542767
  N   1.21165890756375     -0.65082983056823      0.99978470357976
  O   1.72193385173098      0.45656916109484      1.14532233550444
  O   1.24742916089946     -1.58138332787200      1.79850944037588
  N   -0.11544918925549      1.53300157123817     -0.81136334235249
  H   0.10067258103661      1.68720949865992     -1.78360120834734
  H   0.64390893394121      1.81666978825817     -0.21081536536573
  N   -1.48546325163228      0.18068987939905      0.65147303978622
  O   -1.46682253242350      1.12956433677909      1.42208917794294
  O   -2.14402276221031     -0.85083406732761      0.76905350112930
