14
Coordinates from ORCA-job run
  C   0.93149624568591     -0.18614890297088     -0.14940403718561
  C   -0.57820322840718      0.01997085169146     -0.36700410420308
  Cl  1.75485459012994      1.29839262001451      0.26840411521818
  H   -1.02391338299781     -0.96951537718849     -0.47794613361970
  H   1.35697141132209     -0.58040711417575     -1.07200983745653
  N   1.16523324871349     -1.28668907210931      0.87621896713389
  O   1.68653636315381     -1.02392030367866      1.94555174074317
  O   0.77256359187297     -2.38141858579931      0.48594754912881
  N   -0.95163670744602      0.85611356216229     -1.44870144930410
  H   -0.46460486749060      1.74116569419844     -1.45104496697374
  H   -0.86497893400485      0.38559539909459     -2.33765811491775
  N   -1.14085105533362      0.57968156686874      0.92325004733437
  O   -1.20020643801910     -0.21712049546111      1.85668368779894
  O   -1.44426083717904      1.76430015735348      0.94871253630314
