14
Coordinates from ORCA-job run
  C   0.95875129330645     -0.32125850474732     -0.17669773380916
  C   -0.51375795639739      0.00360692647762     -0.39321639718290
  Cl  1.90018494356033      1.11785094217225      0.14922602296155
  H   -1.06909563399971     -0.93582876709276     -0.39396183028946
  H   1.33077864608852     -0.79000468016485     -1.08687361806139
  N   1.12789843849415     -1.38067819312154      0.90496004468657
  O   1.84047814808220     -1.15877035077785      1.86672841924281
  O   0.51983602752296     -2.41459755148796      0.65230782766819
  N   -0.69708759970692      0.70485313587757     -1.60436589520042
  H   -0.29439906025129      1.63224532382610     -1.55840951750500
  H   -1.67773336996486      0.79049681954045     -1.83284451672067
  N   -1.02063873404819      0.74720878476379      0.85623751748842
  O   -0.88256632757079      0.15252419884465      1.91983896289263
  O   -1.52364881511547      1.85235191588986      0.69507071382883
