14
Coordinates from ORCA-job run
  C   0.43690389243221     -0.92401946576809     -0.36221254352450
  C   -0.55429423058113      0.22631403733129     -0.46541235124520
  Cl  1.30146755947145     -1.14912334599000     -1.87138471180268
  H   -1.21103112296870      0.02465966330051     -1.32025509733963
  H   -0.07456398758695     -1.84489866873857     -0.09695235452895
  N   1.38468375965858     -0.61814432570252      0.78226358412263
  O   0.92503411533041     -0.89481877409833      1.88472059256074
  O   2.46181569516253     -0.09446790656810      0.53870366945610
  N   0.08658841373002      1.48005325509984     -0.43067795059468
  H   -0.44872641814752      2.22417518642166     -0.84800826122477
  H   1.03600628308014      1.47124794117254     -0.77226015327279
  N   -1.53440891367926      0.07611009021658      0.72373129977805
  O   -2.14656928892998     -0.98717501320320      0.74036814089348
  O   -1.66390575697181      1.01008732652641      1.49737613672219
