14
Coordinates from ORCA-job run
  C   0.94033087263180     -0.19605498858652      0.00320296105550
  C   -0.48766323383210      0.14388682207108     -0.45963580583829
  Cl  1.65903661066326      1.08724502203328      0.94823804918636
  H   -0.90344660898198     -0.76020491541517     -0.90662267091785
  H   1.55215582007518     -0.36985520848372     -0.88175943761646
  N   0.94875456083348     -1.53022427534060      0.73686234477502
  O   0.64178257621161     -2.46752792546710      0.00731669764065
  O   1.23688054386464     -1.57472295919860      1.91970856438042
  N   -0.61897722126330      1.24131869251807     -1.34670203660600
  H   -0.34681901832878      1.00047553164894     -2.28851560211441
  H   -0.13862031102478      2.06969415481729     -1.02481739424436
  N   -1.30954435815386      0.39880616857249      0.78698281343394
  O   -1.56165235975209     -0.59859593765722      1.45894766248958
  O   -1.61321787294309      1.55475981848776      1.04679385437589
