14
Coordinates from ORCA-job run
  C   0.38886820743209     -0.92019731921321      0.07110682835663
  C   -0.27057660512036      0.38415932472762     -0.34384179187197
  Cl  0.13078451573376     -2.19223661104411     -1.10970331591313
  H   0.07091484780874      0.67663479180685     -1.33586530487994
  H   0.03989801815797     -1.25699768981337      1.04538271738942
  N   1.86082685219473     -0.63429505197904      0.21507959488035
  O   2.33804328177809     -0.82147162052384      1.32828759988287
  O   2.44096337207998     -0.22271928306501     -0.78011971907103
  N   0.01830379830839      1.38042167381657      0.62245788834599
  H   -0.44112976559933      1.19231296454600      1.50487612894801
  H   -0.21188474989552      2.30950142657761      0.29825549647491
  N   -1.75967415000074      0.09559377276683     -0.48340744754835
  O   -2.32716185893734     -0.26122890839264      0.54774042330593
  O   -2.27717576394046      0.27052252978973     -1.58124909829970
