14
Coordinates from ORCA-job run
  C   0.54404941948518     -0.96757876755941     -0.16870807189570
  C   -0.48611079354064      0.06512541171492     -0.61595172976028
  Cl  1.67616893700590     -1.34505099422505     -1.45705929743112
  H   -1.12494250744552     -0.43498792007425     -1.34989293253845
  H   0.05760366882770     -1.88788663788437      0.14112153863734
  N   1.31351847775033     -0.50876795375883      1.04896843130936
  O   1.28496536346447      0.68951408285052      1.32336608759744
  O   1.90306967843197     -1.38243344515179      1.66838297448523
  N   0.03138626202349      1.25172203803439     -1.15560944725782
  H   -0.68633671034353      1.80471418833889     -1.59950491246505
  H   0.51328745381467      1.79987128946390     -0.45792476477830
  N   -1.43869481983168      0.26427437005729      0.59650039817941
  O   -1.75886772345015     -0.75051661300789      1.21049514069737
  O   -1.83009670619221      1.40100095120169      0.81781658522058
