14
Coordinates from ORCA-job run
  C   0.98047511067388     -0.30369020535612     -0.01405570492810
  C   -0.40234289452439      0.12243565446265     -0.49069914122319
  Cl  1.77870163713193      0.96966344103420      0.88308275165622
  H   -0.91756308500187     -0.76440749170275     -0.86359095558532
  H   1.57437376265813     -0.54208012475729     -0.89551709504983
  N   0.90676106382526     -1.60691673638110      0.77147131162152
  O   0.40302034882666     -2.51942215226352      0.12644974607901
  O   1.35901211293481     -1.66221538547901      1.90040558639787
  N   -0.30130855709950      1.11141167707875     -1.49305587926267
  H   -1.19807429255281      1.28738700242632     -1.92443336098889
  H   0.05203612202723      1.98237188439912     -1.11764146839173
  N   -1.21617653885962      0.54818814493834      0.74413371110809
  O   -1.69297711607687      1.67651192475235      0.74965853543072
  O   -1.32593767396287     -0.29823763315194      1.62479196313629
