14
Coordinates from ORCA-job run
  C   0.33459684438095     -0.95558674679537      0.16840153513967
  C   -0.38934625292704      0.28404828266935     -0.32251173274738
  Cl  -0.03155908876360     -2.35475966638927     -0.83430849492745
  H   -0.34359641363026      0.34400874963186     -1.41457932665765
  H   0.09015663334858     -1.17592617395590      1.20327845689568
  N   1.81790952213258     -0.71140469667315      0.10985571117333
  O   2.23479153015984     -0.05472791472875     -0.84232527822404
  O   2.48947681028555     -1.21178495183855      1.00283309074942
  N   0.07465667225826      1.44650714513488      0.39915638085857
  H   0.96161727966043      1.74127789157405      0.00836472751817
  H   -0.58478472362162      2.20424252057200      0.25989589368739
  N   -1.85846507605401      0.15693313879359      0.00565012324992
  O   -2.57575766292045      0.98342773793149     -0.55090286702902
  O   -2.22069607430921     -0.69625531592625      0.80719178031340
