14
Coordinates from ORCA-job run
  C   0.48714114018076     -0.96686158962428     -0.30985616494467
  C   -0.47204985229201      0.17494207866607     -0.63945200928469
  Cl  1.64749204433362     -1.24090191879184     -1.59298898415112
  H   -1.12938972329152     -0.17127191254729     -1.44051208865541
  H   -0.06738070197517     -1.88230129725115     -0.12343001002794
  N   1.21123254080926     -0.67740003533837      0.98514911462690
  O   1.03317202194876     -1.48414704274422      1.89262061821327
  O   1.89721067088594      0.33880644199086      1.03356231970198
  N   0.13360760793745      1.39122733830835     -0.97076325148661
  H   0.74019107317391      1.74121140623316     -0.24334242569654
  H   -0.54150621852017      2.09030963550991     -1.24271987870776
  N   -1.42216917601168      0.22314123381617      0.59432448084705
  O   -1.39004159799291      1.22934676137179      1.29330708311910
  O   -2.12750982918622     -0.76710109959917      0.76310119644644
