14
Coordinates from ORCA-job run
  C   0.98247494827903     -0.29701168968192      0.00890725639052
  C   -0.38115083357428      0.15415080633063     -0.49879563797881
  Cl  1.72928973301158      0.91463020441946      1.02773077128441
  H   -0.87233289988910     -0.70724142601010     -0.95452163943994
  H   1.61717332916928     -0.47016174634609     -0.85924752609902
  N   0.88475545332365     -1.65231399347459      0.69798416182253
  O   0.41682247398916     -2.51978074346049     -0.03080002440242
  O   1.28799530687629     -1.78428852339817      1.83899949065639
  N   -0.24421619540470      1.21082922479817     -1.42453255910280
  H   -1.12235910618236      1.41261907825325     -1.88204632253376
  H   0.08670383664576      2.05510832687385     -0.97507418873209
  N   -1.25253676103747      0.48878798171237      0.72541128798431
  O   -1.73978052244057      1.61091427064258      0.78702081384310
  O   -1.39283876276628     -0.41724177065894      1.53996411630758
