14
Coordinates from ORCA-job run
  C   0.51117244407393     -0.97073567057086     -0.30554310271598
  C   -0.45488929637325      0.18343763447182     -0.56212362946425
  Cl  1.40135320720859     -1.37466079259628     -1.75528405216721
  H   -0.97263613784881     -0.03737497927277     -1.49788382144906
  H   -0.02627907885908     -1.85347428264281      0.03808924784066
  N   1.44379254919214     -0.59442770926706      0.83166615592432
  O   0.86806270026768     -0.03335310963764      1.76288098500539
  O   2.62275731920437     -0.89556327627362      0.77890941640057
  N   0.18687413643586      1.43439886777671     -0.63511535450441
  H   0.44087928585430      1.77366168099200      0.28349062393485
  H   -0.39283190446542      2.12477992465930     -1.08927322172120
  N   -1.59333211577608      0.10157355944820      0.48403859750861
  O   -1.92684228110099      1.14213598233448      1.03209087375536
  O   -2.10808082781323     -1.00139782942148      0.63405728165235
