14
Coordinates from ORCA-job run
  C   0.52287273504403     -0.96101725679569     -0.31710844578485
  C   -0.46535022657357      0.17835495061956     -0.55462937683386
  Cl  1.39806127742976     -1.34474056849423     -1.78141276453206
  H   -0.99101422787699     -0.04582485445787     -1.48515285805259
  H   0.00495530456236     -1.85367304243079      0.03084740248241
  N   1.46560252299239     -0.57313747052025      0.80810036200769
  O   2.64989527266819     -0.84765935212973      0.73471703155330
  O   0.89196023378785     -0.03066556583155      1.75159125231892
  N   0.15454251623297      1.44007972264798     -0.62819294194812
  H   -0.44084767092774      2.12348209974233     -1.07233546255305
  H   0.41521614314846      1.77883913530284      0.28866455655014
  N   -1.58899241676268      0.07184960591039      0.50506296611481
  O   -1.93212818312000      1.10345283478139      1.06412108191123
  O   -2.08377328060501     -1.04034023834437      0.65472719676604
