14
Coordinates from ORCA-job run
  C   0.44600228606990     -0.92126694525002     -0.31025981880106
  C   -0.56370675854274      0.21781285019871     -0.55972916245571
  Cl  1.54785635532778     -1.06247876158859     -1.66701293781633
  H   -1.19285127369246     -0.09544233102963     -1.39387303458749
  H   -0.06263413019813     -1.87012256217923     -0.15408515650817
  N   1.20181968073358     -0.64365259615294      0.96296769421896
  O   0.89104216078321     -1.33944834752984      1.92533224442238
  O   2.01101541007961      0.27772067930248      0.95155974985337
  N   -0.08809381031260      1.53200838175970     -0.76403350449394
  H   0.18701554268179      1.67980633675940     -1.72358653389707
  H   0.66675452134101      1.77821391401553     -0.13847881605955
  N   -1.47381438756934      0.17554436172731      0.65844910405580
  O   -1.25498195278142      0.98793214601646      1.54792526387562
  O   -2.31642364392019     -0.71762712604934      0.66382490819320
