14
Coordinates from ORCA-job run
  C   0.81830377687276     -0.58743484045503     -0.19790944885825
  C   -0.52179507009728      0.11794187569961     -0.36298382081589
  Cl  2.13883911704851      0.55276917992125     -0.05599207511248
  H   -1.31042494134940     -0.62763360875675     -0.24813930590621
  H   0.97747034578068     -1.20567912146524     -1.08048190532887
  N   0.77503598290000     -1.57092327319589      0.96510156478517
  O   -0.11030153261325     -2.40966029246239      0.84160781433291
  O   1.59410809150655     -1.48747854502814      1.86186979176638
  N   -0.59998550862476      0.75201485769045     -1.62185744158612
  H   0.04056927893107      1.53337562766546     -1.68153080900161
  H   -1.53535026692364      1.08851048259916     -1.80392296743113
  N   -0.70832694724630      1.06219971935183      0.83824917802280
  O   -0.65475054794788      0.53223478468095      1.94292958617918
  O   -0.90239177823707      2.24876315375471      0.60405983895411
