14
Coordinates from ORCA-job run
  C   0.45155597079224     -0.74064653039957      0.50229731303344
  C   -0.39032983313163      0.13524623828976     -0.41049060482127
  Cl  -0.07825064482900     -2.41326140297897      0.47763853385296
  H   -0.40114097283662     -0.27691606143430     -1.41863548751664
  H   0.44692994702334     -0.37661892532236      1.52789100120139
  N   1.87194898927502     -0.63523347962256      0.01236500455988
  O   2.68057730302915     -0.16873639317420      0.80647394500106
  O   2.08539836711566     -0.99790882046381     -1.13630539449812
  N   0.12162458185786      1.45684515447629     -0.39261103539141
  H   -0.01851227243175      1.90287725406764      0.50540255596901
  H   -0.26208578125288      2.02853850660211     -1.13228942690126
  N   -1.82429874394710      0.03808488153605      0.09393896508036
  O   -2.67292232810887     -0.40551721474503     -0.67216664045135
  O   -2.01149458255541      0.45324679316894      1.23649127088194
