14
Coordinates from ORCA-job run
  C   0.85596266277171     -0.40298526546520     -0.15958648020894
  C   -0.55491504414036      0.17734631774812     -0.36029193420177
  Cl  2.01571924167426      0.81651000525576      0.31491121190878
  H   -1.23232433770886     -0.66607760340735     -0.50106064530657
  H   1.17674364485856     -0.85007961715161     -1.10027004489874
  N   0.80991596280174     -1.57007175224062      0.81698080358461
  O   0.15294826237435     -2.51309824155764      0.38805832078726
  O   1.38828166508682     -1.49525302008877      1.88647627484052
  N   -0.70704925263354      1.11572136974663     -1.41091266362755
  H   -0.01129987194373      1.84784829089665     -1.39312125432193
  H   -0.74821009358046      0.66816419877697     -2.31474817577031
  N   -0.96348438394011      0.81415904832760      0.95331083261391
  O   -1.19757865041937      0.02367067735972      1.86433166204714
  O   -0.98570980520101      2.03514559179974      1.01692209255358
