14
Coordinates from ORCA-job run
  C   0.36241694183890     -0.69266960298307      0.57683494194692
  C   -0.46687953172649      0.08768254616176     -0.44151021433441
  Cl  -0.07673102268061     -2.39011855148869      0.62403905413887
  H   -0.44998217045831     -0.42656459592773     -1.40133869244390
  H   0.27632261298117     -0.26501621847954      1.57364716421631
  N   1.79730905960203     -0.52649982557494      0.15917697678201
  O   2.11272048932757     -0.97960783389288     -0.93481817586420
  O   2.51312522455074      0.11137528523155      0.92646035540732
  N   -0.10420794532227      1.45628450422368     -0.59003962500422
  H   0.13264600067479      1.90659451903433      0.28324727318963
  H   0.61622858735335      1.59401086948553     -1.28237558053285
  N   -1.89324479428059      0.04017188253120      0.04618867327956
  O   -2.73755669538234     -0.44519541883804     -0.69631317402594
  O   -2.08216675647794      0.52855244051686      1.15780102324491
