14
Coordinates from ORCA-job run
  C   0.38939291414920     -1.05278139570220     -0.19067673478142
  C   -0.44854100384667      0.16479907130808     -0.57324063492094
  Cl  1.18394487724831     -1.73022106796632     -1.59329457823754
  H   -1.01622782372990     -0.10806906802146     -1.46528673582028
  H   -0.23306791158981     -1.81924594750424      0.26895757112504
  N   1.39275415232547     -0.65105031546934      0.87546163103978
  O   0.91151275446574      0.08029062379433      1.73979680303532
  O   2.52857012231611     -1.08929904190824      0.84056106064631
  N   0.32702803148802      1.31520108318306     -0.81261428397606
  H   0.64750924175493      1.73136820073493      0.05199985544205
  H   -0.18613919950860      2.00807099283440     -1.33756133974786
  N   -1.55611072125421      0.34322387472224      0.49355434249991
  O   -1.75369766494470      1.47420986599184      0.91328279550758
  O   -2.18692776887390     -0.66649687599708      0.78806024818812
