14
Coordinates from ORCA-job run
  C   0.45792816399926     -0.92217689567333     -0.28882497289507
  C   -0.56362628345760      0.19969800628846     -0.56628950396657
  Cl  1.56696109446111     -1.07935737578643     -1.63798183869194
  H   -1.18483181251961     -0.13812635212948     -1.39681685183622
  H   -0.04073341201450     -1.87319513838525     -0.11460174095193
  N   1.20567507693812     -0.60953854138104      0.98108647715758
  O   0.90120958593962     -1.29066693713891      1.95587163179865
  O   2.00320795064670      0.32155945579462      0.95379092360019
  N   -0.10286182833698      1.51513421998093     -0.79588743798957
  H   0.17687044331088      1.64505514322321     -1.75673157704147
  H   0.64509868122917      1.78369109575567     -0.17123153381217
  N   -1.47893401561973      0.17203966575885      0.64826137054214
  O   -2.31064301478200     -0.73104093822402      0.66925605795288
  O   -1.27432062979444      1.00592459191672      1.52109899613350
