14
Coordinates from ORCA-job run
  C   0.43854917055222     -0.74699909249190      0.44120220653375
  C   -0.51583475326753      0.12522585461423     -0.37269584033097
  Cl  0.03970443734204     -2.45079774814090      0.32041310083192
  H   -0.59831549830838     -0.26698000996615     -1.38533478375431
  H   0.45766716837670     -0.44998926174122      1.48777013467247
  N   1.81310251338608     -0.48194718306688     -0.10773422352183
  O   2.01302044520857     -0.79154124606120     -1.27634661888492
  O   2.59534030597886      0.08852779871766      0.64764891713552
  N   -0.19878592194285      1.51338839490622     -0.38846833011784
  H   0.44115105904131      1.75564580317795     -1.12967266489229
  H   0.12452699766222      1.86082110041836      0.50400206689817
  N   -1.87590785275906     -0.02729786917016      0.26026826832241
  O   -1.94549143169366      0.31420417644157      1.43852386293212
  O   -2.79072663957652     -0.44326071763756     -0.43957609582421
