14
Coordinates from ORCA-job run
  C   0.92564161351222     -0.25738306918873     -0.02068897216095
  C   -0.48963534014803      0.17075128769183     -0.44830005656282
  Cl  1.75246415375162      0.98511328802234      0.88984340994120
  H   -0.97599428760031     -0.70833294123204     -0.87341295831665
  H   1.50057135606032     -0.47978375206119     -0.91943143691079
  N   0.86657033541917     -1.58199242641815      0.72799938525424
  O   0.47730011009796     -2.50387291619677      0.01839143801746
  O   1.18495099788932     -1.63393392266925      1.90280363921526
  N   -0.57486162461238      1.26644413741857     -1.34386403793969
  H   -0.33747071190348      0.99997643559449     -2.28835171819401
  H   -0.03603522684041      2.06573671107286     -1.04122309425976
  N   -1.25783183337446      0.49082279426944      0.81714562616786
  O   -1.55717300195559     -0.48137414155396      1.50633780619453
  O   -1.47749654029594      1.66682851525059      1.07175096955413
