14
Coordinates from ORCA-job run
  C   0.48278023235977     -0.99395545665215     -0.32098879504403
  C   -0.47226581292238      0.18680953697414     -0.50919554705844
  Cl  1.36259842641405     -1.28430581134691     -1.80708102600373
  H   -1.04507579491982      0.00296451610611     -1.42440950395790
  H   -0.04414876235600     -1.90064093300178     -0.02946324506744
  N   1.40957055886142     -0.64602525102840      0.82459798313349
  O   2.61450896653212     -0.61337549991372      0.65732001033714
  O   0.79737752732213     -0.41920842398379      1.86395170133181
  N   0.23459853779174      1.42784448772086     -0.48109676530736
  H   -0.22783812892167      2.07745940514249      0.14269039087842
  H   0.30831330937888      1.82992465679316     -1.40385561212645
  N   -1.53690042581500      0.12951909902973      0.58015504761166
  O   -1.77717657596458      1.15057388319323      1.21000975909434
  O   -2.10634205776066     -0.94758420903297      0.69736560217849
