14
Coordinates from ORCA-job run
  C   0.83672447356515     -0.57756068055277     -0.14248176423821
  C   -0.46340131811123      0.16682035271804     -0.41870829398676
  Cl  2.12632570695476      0.51508017132639      0.31198604369930
  H   -1.26262391114587     -0.57174885076701     -0.50081123929800
  H   1.11931948589834     -1.09933309526129     -1.05593528079546
  N   0.62295146508150     -1.68065507189161      0.88649155613755
  O   -0.23759783949255     -2.48430424864346      0.54570206289927
  O   1.30439176176954     -1.71126200789455      1.89489047660464
  N   -0.35719465071994      0.93575969328813     -1.59780745326658
  H   0.28607227020468      1.70788375494338     -1.47784296303417
  H   -1.25583805808374      1.30576172536505     -1.87489265722213
  N   -0.81840244824966      0.97778763047304      0.84052298830232
  O   -0.92773053139249      0.32931423939815      1.87571335053112
  O   -0.97199640627850      2.18645638749850      0.71417317366710
