14
Coordinates from ORCA-job run
  C   0.46279658811428     -0.91385056473762     -0.30716809492861
  C   -0.56921263968089      0.20486421498508     -0.55917136944311
  Cl  1.56321241693270     -1.04001881581392     -1.66660362809541
  H   -1.19333541376345     -0.12423427315869     -1.39098014281171
  H   -0.02761953624574     -1.87137709125233     -0.14575375177745
  N   1.21661637592356     -0.61623490762505      0.96250315380606
  O   0.92176701428188     -1.31349645954578      1.92882223725849
  O   2.00861936219518      0.31985856399279      0.94463888865073
  N   -0.11941068179278      1.52691861541307     -0.76987972764131
  H   0.15053552586115      1.67659571581693     -1.73056680650230
  H   0.63131333490820      1.79077850327334     -0.14660497999930
  N   -1.47578277186469      0.14990145316270      0.66089060492946
  O   -2.29938471184985     -0.76079446798058      0.67295552958031
  O   -1.27211486301958      0.97108951347005      1.54591808697414
