17

C	0.005729	0.009659	0.011001
C	-0.501543	0.002554	-1.440806
F	1.406731	0.265829	-0.008926
H	-1.59652	0.117575	-1.364078
N	-0.689948	0.968872	0.738885
H	-0.570779	0.816421	1.735235
H	-1.77209	0.86268	0.486634
C	-0.067179	-1.375144	0.569886
N	-0.154241	-2.435955	1.069975
C	-0.074823	-1.207459	-2.243766
H	-0.600336	-2.088165	-1.870666
H	1.000924	-1.368057	-2.171542
H	-0.333491	-1.072096	-3.295732
N	0.010111	1.250799	-2.093533
O	-0.640884	2.281107	-1.948086
O	1.052472	1.165234	-2.74845
H	-3.029171	0.508098	0.031285
