13
Coordinates from ORCA-job run
  C   -0.88546266882285      0.23946376992316      0.51677835742560
  C   0.58345879092007      0.58146223123846      0.40128302152319
  Br  -1.94403388346061      1.73795673664126      1.12068374604977
  H   0.68459995709238      1.44511888966119     -0.25941678398805
  H   -1.08416713487258     -0.59122779615384      1.19098039026667
  H   0.92933115242323      0.88063814345423      1.39425159389697
  N   -1.39408577062187     -0.20871642811843     -0.82779184506671
  O   -1.83832995254067     -1.35328016803840     -0.88366172103964
  O   -1.27540833507053      0.57280500470656     -1.76312944275966
  C   1.39447581347445     -0.60260738911100     -0.12143243225131
  H   2.45857014258167     -0.35998045396978     -0.10875717834769
  H   1.24520316750428     -1.49401392044375      0.49277139939246
  H   1.12484872139302     -0.84761861978966     -1.15055910510161
