13
Coordinates from ORCA-job run
  C   -0.83346026906106      0.71990054958499      0.10833426813686
  C   0.48195455546929      0.28230243836100      0.73559961945359
  Br  -0.61422741181099      2.05737630500367     -1.25924917523336
  H   0.97674091497766      1.18120098253389      1.11229907784974
  H   -1.52010665267026      1.12674094857201      0.84830664688222
  H   0.22336187042987     -0.33669664078262      1.60055309280422
  N   -1.52448923432902     -0.51429764042009     -0.43127755596825
  O   -1.47585912401699     -0.77538860272985     -1.62400992383185
  O   -2.02926408905842     -1.20798878008634      0.44907857338469
  C   1.39853886511883     -0.48482685810122     -0.20967639293474
  H   2.34259766042837     -0.70580856193618      0.29172532542477
  H   1.61857589350373      0.09157288963955     -1.10910365986160
  H   0.95563702101900     -1.43508702963881     -0.51357989610629
