13
Coordinates from ORCA-job run
  C   -0.78130965941909      0.65173722983518      0.27032380064456
  C   0.66544494133699      0.60692409134132     -0.16897778996114
  Br  -1.66199059920356      2.28547790689089     -0.26432642102402
  H   0.70118814515194      0.75436641588307     -1.25047013277277
  H   -0.90979491842485      0.55060567023065      1.34612350851422
  H   1.17603965830372      1.45297092125956      0.29861220750271
  N   -1.51483559250515     -0.51865623006518     -0.32983558783513
  O   -1.50825554983555     -0.62076842982368     -1.55012245012003
  O   -2.01471593881168     -1.30950537836854      0.46703900458730
  C   1.32920253292824     -0.71143028654318      0.22363189443632
  H   1.23782233406697     -0.90366883357375      1.29546196406358
  H   0.89019479438662     -1.55449840686009     -0.31336321569174
  H   2.39200985202540     -0.68155467020626     -0.02309678234386
