20

C	-0.003591	0.048762	-1.522684
C	0.0	0.0	0.0
Br	-1.860393	0.448917	-2.296862
H	1.102909	0.0	0.0
N	0.882082	1.122224	-1.905561
H	1.112621	1.031133	-2.889013
H	1.739759	0.941489	-1.346827
C	0.420197	-1.28227	-2.12781
H	1.39944	-1.484242	-1.679941
H	0.525201	-1.185796	-3.211782
H	-0.277058	-2.095071	-1.918839
C	-0.602693	-1.24563	0.617048
H	-0.051249	-2.148946	0.346115
H	-0.567805	-1.162761	1.708913
H	-1.65417	-1.371472	0.324158
C	-0.531487	1.269571	0.642792
H	-0.18154	2.146758	0.098545
H	-0.172059	1.33645	1.675149
H	-1.628193	1.282186	0.655942
F	2.743357	0.0	0.0
