12
Coordinates from ORCA-job run
  C   -0.59013365894359     -0.01692794297479      0.51384694988043
  C   0.56407504344917      0.18018742574244     -0.44866952817841
  F   -0.51794979428071      0.94772006454803      1.50462853780097
  H   0.37002874616018     -0.39593265623772     -1.36421985289687
  H   -0.48364245798772     -0.97710852621344      1.03864112530465
  H   0.54465392182529      1.23721204710564     -0.72395035627224
  N   -1.84764567066864      0.17788774805611     -0.16200591619303
  H   -2.60925324656153      0.06193577460024      0.49491207103269
  H   -1.96074019771677     -0.50429001177251     -0.90068677097446
  N   1.82973898310555     -0.16504208295535      0.19067062936556
  H   2.53947238476351      0.52004180407354     -0.02016273468538
  H   2.16339594685527     -1.06468364397219     -0.12400415418390
