12
Coordinates from ORCA-job run
  C   -0.61718365448565     -0.28325239918564      0.51659806956167
  C   0.52734777856126      0.31358063499014     -0.28939877691286
  F   -0.52908191814703      0.22749727855078      1.80250369417975
  H   0.35272796712185      0.07170981414166     -1.34889049204609
  H   -0.50558513339502     -1.36942132687894      0.60010707295271
  H   0.44547294881189      1.40049012801414     -0.18372082103838
  N   -1.91869412992812      0.00627373611632     -0.00368436899129
  H   -1.95504862676511      0.90703614699502     -0.46135365953821
  H   -2.25083532603929     -0.71059745779829     -0.63003325606586
  N   1.82550757780500     -0.11216197869963      0.21760614811110
  H   2.08353970388887     -1.00470092866117     -0.18270088273906
  H   2.54183281257134      0.55354635241559     -0.03703272747347
