12
Coordinates from ORCA-job run
  C   -0.70471936854402     -0.59879012046394      0.08891554651008
  C   0.64895556072757     -0.35968870497378     -0.54698864577568
  F   -0.44332111634560     -0.93557881242867      1.45112193517314
  H   0.49446336500981     -0.14845448191837     -1.60711972962772
  H   -1.20062921598175     -1.47989809972172     -0.32455007315583
  H   1.24094368294952     -1.27996679720204     -0.45787850896381
  N   -1.52732257684970      0.53753307233479     -0.03765498847665
  H   -2.38292370748275      0.44223994132048      0.49106939284620
  H   -1.01156460713803      1.35707609413723      0.25739707966136
  N   1.25852577841555      0.80722273014459      0.08842815793900
  H   1.55187025787956      0.55531850166480      1.02361104713179
  H   2.07672194735983      1.10298667710662     -0.42635121326187
