12
Coordinates from ORCA-job run
  C   -0.60923308228153     -0.44066265943943      0.26548276515183
  C   0.53900468518158      0.34874998340657     -0.32518973300616
  F   -0.22717517954194     -0.74275295281741      1.58854274569168
  H   0.30452633381828      0.55933826715785     -1.37229522810519
  H   -0.70280734774565     -1.40715995040876     -0.23444892764497
  H   0.58164394906276      1.31086904111993      0.21322562721164
  N   -1.84241425149085      0.25562155670055      0.26816293779762
  H   -2.56097823785495     -0.16719847611173     -0.29318654345109
  H   -1.76415060919988      1.24514970312178      0.09523049549498
  N   1.76555553555468     -0.43380356958229     -0.26109638827396
  H   1.97894436658467     -0.61770481499062      0.71069811037957
  H   2.53708383791283      0.08955387184356     -0.65412586124594
