12
Coordinates from ORCA-job run
  C   -0.52080185249055     -0.07165858466213      0.42349496201386
  C   0.59217070381215     -0.14516527752579     -0.60655753874077
  F   -0.40929479277318      1.19732095202805      1.05381188785316
  H   0.55660707484430     -1.12646277149143     -1.08462823354743
  H   -0.36808983991154     -0.79848072250840      1.22618964160580
  H   0.38225113216956      0.60236602882829     -1.38003492081426
  N   -1.79251391455715     -0.27137752288742     -0.15993985277765
  H   -1.96866269387106      0.41411031222535     -0.88312020047233
  H   -2.53056265793267     -0.22024970927705      0.52906415018992
  N   1.93227561522757      0.09544644706670     -0.09412626654323
  H   1.93261783967168      0.96465502647177      0.42453524567583
  H   2.19400338581089     -0.64050417826794      0.55031112555710
