12
Coordinates from ORCA-job run
  C   -0.69994706047490     -0.35658734755917     -0.16278189543783
  C   0.80975825658538     -0.52408592421091     -0.11397927163674
  F   -1.27290471577639     -1.61908647631534      0.10405424014024
  H   1.08986413449852     -1.35223128807320     -0.76834921907439
  H   -1.03461733006835     -0.08146136847123     -1.16715539962543
  H   1.08198880098276     -0.82066788200350      0.90544022786605
  N   -1.13200521695551      0.63449233081036      0.75568981092203
  H   -2.12767580756188      0.79696814444357      0.68571350400250
  H   -0.91303469374444      0.35261134163507      1.70374155980096
  N   1.56529818900783      0.66274100247559     -0.48478039730713
  H   1.44626607488706      0.85043555871997     -1.47278580049994
  H   1.18700936861994      1.45687190854881      0.01719264084969
