12
Coordinates from ORCA-job run
  C   -0.68174647809084     -0.62210666395271      0.21825296964249
  C   0.60826865355040     -0.34173161149081     -0.53241405777932
  F   -0.28172554272562     -1.13424918220141      1.47524086438612
  H   1.22413022363292     -1.25088463114257     -0.52248290528224
  H   -1.24412193755963     -1.43160152584697     -0.25487398849683
  H   0.35718766927921     -0.10646307184247     -1.57054001531196
  N   -1.48441426174894      0.52367901894078      0.39603369259836
  H   -2.38257909513260      0.48578481049180     -0.05239265211046
  H   -0.97620055419207      1.37702652678893      0.21839167257962
  N   1.24911767919380      0.82660657763391      0.06600493337724
  H   1.52874442442969      0.59533183436680      1.01140739888077
  H   2.08133921936368      1.07760791825472     -0.45062791248379
