13

C	-0.413243	0.080119	-1.446323
C	0.0	0.0	0.0
F	-1.791463	0.330518	-1.537269
H	1.091343	0.0	0.0
H	-0.272474	-0.88918	-1.934184
H	-0.384586	0.848902	0.560628
N	0.293939	1.175385	-2.041806
H	0.28824	1.092049	-3.049971
H	1.259945	1.167269	-1.726585
N	-0.499628	-1.224735	0.662651
O	-0.440884	-2.284801	0.040477
O	-0.926039	-1.111942	1.811203
Br	3.475059	0.0	0.0
