13

C	-0.409927	0.062935	-1.464211
C	0.0	0.0	0.0
F	-1.794799	0.235394	-1.528602
H	1.089564	0.0	0.0
H	-0.18531	-0.919572	-1.891519
H	-0.395954	-0.882319	0.498724
N	0.219268	1.05805	-2.276447
H	1.198135	0.801602	-2.37141
H	0.200509	1.93613	-1.77158
N	-0.488483	1.160194	0.779602
O	-0.317768	2.287948	0.313705
O	-1.031641	0.934614	1.860172
Br	3.488755	0.0	0.0
