13

C	-0.558519	-0.043056	-1.416583
C	0.0	0.0	0.0
F	-0.315848	-1.3358	-1.862201
H	1.087946	0.0	0.0
H	-0.008585	0.639092	-2.063889
H	-0.392991	-0.829376	0.586876
N	-1.961075	0.22696	-1.537129
H	-2.119986	1.216396	-1.664909
H	-2.468715	-0.085475	-0.718373
N	-0.458355	1.246967	0.649218
O	-0.26779	2.298895	0.03646
O	-1.020577	1.168187	1.742939
Br	3.518796	0.0	0.0
