15

C	-0.581062	-0.065732	-1.389478
C	0.0	0.0	0.0
F	-1.950456	-0.073634	-1.373234
H	1.096629	0.0	0.0
H	-0.230803	-0.932983	-1.953208
N	-0.150313	1.129266	-2.197494
O	0.976118	1.056225	-2.677075
O	-0.935159	2.062977	-2.318957
N	-0.450372	-1.229673	0.707392
H	-0.045294	-1.135051	1.636502
H	0.080279	-1.996617	0.295351
N	-0.450106	1.200699	0.652979
H	-1.355248	1.052486	1.083223
H	0.233807	1.466638	1.350882
H	2.878449	0.0	0.0
