15

C	-0.654317	-0.000426	-1.359513
C	0.0	0.0	0.0
F	0.003649	0.784592	-2.259614
H	1.096947	0.0	0.0
H	-1.693943	0.325284	-1.298996
N	-0.728123	-1.37208	-1.988453
O	0.269951	-2.084478	-1.942956
O	-1.785806	-1.664	-2.551683
N	-0.531221	-1.158372	0.751588
H	-0.002457	-1.969408	0.436891
H	-0.2155	-1.011624	1.706734
N	-0.397476	1.253979	0.620091
H	0.381581	1.583215	1.1791
H	-1.208166	1.107073	1.211621
H	2.905927	0.0	0.0
