15

C	-0.527877	-0.060411	-1.407298
C	0.0	0.0	0.0
F	-1.90459	0.061005	-1.437651
H	1.099106	0.0	0.0
H	-0.239362	-0.981091	-1.906854
N	-0.000119	1.058612	-2.2645
O	-0.507263	2.171329	-2.126206
O	0.910405	0.778789	-3.038503
N	-0.426404	-1.247975	0.639071
H	-1.199578	-1.019693	1.252011
H	0.349449	-1.538035	1.227178
N	-0.428336	1.198033	0.714793
H	0.390136	1.786027	0.836741
H	-1.116335	1.722208	0.189461
H	2.825938	0.0	0.0
