15

C	-0.483792	-0.08499	-1.427657
C	0.0	0.0	0.0
F	-1.780106	-0.557932	-1.520374
H	1.092925	0.0	0.0
H	0.159322	-0.724367	-2.033359
N	-0.470579	1.267901	-2.082339
O	0.632117	1.649032	-2.45197
O	-1.523446	1.882665	-2.187946
N	-0.34838	-1.231637	0.715595
H	0.498402	-1.781111	0.807781
H	-1.050586	-1.772575	0.234021
N	-0.46788	1.217553	0.630262
H	0.218582	1.462734	1.333221
H	-1.338953	1.031259	1.107316
H	2.823739	0.0	0.0
