17
Coordinates from ORCA-job run
  C   0.95543311821690      0.22163675412952     -0.13291634308265
  C   -0.46816329705079     -0.20768997247601      0.23271503816863
  F   0.94521735681986      0.81398277520889     -1.38900287648534
  H   -0.40246384360825     -0.68454456329001      1.22044893814364
  C   1.84133841073655     -0.96883115932605     -0.25763950825154
  N   2.55798142943008     -1.89958892597954     -0.28115371966083
  N   1.46302012555546      1.19728092920525      0.78396222712449
  H   2.44476941230759      1.37836883775194      0.61146644628568
  H   1.34721984626553      0.88675101215079      1.74029967472719
  C   -0.99934054140615     -1.23080580759151     -0.76863716666185
  H   -2.01952376823052     -1.51490339524001     -0.50173774178234
  H   -1.01813294021813     -0.80348695730774     -1.77328414726354
  H   -0.39326216103294     -2.13906649712494     -0.79121811169414
  C   -1.38540495691573      1.01092968102186      0.31713317610640
  H   -1.44085558837625      1.50626145102692     -0.65406417718984
  H   -2.39235275706846      0.69257487669630      0.59711815076063
  H   -1.03447984542476      1.74013096114434      1.04651014075541
