17
Coordinates from ORCA-job run
  C   0.93200018985630      0.25930969654029     -0.22204936272002
  C   -0.43198830705141     -0.23891452551182      0.26537427753554
  F   0.76557421991835      0.94788940606836     -1.41650167402711
  H   -0.24406597035251     -0.79184817572073      1.19608612522697
  C   1.81966555685697     -0.89213189122543     -0.54157210729988
  N   2.52185185404969     -1.81633209519491     -0.72376068927796
  N   1.52071547895193      1.17422293088129      0.70885649278002
  H   2.47509127135027      1.39223874782634      0.44832487551538
  H   1.51254517195640      0.79052279731901      1.64536054976253
  C   -1.05633457023262     -1.19192468263617     -0.75120922045654
  H   -1.20049171911681     -0.68494172059266     -1.70744193377052
  H   -0.44006596481752     -2.07758900525472     -0.91942351513944
  H   -2.03283571689390     -1.52555524985891     -0.39368489209986
  C   -1.35591549297655      0.94300877155887      0.55430097989695
  H   -1.52900829039819      1.51521408322827     -0.35912971761190
  H   -2.31906893906770      0.57489094231905      0.91556688433660
  H   -0.93866877203272      1.61893997025389      1.29990292734924
