17
Coordinates from ORCA-job run
  C   0.98987797863599      0.06992481640516     -0.40119081069650
  C   -0.53629593639192      0.08622771022003     -0.43246541171741
  F   1.45636160861015     -0.52026601670065     -1.56624969304065
  H   -0.77235493876303      0.67126494425523     -1.32878406167159
  C   1.47602490333544     -0.78837261779110      0.71596294900743
  N   1.84691024363723     -1.40791972568347      1.64299873797292
  N   1.53866424916864      1.39547071101413     -0.37936229659468
  H   2.55149273740567      1.34646979811273     -0.37274484838164
  H   1.23806358243574      1.89760910872475      0.44577539148248
  C   -1.12051508218483      0.77812137785563      0.79720824015842
  H   -0.77982524128060      0.29906103168439      1.72013220091578
  H   -0.87006990165488      1.84056420570644      0.83690501647442
  H   -2.21016787577049      0.70901810726766      0.77554647646511
  C   -1.09000612351403     -1.32796645100634     -0.58549186970946
  H   -0.63407854287916     -1.84404499041961     -1.43106122613852
  H   -2.16843180937406     -1.28527570128212     -0.75463010732434
  H   -0.91564985141585     -1.91988630836285      0.31745131279823
