16
Coordinates from ORCA-job run
  C   1.09881680797170     -0.07930213251432     -0.34608221572387
  C   -0.31349030857224      0.40006990486701     -0.07538055649314
  F   1.10889085641176     -1.34804851531984     -0.83262134593205
  H   -0.21635834692429      1.42530422722884      0.29682723102181
  H   1.64854558880916      0.57036725650582     -1.03069861683381
  N   1.88460164198120     -0.06019785105692      0.94377312252344
  O   2.13174011456368      1.06505537421384      1.36762896946017
  O   2.17082979206356     -1.12538147062675      1.47171022247005
  C   -0.99331871164496     -0.46198890132147      0.98550846239651
  H   -2.02587948189487     -0.13431517225550      1.12238268147224
  H   -0.49292211878844     -0.39224115319096      1.95363480054686
  H   -1.00530352750800     -1.51114472348196      0.68316325727452
  C   -1.09543625898036      0.41047965591848     -1.38721563160656
  H   -1.20035451963682     -0.60143568489137     -1.78325983268584
  H   -2.09578462282281      0.81689299420373     -1.22452417168093
  H   -0.60257690502829      1.02588619172137     -2.14484637620938
