16
Coordinates from ORCA-job run
  C   1.11830063495597     -0.47272740536979     -0.35929872006023
  C   -0.39177885325462     -0.34301011499790     -0.45405959529137
  F   1.47307716071325     -1.76078053098363     -0.10105625493767
  H   -0.66134617827258     -1.07890806527207     -1.22241509311917
  H   1.63627310485492     -0.13170496284054     -1.25712630610194
  N   1.65100126306850      0.38460841994549      0.76176158091633
  O   1.84164210022040      1.56363456165869      0.47100207649564
  O   1.80829109156843     -0.13371274828035      1.85956161385663
  C   -0.82106911487829      1.04077156237652     -0.93358307774626
  H   -1.89734583976612      1.04494550078981     -1.11900237364080
  H   -0.31731877718714      1.32405202587986     -1.86109217250824
  H   -0.60295376512938      1.80628904202396     -0.18733823444096
  C   -1.07288035558284     -0.73822102212976      0.85376912826354
  H   -0.89495689037470      0.00546675440659      1.63411878211985
  H   -2.15168016911338     -0.80799342939350      0.69851356976017
  H   -0.71525541182243     -1.70270958781338      1.21624507643449
