16
Coordinates from ORCA-job run
  C   1.11488321587154     -0.45698309769134     -0.38840735581890
  C   -0.39782621474441     -0.34048142915673     -0.45067031323024
  F   1.48669993996152     -1.74526021710812     -0.15623735833136
  H   -0.67596591570576     -1.06925635074536     -1.22276669436805
  H   1.61206283496830     -0.09835014520801     -1.29112266978618
  N   1.66238509640883      0.38872961861187      0.73500380206112
  O   1.83315082304889      1.57440707483087      0.45936795928905
  O   1.84976097729127     -0.14513031706040      1.82059046414687
  C   -0.85083131238951      1.04431805922353     -0.90468280608180
  H   -0.61986419779195      1.80462905598643     -0.15705359545790
  H   -0.37404465062206      1.34067319256140     -1.84233056740808
  H   -1.93160502136624      1.04075779700908     -1.06192467747482
  C   -1.04762241523608     -0.75779406649613      0.86619183027931
  H   -0.86406593763767     -0.01881355650208      1.64976454405976
  H   -0.66986375836257     -1.72056200492013      1.21244172129486
  H   -2.12825346369408     -0.84088361333489      0.73183571682635
