16
Coordinates from ORCA-job run
  C   1.08822477074232     -0.15348628534717     -0.35746383285370
  C   -0.29301056687175      0.41316343393115     -0.09265485709195
  F   1.02454281835850     -1.44163942944327     -0.78440050944903
  H   -0.13606163225652      1.44957481303367      0.22380877772817
  H   1.66204133261738      0.43410379457215     -1.07746159451479
  N   1.89039320159627     -0.11723518560745      0.92162070392130
  O   2.20027651977469      1.01178785163654      1.29097065066531
  O   2.12756273321081     -1.17055178358883      1.49557769595425
  C   -0.99857333770269     -0.35617951157056      1.02149881341747
  H   -2.01479304497971      0.02284171438623      1.14758290933399
  H   -0.48531404795182     -0.25232732128483      1.97975662916627
  H   -1.05861141271944     -1.41948437065975      0.78031766095131
  C   -1.09509511672951      0.39649283017157     -1.39217070309265
  H   -1.26753287230885     -0.62814068201540     -1.72716090639219
  H   -0.57900219760008      0.93588236026678     -2.19115671900272
  H   -2.06604714717960      0.87219777151915     -1.23966471874104
