16

C	-0.399833	0.082236	-1.466814
C	0.0	0.0	0.0
F	0.221108	-0.890478	-2.167055
H	1.101976	0.0	0.0
N	-1.913091	-0.193976	-1.58401
O	-2.24873	-1.306286	-1.963624
O	-2.644753	0.717562	-1.217911
C	-0.162896	1.387112	-2.093279
N	-0.008146	2.419132	-2.632896
C	-0.453721	-1.31511	0.637739
H	-1.53517	-1.35403	0.789784
H	0.045919	-1.412842	1.602146
H	-0.141451	-2.150363	0.009883
C	-0.470804	1.159004	0.747299
N	-0.831738	2.07285	1.392141
Br	3.362535	0.0	0.0
