16

C	-0.495608	-0.152848	-1.427513
C	0.0	0.0	0.0
F	-0.118447	0.908017	-2.188906
H	1.108055	0.0	0.0
N	0.091647	-1.387767	-2.142748
O	-0.268218	-1.497938	-3.311554
O	0.850822	-2.120444	-1.527219
C	-1.958517	-0.304348	-1.511285
N	-3.125985	-0.431748	-1.541321
C	-0.489535	-1.10192	0.94529
H	-0.1052	-2.068078	0.624642
H	-0.089302	-0.894892	1.937545
H	-1.580454	-1.132875	1.008108
C	-0.483585	1.295433	0.477674
N	-0.926838	2.295964	0.904158
Br	3.403138	0.0	0.0
