16

C	-0.546914	0.204807	-1.401352
C	0.0	0.0	0.0
F	-1.914432	0.228786	-1.387167
H	1.108067	0.0	0.0
N	-0.088858	1.558692	-1.957826
O	1.02072	1.571136	-2.469772
O	-0.862634	2.493349	-1.806089
C	-0.122739	-0.833391	-2.346694
N	0.094496	-1.702305	-3.106535
C	-0.434035	-1.361046	0.555861
H	-0.025336	-2.157744	-0.068528
H	-0.008766	-1.474506	1.553581
H	-1.520357	-1.453384	0.612467
C	-0.474465	1.081347	0.860392
N	-0.866333	1.917009	1.586846
Br	3.377513	0.0	0.0
