17
Coordinates from ORCA-job run
  C   -0.59525431013572      0.51540803158695      0.53670968975723
  C   0.78468492860398     -0.11116987493004      0.31985128199393
  Br  -0.62520814793031      1.66656520940244      2.09305060509343
  H   1.04468872749517     -0.62747911890408      1.24687718713693
  N   -1.55927069121372     -0.66211149962153      0.88543673864191
  O   -2.55329501137502     -0.78695036981592      0.17575904051918
  O   -1.23139574660666     -1.39946569075894      1.80460478522619
  N   -1.02612155778880      1.24959765668299     -0.59349289737132
  H   -1.27051565661243      0.61626687541390     -1.34616556822414
  H   -1.84074741629934      1.81017431933960     -0.37825669035614
  N   1.73281276273305      0.96972026923691      0.12236142000265
  H   2.66766833698173      0.59407114976576      0.02509427889713
  H   1.49454724048204      1.48058074091554     -0.71940106825252
  C   0.73444037793614     -1.13356656571672     -0.82295714339007
  H   0.00230867458008     -1.92885954474428     -0.66001717551132
  H   1.71488203146162     -1.60772424368495     -0.90998709989854
  H   0.52677545768819     -0.64405734416763     -1.77846738426452
