17
Coordinates from ORCA-job run
  C   -0.63986968411531      0.29647716666205      0.56377433010006
  C   0.75690235944687      0.04470488447170     -0.02455563273211
  Br  -0.78450129068718     -0.44099634439130      2.42129670261725
  H   1.40864937413354      0.71318870621228      0.56621047098168
  N   -1.70798870143054     -0.45471961344290     -0.22880925140847
  O   -1.52454436744398     -1.64867938415256     -0.40215794273516
  O   -2.67633942108747      0.19226689591096     -0.61086882456788
  N   -0.93086632974033      1.67236438111725      0.49734335666754
  H   -0.37375479354638      2.18503657378108      1.16836822790836
  H   -1.91596364239441      1.85918109699911      0.63416048419162
  N   0.63415580487839      0.43059922824228     -1.42349371988536
  H   0.46634602360889      1.42452823346771     -1.50568276572675
  H   1.47323318019026      0.18429163408307     -1.93216977759125
  C   1.33409652079709     -1.35869977357228      0.05985844917413
  H   2.38156764060791     -1.31538439700800     -0.25331319004617
  H   0.79673695792917     -2.03388351498733     -0.60227031478130
  H   1.30314036885351     -1.75227577339313      1.07430939783381
