17
Coordinates from ORCA-job run
  C   -0.70364462704929      0.39062252848989      0.38727871648471
  C   0.74367481707562     -0.08864633786854      0.24366908117939
  Br  -0.73818895683203      1.72341488618821      1.95002345672581
  H   1.07759668458710     -0.42169409500801      1.23074940555489
  N   -1.62159669327477     -0.69975932871500      0.91479725989629
  O   -2.79869595078174     -0.63213148802207      0.58235535229613
  O   -1.12115689634167     -1.54311202851133      1.64941239546892
  N   -1.20244940790690      0.88285912828209     -0.79911126941624
  H   -0.53321516215927      1.52074775789807     -1.21343003409430
  H   -2.14345273221531      1.24414264876940     -0.74502710091447
  N   1.49685957537916      1.05140303387213     -0.28047343280534
  H   1.71943108093113      1.69577347807422      0.46916524383503
  H   2.36724115418068      0.72629974034690     -0.68239569599640
  C   0.83676736403312     -1.24540244987974     -0.74441683540878
  H   0.51789390146254     -0.92533759586034     -1.73663078463272
  H   1.87406746251080     -1.58815251912053     -0.79785311873302
  H   0.22886838640082     -2.09202735893536     -0.42711263943990
