16
Coordinates from ORCA-job run
  C   -0.95002041593200     -0.16923145205337     -0.15744533134551
  C   0.45938115199358      0.42103412874760     -0.32817374420519
  Cl  -2.13534118281680      1.02231465644334     -0.94448718084092
  H   0.63168699865418      0.44924702495626     -1.41839005784576
  C   -1.32436282894232     -0.23028581422479      1.25688721505215
  N   -1.62196193420775     -0.34038603763355      2.38735298182502
  N   -1.03802306547682     -1.46120281039497     -0.73565757318478
  H   -0.82753406988869     -1.42219656048420     -1.72612497014503
  H   -1.95552570464696     -1.86887254515767     -0.60549636883083
  C   1.49570001799564     -0.48218938793938      0.32595292085965
  H   1.34718260348749     -0.49381487025248      1.40808579643743
  H   2.49743237878025     -0.09353089153069      0.12165398476917
  H   1.43380925945916     -1.50067162823511     -0.05271334940479
  N   0.50353585240834      1.72687419123598      0.30376939057518
  H   0.02029426241677      2.42096705712497     -0.25130195117605
  H   1.46474667671591      2.02194493939806      0.41708823746027
