16
Coordinates from ORCA-job run
  C   -0.86293676135452     -0.46628902931816      0.04509343330789
  C   0.51154231359773      0.15065668463457     -0.28949990120513
  Cl  -1.57161900537474      0.48272551106499      1.48470914503658
  H   0.87404230868160     -0.46760979474709     -1.11865810072600
  C   -0.72146362392354     -1.84110260519391      0.53013678376942
  N   -0.58003308131067     -2.94880464012021      0.89442108370367
  N   -1.68081491768122     -0.42453290262664     -1.09883097209886
  H   -1.64503535789422      0.51190704469427     -1.48756541319728
  H   -2.62987998123788     -0.72164119603595     -0.91581279285857
  C   1.51080828239130      0.08831312150731      0.85718888823726
  H   2.48080743459934      0.44834712165665      0.50594838433678
  H   1.19115449114533      0.71888725431666      1.68868113553333
  H   1.64209892431852     -0.93104843265631      1.22782513169495
  N   0.26090240337546      1.48375621234978     -0.82759229725050
  H   1.02613969104780      1.76447147620397     -1.42698726425374
  H   0.19328687961972      2.15396417427008     -0.07005724402981
