16
Coordinates from ORCA-job run
  C   -0.94982781310114     -0.24052668010186      0.05950593137585
  C   0.55421504607384     -0.03504821913644     -0.21662607248204
  Cl  -1.52746040485776      1.26189619838855      1.07135154098155
  H   0.85851730590443     -0.97929275192961     -0.68418896999942
  C   -1.17121444682800     -1.37268376356170      0.95986583927051
  N   -1.32330581431355     -2.31066472367837      1.65073427923623
  N   -1.64000787769569     -0.38706968157122     -1.12172210768730
  H   -2.51980328722759     -0.86471844468393     -1.16348161753812
  H   -1.26117839967541      0.08195958752571     -1.92692324318535
  C   1.39596273496838      0.19069987186813      1.03222845632954
  H   2.45431695783193      0.14472030426961      0.76236483623794
  H   1.20858048224580     -0.57260800948569      1.79174034418790
  H   1.19383773607674      1.16848472152297      1.47024811738209
  N   0.65674098691832      0.99715790543121     -1.24292151704964
  H   0.47486108835023      1.90314020773745     -0.82316405104579
  H   1.59676570532946      1.01355347740516     -1.61901176601395
