16
Coordinates from ORCA-job run
  C   -0.89428826737189     -0.15400948888550      0.16317935423145
  C   0.56326422210740      0.15477455502632     -0.22210865004341
  Cl  -1.43149302833456      0.84409819406824      1.54367384499526
  H   0.75657499050618     -0.52989066169637     -1.07113349605884
  C   -1.00589778658580     -1.56453405055646      0.57979041530378
  N   -1.10272212513598     -2.70888379825780      0.83126847376975
  N   -1.75136718621217      0.16399441151041     -0.96585207548626
  H   -2.72582734626664      0.08769982398402     -0.69599874279503
  H   -1.57690234500467     -0.50468598411788     -1.71044211535043
  C   1.55251780351431     -0.16717089180099      0.88444477570705
  H   2.56922989453947      0.02050669628130      0.52954968023338
  H   1.49453798083276     -1.21357523911875      1.19080221273009
  H   1.36847965649298      0.47742196484364      1.74426120467581
  N   0.65162739559100      1.55749041440215     -0.57642550752418
  H   -0.04051528974190      1.77800648359557     -1.28182430514237
  H   1.57378143106951      1.75975757072213     -0.94118506924607
