19

C	0.0	0.0	0.0
C	-0.266351	-0.068516	-1.548185
Br	1.978456	0.0	0.0
H	0.393671	0.6694	-2.006091
C	-0.491306	1.293373	0.611009
H	-1.588631	1.184898	0.572183
H	-0.155161	2.165453	0.047355
H	-0.138848	1.370409	1.643947
C	-0.521474	-1.199911	0.753233
H	-1.619277	-1.098492	0.631332
H	-0.133595	-2.142808	0.360952
H	-0.245335	-1.122359	1.808442
N	-1.626901	0.418481	-2.038039
O	-2.382084	-0.391514	-2.548775
O	-1.771157	1.637815	-2.038731
N	-0.042567	-1.350555	-2.176221
H	0.829373	-1.728572	-1.821705
H	-0.802212	-1.965164	-1.911209
F	-2.884606	0.0	0.0
