19

C	0.0	0.0	0.0
C	-0.601683	0.069886	-1.40338
Br	1.964648	0.0	0.0
H	-1.697103	0.00512	-1.165139
C	-0.479162	1.240485	0.745925
H	-0.135901	2.153104	0.261228
H	-1.574866	1.161663	0.71045
H	-0.118744	1.209564	1.777948
C	-0.470145	-1.238606	0.751391
H	-0.126387	-1.178368	1.787805
H	-0.099411	-2.164673	0.31271
H	-1.566004	-1.186138	0.700466
N	-0.232051	-1.175504	-2.208453
O	-0.832866	-2.221466	-1.969944
O	0.642647	-1.064838	-3.07403
N	-0.248348	1.258311	-2.105179
H	0.707781	1.190476	-2.432936
H	-0.857507	1.36969	-2.90475
F	-2.99042	0.0	0.0
