19

C	0.0	0.0	0.0
C	-0.599731	-0.008873	-1.406076
Br	1.965572	0.0	0.0
H	-1.695262	-0.060834	-1.166513
C	-0.480056	1.278632	0.676938
H	-0.118835	1.305623	1.708484
H	-0.138926	2.163075	0.141539
H	-1.575773	1.196561	0.646274
C	-0.469784	-1.196616	0.816119
H	-0.127777	-1.080884	1.848398
H	-1.56591	-1.148116	0.761826
H	-0.097799	-2.144782	0.428421
N	-0.228629	-1.297206	-2.137287
O	-0.842492	-2.324254	-1.853521
O	0.661839	-1.240632	-2.991706
N	-0.245708	1.137809	-2.174747
H	0.712708	1.053683	-2.494534
H	-0.850618	1.204113	-2.982743
F	-2.990003	0.0	0.0
