19

C	0.0	0.0	0.0
C	-0.35032	0.000889	-1.525295
Br	1.968059	0.0	0.0
H	0.423923	-0.546251	-2.070868
C	-0.563963	1.177131	0.768855
H	-1.652538	1.116425	0.63223
H	-0.320925	1.063312	1.829418
H	-0.181183	2.13565	0.420944
C	-0.509234	-1.297188	0.608343
H	-1.601655	-1.219645	0.596922
H	-0.14456	-1.39071	1.635741
H	-0.188306	-2.166922	0.031606
N	-0.088562	1.44212	-2.094069
O	-0.944802	2.306526	-1.921192
O	0.942036	1.604182	-2.754849
N	-1.62756	-0.478627	-1.798796
H	-2.405991	-0.194681	-1.112593
H	-1.867594	-0.375896	-2.77485
F	-3.301841	0.0	0.0
