19

C	0.0	0.0	0.0
C	-0.34912	0.088516	-1.519713
Br	1.968144	0.0	0.0
H	0.4108	-0.455096	-2.090157
C	-0.560345	1.12637	0.844292
H	-0.180878	2.104687	0.553707
H	-0.310834	0.945373	1.89365
H	-1.649701	1.076519	0.712661
C	-0.507459	-1.333953	0.526131
H	-0.188017	-2.163809	-0.10746
H	-0.140519	-1.494149	1.544352
H	-1.600239	-1.258029	0.521515
N	-0.042201	1.548863	-2.024166
O	0.961789	1.701095	-2.727314
O	-0.851851	2.439104	-1.770457
N	-1.638096	-0.336057	-1.813004
H	-1.877019	-0.20661	-2.785781
H	-2.418876	-0.100441	-1.108415
F	-3.321528	0.0	0.0
