19

C	0.0	0.0	0.0
C	-0.315904	-0.059743	-1.53058
Br	1.964794	0.0	0.0
H	0.276999	-0.881198	-1.941399
C	-0.554989	1.200385	0.739307
H	-1.646101	1.133721	0.627521
H	-0.181636	2.141963	0.343924
H	-0.296142	1.121782	1.800132
C	-0.541221	-1.278682	0.616049
H	-0.216081	-1.367307	1.655832
H	-0.208139	-2.16316	0.065752
H	-1.633374	-1.17817	0.571279
N	0.317577	1.147349	-2.260097
O	1.13928	0.900425	-3.146338
O	-0.091165	2.272468	-1.987844
N	-1.668519	-0.124941	-1.918346
H	-2.386231	0.004778	-1.133078
H	-1.848733	-0.996457	-2.393939
F	-3.295527	0.0	0.0
