19

C	0.0	0.0	0.0
C	-0.313693	-0.134568	-1.520759
Br	1.97007	0.0	0.0
H	0.217677	-1.024509	-1.873281
C	-0.555381	1.237783	0.675389
H	-1.646622	1.157731	0.582605
H	-0.194403	2.154266	0.216123
H	-0.28314	1.225247	1.73527
C	-0.540535	-1.245448	0.680398
H	-0.22409	-1.275036	1.72651
H	-1.63328	-1.155792	0.624227
H	-0.198265	-2.157684	0.183511
N	0.418864	0.960826	-2.343088
O	1.087457	0.566658	-3.301768
O	0.219347	2.142339	-2.07841
N	-1.666071	-0.101062	-1.896135
H	-1.896568	-0.908401	-2.455587
H	-2.38759	0.012767	-1.106055
F	-3.307645	0.0	0.0
