19

C	0.0	0.0	0.0
C	-0.31567	0.1661	-1.516644
Br	1.970127	0.0	0.0
H	0.214019	-0.637242	-2.038735
C	-0.55589	1.081857	0.904389
H	-1.647003	1.021209	0.797194
H	-0.284367	0.862636	1.941506
H	-0.195522	2.070532	0.632681
C	-0.538437	-1.355288	0.424475
H	-0.21894	-1.589519	1.443479
H	-1.631676	-1.259581	0.389873
H	-0.197063	-2.151471	-0.242965
N	0.420097	1.401568	-2.10849
O	0.214775	2.509493	-1.622864
O	1.09606	1.200638	-3.120032
N	-1.667898	0.276192	-1.872724
H	-1.900558	-0.392444	-2.591435
H	-2.391702	0.227916	-1.07644
F	-3.313381	0.0	0.0
