17
Coordinates from ORCA-job run
  C   0.84815867496292      0.17018192565935      0.25144546301512
  C   -0.63263922505005     -0.23337258011315      0.24468995735440
  Br  1.32205918696283      1.17149247962114      1.81531822397543
  H   -0.75990993467794     -0.70205819324678      1.22518378144485
  N   1.66653453251844     -1.12945830122152      0.23128943417588
  O   2.36426582313710     -1.33322965145787     -0.74895084596618
  O   1.50018326353101     -1.85493300552905      1.19615548048894
  N   1.28265992337765      0.93793145462929     -0.99351560226473
  O   2.33337408895341      1.55644116435840     -0.94124228903796
  O   0.55040450397256      0.82224731721699     -1.97222580274508
  N   -0.80626612397444     -1.28082332814583     -0.74713831526720
  H   -1.54717169597640     -1.90960735513969     -0.46980863243328
  H   -1.01491671208614     -0.89057253798873     -1.65573127580065
  C   -1.58580795291483      0.95515585921809      0.13813452659419
  H   -1.39528701070994      1.71092619142451      0.90181997270229
  H   -2.60600865505273      0.58920780571353      0.27361669598114
  H   -1.51963268697344      1.41947075500133     -0.84604077221716
