17
Coordinates from ORCA-job run
  C   0.90785856599107     -0.15984289841233      0.25825647793925
  C   -0.62710688104993     -0.17876052113415      0.37821712743948
  Br  1.74005999797611     -1.04294442806540      1.73479661356384
  H   -0.79788797868352      0.13515929084981      1.41252427624169
  N   1.42788329506160     -0.77663463943977     -1.03717765031956
  O   0.59648861759955     -0.98936427624870     -1.91384715027488
  O   2.63117545014368     -0.96447464989807     -1.11443961746079
  N   1.34966484860344      1.30131964308336      0.21649930183838
  O   1.70200244423967      1.74099786877089     -0.87106201018045
  O   1.20568969390343      1.92585218174593      1.25649609740336
  N   -1.06171211193519     -1.55685529149038      0.25182411746417
  H   -1.87125658458958     -1.72684013869505      0.83163844391673
  H   -1.29031163233490     -1.76932103048874     -0.70997493593436
  C   -1.32953619616656      0.82990816938491     -0.53470131330173
  H   -2.40326507692485      0.75125783978317     -0.34955771979541
  H   -1.03632005664608      1.85951368704442     -0.31888269384234
  H   -1.14242639518795      0.62002919321012     -1.58660936469739
