17
Coordinates from ORCA-job run
  C   0.88463129314056     -0.08208530741433      0.23427686860906
  C   -0.64689831865624     -0.15091276409383      0.33819554401978
  Br  1.71205264399028     -1.05460473509097      1.67268319640190
  H   -0.87087544763443      0.20022630307792      1.35322358618257
  N   1.33548845896673     -0.62038613980126     -1.11772372269591
  O   1.02415136025912      0.11444258811887     -2.04888898146359
  O   1.90269750058289     -1.69494550881798     -1.17930668235417
  N   1.43199346362326      1.33447370294955      0.33326722868505
  O   2.51678123923246      1.54320442586518     -0.18991701249365
  O   0.76073070164799      2.12322359730370      0.98731148274657
  N   -1.00161230884812     -1.54218583416474      0.09342582360007
  H   -0.84963931513328     -2.11494468538172      0.91365570506808
  H   -1.97751376208980     -1.60722289817336     -0.16445837407063
  C   -1.39935479638764      0.72961626673458     -0.65381514860206
  H   -1.05064533757490      1.75993710222435     -0.64628063029647
  H   -2.45247482799374      0.73245136272127     -0.35877140559386
  H   -1.31951254712513      0.33071252394279     -1.66387747774276
