17
Coordinates from ORCA-job run
  C   0.80301193853637      0.07894941322495      0.26644989399969
  C   -0.72732387325610     -0.20313511783373      0.29684445655253
  Br  1.40047565101641      1.00842129855584      1.83257670058405
  H   -0.90899519924958     -0.58210563148553      1.30592772133019
  N   1.62922121307980     -1.19973046923173      0.20958758371019
  O   2.72265608530407     -1.13039683158018     -0.33198673543490
  O   1.14272504793341     -2.17302422821294      0.77238004040673
  N   1.13492746077388      0.85103576714572     -0.99836270275866
  O   0.95943172325462      0.19825757112528     -2.02450161613497
  O   1.44483673593782      2.02863649531407     -0.92283169629064
  N   -1.20802181128597     -1.19204509364277     -0.63332517519337
  H   -1.01083918023237     -0.93384057656880     -1.59119363058484
  H   -0.81516077742578     -2.10348908331427     -0.44379676411287
  C   -1.48812326700984      1.10174931914950      0.08841963289992
  H   -1.15286728461892      1.89714015936228      0.75386902710068
  H   -2.54516964880547      0.90646373111647      0.26739277505558
  H   -1.38378481395236      1.44611327687582     -0.94444951112931
