17
Coordinates from ORCA-job run
  C   0.77981653457470      0.06680106882604     -0.49336561184152
  C   -0.58955903523485     -0.11402441478203      0.17944363778946
  Br  0.68841702966177      0.20345982476872     -2.39080869450917
  H   -0.38295979710293     -0.00352404984311      1.24692478205410
  N   1.56882903616923      1.26135586317882      0.04142362578448
  O   2.72733070533405      1.34894252426438     -0.34025655178300
  O   0.99282977766765      2.00932139959249      0.82301893226247
  N   1.64730651696436     -1.12656211543819     -0.06530191746777
  O   1.80766877062865     -1.16826843165251      1.15043779954154
  O   2.07191775550372     -1.90297543081000     -0.89643462442693
  N   -0.99199012404457     -1.48511561144896     -0.09562635589088
  H   -1.23237126891487     -1.97801476740320      0.75176306806177
  H   -1.77165623684266     -1.52390082597607     -0.73684963050715
  C   -1.62494244433465      0.91788949490747     -0.24314058241666
  H   -1.26147861984430      1.93784866158837     -0.12718518825545
  H   -2.51052130512775      0.79325566229600      0.38435649997298
  H   -1.91863729505757      0.76451114793178     -1.28339918836827
