17
Coordinates from ORCA-job run
  C   0.78573191738080     -0.02933486792234     -0.49476398653375
  C   -0.60819966257641     -0.21661185389033      0.12627432051945
  Br  0.81019514010791     -0.08958775857012     -2.39323088590425
  H   -0.41780508160037     -0.24367312908452      1.20731240580810
  N   1.35447070815587      1.28633856822876      0.03980793936062
  O   1.60192410017110      1.24839328486405      1.24190837160522
  O   1.44487285990858      2.24919189917281     -0.70235009460414
  N   1.77965316319648     -1.07108759361731      0.02863527907530
  O   2.94472018536090     -0.90890261389871     -0.30089456726650
  O   1.33458427617201     -1.96012502764894      0.74512384965583
  N   -1.19733441814566     -1.43590251726401     -0.38439585366454
  H   -2.20566604658164     -1.37235635417987     -0.38041431679394
  H   -0.90810246699882     -2.23267725092878      0.16489080657934
  C   -1.50028946631946      0.97541776787016     -0.19388837750518
  H   -1.68276216956927      1.04047690217832     -1.26770199864494
  H   -2.45770200620834      0.83994091266279      0.31512131344541
  H   -1.07829103245367      1.91949963202805      0.15156579486798
