17
Coordinates from ORCA-job run
  C   0.80057492014272      0.09996279820545     -0.41618488893590
  C   -0.60258869835859     -0.16417876744835      0.13501421597016
  Br  0.84258449372927      0.33744666603219     -2.30836632275170
  H   -0.47078963185778     -0.14297719773717      1.21993177941215
  N   1.49665674996775      1.29326289702270      0.24035660162360
  O   0.86135854672270      1.92257918704736      1.07784608719483
  O   2.65309104008162      1.48890576383801     -0.10511536434470
  N   1.68519687703110     -1.08321016997409      0.01378951993874
  O   1.80280627954322     -1.15390197321598      1.23142820801376
  O   2.15727690246771     -1.82303685013472     -0.82495522618054
  N   -0.92709724633085     -1.53235005242873     -0.24297895710068
  H   -1.35997700930449     -1.55881999139870     -1.15836402701627
  H   -1.56832228428083     -1.93851831662719      0.42486260151523
  C   -1.63741790815509      0.87754180230419     -0.27310022617478
  H   -2.56500015801173      0.66950644062428      0.26576852851827
  H   -1.84663320893508      0.81546513637153     -1.34263129590408
  H   -1.32271966445164      1.89232262751922     -0.03130123377808
