17
Coordinates from ORCA-job run
  C   0.88502906104659      0.20094338265908      0.13185501868195
  C   -0.59652596210171     -0.14153607185314      0.33938942035407
  Br  1.53531546722087      1.44096895822375      1.44059738940344
  H   -0.63313511644599     -0.42670022176497      1.39515121914914
  N   1.67076430087584     -1.11213767725383      0.26402270294387
  O   2.26001571141771     -1.51081939201157     -0.72749651544298
  O   1.58905662295407     -1.65132918415295      1.35375800267927
  N   1.20646952411427      0.72264534246601     -1.26540701894532
  O   2.26877077292910      1.30164484529613     -1.42507785981074
  O   0.37666815157344      0.46510181845696     -2.13289041875811
  N   -0.89105221468640     -1.33857382137167     -0.42944378445001
  H   -1.61315829324852     -1.88027568291117      0.02481382204722
  H   -1.18209482714899     -1.10534695573277     -1.36874947552481
  C   -1.53127278337986      1.04556009571456      0.11653657341334
  H   -2.54042452147164      0.74581563722914      0.40789825782733
  H   -1.25165376677462      1.91321017413041      0.71626784876781
  H   -1.55277212687418      1.33182875287602     -0.93522518233547
