17
Coordinates from ORCA-job run
  C   0.83062756527165      0.18116049900234      0.28387993978091
  C   -0.64372162703512     -0.23996111578982      0.22050034825649
  Br  1.23195515260427      1.19033785683249      1.86298009865291
  H   -0.80402258409241     -0.70754770749125      1.19665707808243
  N   1.66487011688515     -1.10870422160608      0.29889480768471
  O   1.46907073202400     -1.83483436790419      1.25767170898287
  O   2.40382698893547     -1.30531119679228     -0.65213391493707
  N   1.30419706423689      0.95147803405412     -0.94502027915384
  O   0.61377611012229      0.82215482587385     -1.95201817691206
  O   2.34319118579742      1.58491225252974     -0.85299030697756
  N   -0.76622218051051     -1.29247597215053     -0.77395754937171
  H   -0.94327888571910     -0.90658995122420     -1.69113926684399
  H   -1.51166423988848     -1.92744932662250     -0.52398980971780
  C   -1.60556215139917      0.93713764618093      0.07300193000344
  H   -1.45500276602492      1.69609439157779      0.84247109552108
  H   -2.62611752410194      0.55950638945126      0.16763300625393
  H   -1.50492295710549      1.40109196407831     -0.90844070930474
