17
Coordinates from ORCA-job run
  C   0.83274024409354      0.23422536884946      0.25150953079503
  C   -0.62376294833888     -0.24982974593332      0.24973602843545
  Br  1.23267362614870      1.33164725934186      1.77095516859932
  H   -0.73756161869703     -0.67645354087664      1.25088373155924
  N   1.72081844356611     -1.01809907522732      0.30104231221059
  O   1.58337987720144     -1.70509762808296      1.29804454739614
  O   2.43899259214510     -1.23010876583848     -0.66257678053621
  N   1.24020226750623      0.96529422350964     -1.02420248775970
  O   2.25356994846278      1.64442827541963     -0.99098293805472
  O   0.52918658589536      0.76055748088476     -2.00400318085499
  N   -0.72813160545658     -1.35252829473201     -0.69053887920262
  H   -1.43860640297861     -2.00552346997264     -0.39040581066652
  H   -0.94456895525386     -1.01907927431770     -1.61970331290034
  C   -1.63796351705579      0.87848629323405      0.07472730688688
  H   -2.63867255087368      0.46610859622401      0.22177129628626
  H   -1.58660678416660      1.29361442654466     -0.93208214582107
  H   -1.49568920219826      1.68235787097300      0.79882561362728
