17
Coordinates from ORCA-job run
  C   0.79967770878885      0.08657628471295     -0.42313828465723
  C   -0.60202107444652     -0.15292939542094      0.14255945086491
  Br  0.83198353323676      0.27877692629719     -2.32073637639937
  H   -0.46278753084554     -0.10803957468597      1.22586686427088
  N   1.50929046388360      1.28903072233908      0.20072893994250
  O   0.88454757500283      1.94240030304086      1.02775613393510
  O   2.66468486619607      1.46807754565409     -0.15715502503479
  N   1.67709419707667     -1.09398234348069      0.02930226705958
  O   1.80356098255167     -1.13556234450892      1.24741213590675
  O   2.13531414021640     -1.85900065648174     -0.79438346475593
  N   -0.93985813292846     -1.52719844401230     -0.20126379298926
  H   -1.58590965423353     -1.90879011848689      0.47650017485636
  H   -1.37419962069412     -1.57121652799970     -1.11539244214121
  C   -1.63101183455308      0.88731088941890     -0.28312629290464
  H   -2.55722493102864      0.69873623121840      0.26520241836783
  H   -1.84669248519229      0.80285373664496     -1.34986253785048
  H   -1.30744820303064      1.90495676575072     -0.06627016847101
