17
Coordinates from ORCA-job run
  C   0.78312614067930     -0.03130468344680     -0.50009521038822
  C   -0.60829777794181     -0.21704755925324      0.12789558822095
  Br  0.79599780302612     -0.07842887927859     -2.39904817430380
  H   -0.41117838404457     -0.25748798767726      1.20729839439383
  N   1.36068503776646      1.27779801343694      0.04034942210937
  O   1.61246624060958      1.23054709808578      1.24128065219498
  O   1.45294001558837      2.24499494101422     -0.69591998887123
  N   1.77562657269143     -1.08136927647644      0.00908726567437
  O   1.32955328137358     -1.97947863628511      0.71359601155789
  O   2.94065032214866     -0.91731738695048     -0.31976061944127
  N   -1.20894502371185     -1.42623009289946     -0.39314133473707
  H   -2.21683068765782     -1.35724693150090     -0.37840418750349
  H   -0.91861978584156     -2.23192064511070      0.14231801566202
  C   -1.49357137648881      0.98501826427817     -0.17236118264926
  H   -1.67736295742093      1.07021779012988     -1.24451988930507
  H   -1.06499672253028      1.91991893279298      0.18976058166567
  H   -2.45124269824587      0.84733703914102      0.33566465572030
