17
Coordinates from ORCA-job run
  C   0.78274238558054      0.03838405952246     -0.47326942668446
  C   -0.58901516007497     -0.11371466076621      0.18784517507171
  Br  0.70890776053106      0.06782164110987     -2.37940200341773
  H   -0.38680742626359      0.01850226286633      1.25392593730974
  N   1.55407048866577      1.26978047683947      0.00345025381910
  O   2.69028032645238      1.38636756612016     -0.43298169311069
  O   0.99351566895541      2.00720354908783      0.80539260292274
  N   1.65793310144960     -1.12287729341084      0.02971268540118
  O   2.05343768968808     -1.96542617015287     -0.74964774582601
  O   1.85080562168480     -1.06618211338495      1.23846548076259
  N   -0.97777652647547     -1.50181955359861     -0.01730537417238
  H   -1.59156856810381     -1.80766704500753      0.72561215804933
  H   -1.46432479622947     -1.61157615631261     -0.89896955708417
  C   -1.61629587621988      0.91568129297678     -0.26766332128684
  H   -1.25642981869537      1.93852427355903     -0.15971970414452
  H   -2.51239146873631      0.80205948186305      0.34732540556084
  H   -1.89708340220879      0.74593838868865     -1.30877087317042
