17
Coordinates from ORCA-job run
  C   0.74855884812992      0.09451069951102     -0.39207626013508
  C   -0.68386715157264     -0.10506424112651      0.15255037884032
  Br  0.82879189293755      0.31665978566537     -2.28474869023023
  H   -0.57086941312665     -0.02446284417868      1.23734714169766
  N   1.49918765761060      1.25791400989598      0.26111266290466
  O   0.86717679637723      1.96727456973875      1.03378234280893
  O   2.68230014173122      1.35642792182995     -0.03105639114151
  N   1.56296034191372     -1.12364841295085      0.05340983593773
  O   1.71773508586388     -1.16912494853545      1.27016099454700
  O   1.91098593167179     -1.95444089927414     -0.76710236287983
  N   -1.21424459344422     -1.41822914796914     -0.13954231933900
  H   -0.72427456915065     -2.15849919240166      0.34479468096739
  H   -1.22332001258364     -1.61137615687215     -1.13331508187666
  C   -1.65698929282585      0.95573561960879     -0.33862891755458
  H   -2.57534732984505      0.85686629410550      0.24116358609829
  H   -1.90350262744901      0.79429713460382     -1.38941818191134
  H   -1.26528170623820      1.96415980834940     -0.21543341873375
