17
Coordinates from ORCA-job run
  C   0.80530961476139      0.08181350470659      0.26150062407157
  C   -0.72970454384365     -0.17110798857372      0.30577379374487
  Br  1.42174958857584      1.06938914837559      1.78426058022581
  H   -0.91720780934543     -0.50155659158190      1.33068517339538
  N   1.60813022055282     -1.21263667032077      0.26148278937167
  O   1.10597320712673     -2.15000332396813      0.86974764487923
  O   2.70129243307002     -1.18794716366360     -0.28466675898555
  N   1.14846015637189      0.79110029209569     -1.03656006033597
  O   0.96053996334604      0.09642811503038     -2.03260483473471
  O   1.47884470330467      1.96535027790626     -1.01345663790969
  N   -1.22932349232519     -1.19184096992019     -0.57949371265426
  H   -0.85149427229639     -2.10037797970135     -0.34947967437876
  H   -1.02775183920885     -0.98002883592256     -1.54781839122257
  C   -1.46802061134425      1.13645735948513      0.04072652422779
  H   -1.35824128040918      1.43499131536690     -1.00571130708352
  H   -1.11941687415842      1.95345480977687      0.67228756823346
  H   -2.52813916417805      0.96651470090882      0.22732667915526
