17
Coordinates from ORCA-job run
  C   0.83641890647019      0.18933768130035      0.26908000795460
  C   -0.64187937339953     -0.22291447680211      0.23605127584591
  Br  1.26146128319323      1.25134478294100      1.80652691983508
  H   -0.79536992973465     -0.65264612535260      1.23050635094624
  N   1.66149365567753     -1.10493923895629      0.32102318181168
  O   2.38705500221215     -1.34155610225953     -0.63126080482338
  O   1.47155765835093     -1.79462850424379      1.30750003805611
  N   1.30126358769891      0.91182434540362     -0.99198833860372
  O   2.34396162748373      1.54326046409769     -0.93371719130069
  O   0.60069299042367      0.74805584856627     -1.98689671699391
  N   -0.78266495722076     -1.31020082749130     -0.71726567777147
  H   -0.96613996202539     -0.95778480283796     -1.64653889086673
  H   -1.52942483707873     -1.93040076876803     -0.43625869382207
  C   -1.59592303031623      0.95589262702052      0.05460047247993
  H   -1.42888914739211      1.74353918678662      0.79112457936516
  H   -1.50432504722112      1.37933181060843     -0.94585629022435
  H   -2.61828842712182      0.59148409998711      0.17736977811160
