17
Coordinates from ORCA-job run
  C   0.83180592210633      0.19390205881250      0.24278764150620
  C   -0.64917609586757     -0.22425241187529      0.21482921305135
  Br  1.23691036657948      1.42541623460719      1.65613860520424
  H   -0.80942323169427     -0.72377546925908      1.18005053823184
  N   1.75341951307349     -1.01154460578867      0.45714921080008
  O   2.95236212923767     -0.79073742093212      0.40627201987997
  O   1.21414790910637     -2.08930570430153      0.68738808558414
  N   1.21559969651880      0.77737104724961     -1.11357814305538
  O   1.74608610776624      0.01449177464852     -1.90593122869903
  O   0.87783464990272      1.93664396521859     -1.30792960466797
  N   -0.83216471703334     -1.09092610351356     -0.93393311760490
  H   -0.58512736825969     -2.04656594527259     -0.72019987727779
  H   -1.78599094679466     -1.05282363452469     -1.26469355040604
  C   -1.60194364516240      0.95922870913093      0.10026345275818
  H   -1.43796993871894      1.70361002413242      0.87622606878309
  H   -2.62229479588373      0.58115831274745      0.20355553370896
  H   -1.50407555487649      1.43810916892032     -0.87439484779693
