17
Coordinates from ORCA-job run
  C   0.77960122203007      0.16779836371752      0.28630859896171
  C   -0.72436973599546     -0.23354260333007      0.28585642213300
  Br  1.24398499477301      1.24045590669599      1.80495648717726
  H   -0.91369440843413     -0.56020674978359      1.31166008742352
  N   1.70414173079401     -1.04174719259650      0.34167787877631
  O   1.27431102075110     -2.01227213361628      0.95333773101142
  O   2.80805253811001     -0.92067742345219     -0.16870472707518
  N   1.09721126136962      0.88128959913532     -1.01608126253766
  O   1.31022789491098      2.08259904706588     -1.00921889103134
  O   1.01233406105290      0.15207790523647     -2.00139417646742
  N   -1.09141981132756     -1.31499713087749     -0.59152825919494
  H   -0.88011725978843     -1.10272652925747     -1.55766414619585
  H   -0.63508087549872     -2.17783733981619     -0.33020145049449
  C   -1.57610227624347      0.99028135914547     -0.03340512238960
  H   -2.62076420106911      0.72095001583689      0.12044619734116
  H   -1.45775420620822      1.27804150800071     -1.08195222326962
  H   -1.33156194922661      1.84951339789552      0.59090685583171
