17
Coordinates from ORCA-job run
  C   0.82441932301090      0.22476258831906      0.24096124565474
  C   -0.64909847448011     -0.21733561688909      0.22214344248666
  Br  1.19656509618782      1.52605051420668      1.59961562291965
  H   -0.81419296154054     -0.65916240681976      1.21436919934893
  N   1.76415978612955     -0.95267192221031      0.51973272068723
  O   2.95961861414305     -0.71881203824357      0.44842035650383
  O   1.24126678007863     -2.02121865410442      0.82011102314134
  N   1.21042554029806      0.75151687700439     -1.13799548759463
  O   1.74111144328432     -0.04625242448297     -1.89552165441352
  O   0.87375422622156      1.90128053224284     -1.38398959208686
  N   -0.81001929312038     -1.15421360769779     -0.87358604953525
  H   -0.54835645004443     -2.09072854896948     -0.60039292117567
  H   -1.76383833444560     -1.15340378611988     -1.20694485953815
  C   -1.61467651962242      0.94505798485283      0.02392621078009
  H   -1.46006669457337      1.74586419228569      0.74357524452106
  H   -2.63143077088113      0.56512337923340      0.15241597092388
  H   -1.51964131064591      1.35314293739238     -0.98284047262333
