17
Coordinates from ORCA-job run
  C   0.87006060448583     -0.17050869334534      0.13450530045338
  C   -0.65397544116349     -0.16945839678562      0.43150448958350
  Br  1.81996209372009     -1.24309097925494      1.41272193311411
  H   -0.69233946505057      0.13335805860317      1.48362113733428
  N   1.26561560670392     -0.65725634228402     -1.25546883718843
  O   0.35380291155363     -0.95113369321314     -2.02272775317202
  O   2.46196203357359     -0.69872130877269     -1.49564971804684
  N   1.34989347029458      1.27516443993554      0.21120989375302
  O   1.39985231002167      1.76096620825536      1.33121257893961
  O   1.51917629209594      1.84946080337921     -0.85736026847850
  N   -1.29536481188130     -1.45690165727094      0.32417692283489
  H   -1.25999123896476     -1.79607812561893     -0.62752778530421
  H   -0.87533238771505     -2.13917386392886      0.94155037581008
  C   -1.40973170310557      0.87646266023517     -0.38440342257229
  H   -2.45733244939072      0.81202841809899     -0.08913215838103
  H   -1.33774900317054      0.68643811164289     -1.45449793364379
  H   -1.06050882200724      1.88944436032415     -0.18073475503577
