17
Coordinates from ORCA-job run
  C   0.86250996568104     -0.18573081735152      0.15053019233461
  C   -0.66638892442409     -0.15616242429636      0.42044152799814
  Br  1.76909214977788     -1.27188371577523      1.44863857069409
  H   -0.71802179306696      0.14909200611151      1.47127184312991
  N   1.27373148841980     -0.68347427938455     -1.23103004561211
  O   2.47311208480153     -0.74933851848677     -1.44919285907055
  O   0.37027271229451     -0.96037899321780     -2.01425084223255
  N   1.36760845458583      1.25112439875998      0.23191040194196
  O   1.56626517434985      1.81853950119035     -0.83529748219273
  O   1.40708883679782      1.73956163729377      1.35112260095667
  N   -1.32924311660873     -1.43181747734947      0.30336725133120
  H   -0.93255015624529     -2.12099800322486      0.92847867099671
  H   -1.28378599761851     -1.77276907565981     -0.64731368271572
  C   -1.38894000599755      0.90147912370021     -0.41032391821083
  H   -2.44170638695011      0.85966973479908     -0.12963676585665
  H   -1.02235531513263      1.90823544149007     -0.20632809338745
  H   -1.30568917066441      0.70485146140138     -1.47838737010469
