17
Coordinates from ORCA-job run
  C   0.87399423841334     -0.18477429444417      0.11175097146611
  C   -0.64411718412498     -0.18375655399034      0.43836805780271
  Br  1.84021818934804     -1.30472305486845      1.33589893673079
  H   -0.66024593931212      0.08256453799835      1.50083047315425
  N   1.23889337966984     -0.62784120377051     -1.30101347668520
  O   2.43005107583296     -0.67201252939323     -1.56531769565274
  O   0.30988893772541     -0.88647572409631     -2.06038232465469
  N   1.36598207567174      1.25448223007345      0.22643982941441
  O   1.52103149676051      1.86176236821858     -0.82594280550499
  O   1.43980958281502      1.70300207040816      1.36055407857111
  N   -1.29672352998012     -1.46261115414221      0.29915228008849
  H   -1.28285363660896     -1.76815662077297     -0.66447679528327
  H   -0.86902780609139     -2.16891188584922      0.88339785593809
  C   -1.40879032849090      0.89397552243956     -0.32614699281352
  H   -1.04533066942565      1.89718243301670     -0.10022092488648
  H   -1.36409711825315      0.73647968429099     -1.40295775412832
  H   -2.44968276394958      0.82981417488162     -0.00793371355673
