17
Coordinates from ORCA-job run
  C   0.72570010422804      0.05522838982269     -0.45804484585612
  C   -0.66051294663569     -0.06610528012043      0.21430718643163
  Br  0.65407190076734      0.13387363518646     -2.36255040598719
  H   -0.45676380555373      0.09420709020602      1.27682557898854
  N   1.55038120567925      1.24435577396428      0.04125579153915
  O   2.70798826203543      1.28798785768411     -0.34955737960595
  O   0.99705189348337      2.02838376204771      0.80197336198147
  N   1.54985614105669     -1.14695716928104      0.01179334695049
  O   1.80439545910043     -1.10520632658465      1.21174296020981
  O   1.81079844039666     -2.04623266857976     -0.76776853566938
  N   -1.23803150230645     -1.38372643440971      0.06964824101858
  H   -0.72407840678900     -2.09733349446011      0.56886897231611
  H   -1.33393470538097     -1.65181944384557     -0.90188425485682
  C   -1.65053824055302      0.97832147262971     -0.27799523864433
  H   -1.98688854171893      0.74287269453913     -1.28915234561414
  H   -1.23042454380895      1.98277053169956     -0.26731125124981
  H   -2.51907071400048      0.94837960950160      0.38084881804796
