17
Coordinates from ORCA-job run
  C   0.83231339035972      0.26403399852170      0.23128075421354
  C   -0.61816228245696     -0.23578641229936      0.26737051765092
  Br  1.22905967778628      1.45068555428129      1.68306081966394
  H   -0.72006559505421     -0.60759295194950      1.29141539517429
  N   1.73565512209823     -0.97316456044092      0.34535153569397
  O   2.44929319473608     -1.23161172046251     -0.61020415121845
  O   1.61350660565016     -1.60359556066539      1.38097268522378
  N   1.22342852372089      0.92580157009404     -1.08669340243159
  O   0.50933138369566      0.65714929318063     -2.04872226916673
  O   2.22847332467078      1.61786604340028     -1.09879834548513
  N   -0.71647886182123     -1.38990023387864     -0.60962441061663
  H   -1.42104935419122     -2.03009999831346     -0.27045822888283
  H   -0.94012623436763     -1.10996027107362     -1.55468648044831
  C   -1.64686952630741      0.86989943806246      0.03898993257490
  H   -1.51004123408091      1.71287143826483      0.71823452942627
  H   -1.60660906973283      1.23113517455269     -0.98885745745819
  H   -2.64165906470541      0.45426919872548      0.21436857608625
