17
Coordinates from ORCA-job run
  C   0.94235191470468     -0.18927113049907      0.14471022907346
  C   -0.57127392718842     -0.22639102198014      0.42375586086086
  Br  1.92222582015066     -1.19684051627118      1.43957327733610
  H   -0.63067581233848     -0.00700346881140      1.49421916553785
  N   1.32074050776981     -0.68404840668388     -1.24839792880002
  O   0.40047916783459     -0.82630439790969     -2.04718786953457
  O   2.50887260484916     -0.85338342748128     -1.46942371404009
  N   1.38278328608581      1.27267443671266      0.18795406595239
  O   1.61774961630587      1.81075611985567     -0.88698374298445
  O   1.35309370673162      1.79991256190185      1.28951789794771
  N   -1.02365641388890     -1.59002331132144      0.22284526998678
  H   -1.77486294206362     -1.80988690556245      0.86157594114037
  H   -1.34634260558198     -1.71906720129873     -0.72679703589376
  C   -1.36146076849352      0.85632575005863     -0.31635819718525
  H   -1.04266036265370      1.86398816947092     -0.04127577422526
  H   -2.41011840464409      0.75633648042983     -0.02705046109128
  H   -1.28724538757950      0.74222626938969     -1.39667698408086
