17
Coordinates from ORCA-job run
  C   0.94426855731710     -0.18614333368805      0.13927375731797
  C   -0.56825695426996     -0.23282085971540      0.42397329512152
  Br  1.93373139748759     -1.19744349392444      1.42401385991130
  H   -0.62466650274415     -0.02225913046140      1.49633626911859
  N   1.31872991721578     -0.67028790156087     -1.25858056855849
  O   2.50619998088561     -0.83815901906902     -1.48432133723328
  O   0.39627484814444     -0.80477797615531     -2.05607579082608
  N   1.37869987713131      1.27701555675899      0.19052188019442
  O   1.34874944077118      1.79731593958801      1.29539644860660
  O   1.61016699320638      1.82285472696484     -0.88124453749328
  N   -1.01389786334113     -1.59684021654392      0.21237056698679
  H   -1.34703912816659     -1.71792147083769     -0.73463300421316
  H   -1.75433353066112     -1.83135347094629      0.85826651799387
  C   -1.36676012470629      0.85190566642394     -0.30403775196803
  H   -1.05213586925068      1.85865295627881     -0.02100582918824
  H   -2.41377144328538      0.74366814230615     -0.01171920573647
  H   -1.29595959573408      0.74759388458164     -1.38553457003402
