17
Coordinates from ORCA-job run
  C   0.86306511365500     -0.19789474192156      0.13854916983609
  C   -0.66222763254620     -0.15713171175154      0.42599771286511
  Br  1.77440271789378     -1.30964470407673      1.41125041501323
  H   -0.69918828892706      0.13612878017959      1.48090203672048
  N   1.25415883475820     -0.68160413243522     -1.25387171905839
  O   0.33965567850611     -0.94540256469933     -2.02879919177984
  O   2.45046369144315     -0.75179928515211     -1.48745007252546
  N   1.38233884594259      1.23312836872596      0.23282920270653
  O   1.44174978412183      1.70526535255596      1.35811669384325
  O   1.57113877264982      1.81360366877944     -0.82915325614822
  N   -1.33912093361754     -1.42465309404341      0.30119284297971
  H   -0.94049385165974     -2.12568709892137      0.91182513427204
  H   -1.30845842530739     -1.75342545356966     -0.65445273018564
  C   -1.38185309249813      0.91867424318120     -0.38405692781667
  H   -1.29917709861494      0.74465380745726     -1.45609810980228
  H   -1.01169254554119      1.91951100251567     -0.15848685230557
  H   -2.43476157025829      0.87427756317585     -0.10429434861437
