17
Coordinates from ORCA-job run
  C   0.86940928883389     -0.12365966172922      0.25824536636047
  C   -0.66572593578663     -0.11610251955324      0.32129566096307
  Br  1.60848696373234     -1.12862725631024      1.72246436157502
  H   -0.89951816062891      0.25096831448519      1.32838835554867
  N   1.32911996242029     -0.69098195174319     -1.07885066052021
  O   1.07924287893703      0.05300763392718     -2.02116995692467
  O   1.84555866327290     -1.79174661121589     -1.12027663924710
  N   1.48398102917851      1.26405422828120      0.36644445454547
  O   0.83563477896639      2.08894013477917      0.99868436549417
  O   2.59157594073077      1.41579661551505     -0.12784207970938
  N   -1.08244097034076     -1.48958459680105      0.07286154585063
  H   -2.05308471459851     -1.50706163098565     -0.21126690372846
  H   -0.98218844569088     -2.06396821859023      0.89989943227110
  C   -1.34702301478483      0.79504586187260     -0.69442827467940
  H   -0.94644908309899      1.80627187295608     -0.68421146887597
  H   -1.26183429765074      0.38530907093193     -1.69972843795478
  H   -2.40574488349186      0.85333871418030     -0.42650912096863
