17
Coordinates from ORCA-job run
  C   0.86956101825935     -0.13386050091048      0.25532920103659
  C   -0.66545768635718     -0.12036926682295      0.32043994789940
  Br  1.60655516133561     -1.16474795348727      1.70228445727349
  H   -0.89615549595905      0.23272831423805      1.33324989265862
  N   1.32509580917091     -0.68163104508166     -1.09134015207648
  O   1.83495377267928     -1.78461894195094     -1.15120483185776
  O   1.07839387074400      0.07893263157313     -2.02115383313970
  N   1.48987599045124      1.24966955363943      0.38488576006902
  O   0.84497479850348      2.06747382075606      1.02966894044898
  O   2.59791185743039      1.40428911414093     -0.10744103523839
  N   -1.08900382923214     -1.48783689156291      0.05174163288147
  H   -2.05990582772026     -1.49637947328228     -0.23192284784663
  H   -0.99091983859996     -2.07520349998782      0.86986462179432
  C   -1.34350143779847      0.80940691444238     -0.68052597812439
  H   -2.40148737833724      0.86930799590318     -0.41002218122697
  H   -1.26219348322294      0.41453521849983     -1.69206708172978
  H   -0.93769730134705      1.81830400989333     -0.65578651282178
