17
Coordinates from ORCA-job run
  C   0.69125109253161     -0.11680986473289     -0.52370928993491
  C   -0.62221075330818     -0.15894917938352      0.29466519876345
  Br  0.44691839230230     -0.47500165291500     -2.38219357585447
  H   -0.28686703099755     -0.10958035888810      1.33535466441739
  N   1.34568677063137      1.24107557106753     -0.29194655661655
  O   1.72677974409659      1.38808391500012      0.86586080403409
  O   1.36850861629005      2.06408429954910     -1.19080898432750
  N   1.73977759262037     -1.10339827963248     -0.00279979432030
  O   1.36492404980645     -1.94499173885138      0.80515388195157
  O   2.86982636436395     -0.96191529767472     -0.44540718608914
  N   -1.40993767255154     -1.35486543185186      0.13812285578559
  H   -0.87590350196238     -2.17979647992199      0.37301095691881
  H   -1.76849320368383     -1.43879628540018     -0.80451395151215
  C   -1.47523550862726      1.06505436861412     -0.01521609032736
  H   -2.39508507623671      0.97685421302436      0.56323988515626
  H   -1.73687744668702      1.10930800246789     -1.07517634944713
  H   -0.98306242858823      1.99864419952900      0.25936353140235
