17
Coordinates from ORCA-job run
  C   0.78710691802728     -0.02292874978351     -0.49273067583294
  C   -0.60829727611419     -0.22227888009202      0.12111161572197
  Br  0.81815455692780     -0.05871135065863     -2.39186117271230
  H   -0.42110861815745     -0.26542045826860      1.20221221470919
  N   1.34949207020418      1.28755354752463      0.06050468981512
  O   1.43748130138054      2.26050940003227     -0.66865304364767
  O   1.59387474027733      1.23456463535881      1.26269149477682
  N   1.78259564677703     -1.06840902278690      0.01980648201776
  O   2.94876931970246     -0.89577370688066     -0.30044038920880
  O   1.33756307193057     -1.97128440969024      0.71882831379538
  N   -1.19398004651279     -1.43461247829838     -0.40995010718517
  H   -2.20248214901451     -1.37357109551918     -0.40474863954782
  H   -0.90305077583016     -2.23928764572200      0.12677866519932
  C   -1.50135327363478      0.97327668350472     -0.18311103228464
  H   -2.46173834404342      0.82583067744791      0.31690291704325
  H   -1.08410100247377      1.91152047095632      0.18334933374350
  H   -1.67692613944612      1.05802238287545     -1.25669066640297
