17
Coordinates from ORCA-job run
  C   0.90809130093678     -0.14494484175519      0.14668677263333
  C   -0.61079906606686     -0.16320094287223      0.38139752794694
  Br  1.81023059677147     -1.26161572971566      1.42596111310567
  H   -0.73013278146120      0.11380627225671      1.43615268079985
  N   1.21670482945208     -0.58864304645920     -1.27749435577270
  O   1.73005272259602     -1.67451023337750     -1.47179720310356
  O   0.85841154453646      0.22922832587002     -2.11816844877954
  N   1.52469917872867      1.23710172615830      0.30591246167605
  O   0.94843627422727      1.99392952700192      1.07787567895742
  O   2.56734503834899      1.44828303877860     -0.29597177267995
  N   -1.04799985495758     -1.51573212578069      0.06501172906389
  H   -0.86372690825659     -2.15478540796085      0.82750176438437
  H   -2.04184624820907     -1.52090804848527     -0.12274923687035
  C   -1.40438327637921      0.82267515782059     -0.46941565636594
  H   -1.00726658188298      1.83403610954224     -0.41795237608195
  H   -2.42623102271189      0.84581216162469     -0.08037058818897
  H   -1.43258574567236      0.50146805735354     -1.50958009072455
