17
Coordinates from ORCA-job run
  C   0.92851378081991     -0.22958451943046      0.15994171360957
  C   -0.58847085684507     -0.18737582992016      0.42026939388734
  Br  1.84170659171823     -1.25835273486041      1.48658872633459
  H   -0.65002622374205      0.05489548711858      1.48560139855571
  N   1.29783662993996     -0.77011117341581     -1.21862905780372
  O   2.47796362949871     -1.00665512605048     -1.41991839346006
  O   0.38188220486631     -0.87741068266570     -2.02760048323635
  N   1.44050535633660      1.20888031231975      0.18088567144752
  O   1.71813158109910      1.71290030017809     -0.90032985512115
  O   1.42161339232406      1.75909825893318      1.27144830760414
  N   -1.10422072254222     -1.53057127940599      0.23653324129367
  H   -1.43006342202477     -1.65851765310848     -0.71206547098758
  H   -1.86520707389720     -1.70778454715557      0.87676082697481
  C   -1.31529579555452      0.91912623412318     -0.34914570408093
  H   -2.37137019313468      0.87462624457196     -0.07333797938621
  H   -0.95146064668375      1.91457832178189     -0.08576566681669
  H   -1.23203823217863      0.78325838698643     -1.42623666881465
