17
Coordinates from ORCA-job run
  C   0.87836767593251     -0.12889195188359      0.12161300583310
  C   -0.63933273708020     -0.13126243437965      0.46268612892275
  Br  1.86973269777921     -1.37970788694424      1.18645547967148
  H   -0.68788188109893      0.29394086315353      1.46858010698679
  N   1.02544594880612     -0.44434418409919     -1.35735103577533
  O   0.96458575259122     -1.62502756293409     -1.67475140924310
  O   1.05624802134551      0.52173316986876     -2.11019792721296
  N   1.54919250385835      1.22704558568206      0.34146357642865
  O   2.68893738015182      1.33994814759064     -0.08247719862056
  O   0.90154239495495      2.06699185003878      0.95568830430485
  N   -1.24795625737704     -1.43926793081463      0.49492512714924
  H   -1.17522966506292     -1.90303832037954     -0.40265220826112
  H   -0.82747353506556     -2.03338243069786      1.19670834862299
  C   -1.42633076906121      0.75311723942678     -0.49936125546083
  H   -0.99721250602841      1.74727197229865     -0.60615471710011
  H   -2.43894666444036      0.84209878997996     -0.10596922009879
  H   -1.49268836020506      0.29177508409362     -1.48820510614704
