15

C	-0.116811	0.022334	0.064157
C	-0.625556	-0.318456	-1.335276
Cl	1.655981	0.456297	-0.063622
H	0.223744	-0.564145	-1.989744
H	-0.634948	0.915739	0.384023
C	-0.297869	-1.092506	1.067381
H	0.166572	-2.025362	0.738197
H	-1.37822	-1.203715	1.159516
H	0.136957	-0.802683	2.026579
N	-1.239304	0.884222	-2.011283
O	-1.949572	0.656899	-2.982424
O	-0.875093	1.992015	-1.64184
C	-1.559964	-1.439339	-1.384843
N	-2.043275	-2.497366	-1.560677
F	-2.593545	0.14669	-0.079586
