13

C	-0.579053	-0.052691	-1.384596
C	0.0	0.0	0.0
F	-2.013629	-0.136968	-1.247305
H	1.091758	0.0	0.0
H	-0.30215	-0.979962	-1.887083
H	-0.329491	0.947822	0.461906
N	-0.229887	1.066528	-2.178111
H	-0.771358	1.080797	-3.031822
H	-0.38269	1.925855	-1.667242
N	-0.430495	-1.183583	0.750079
H	-1.301558	-1.006951	1.230986
H	0.286713	-1.384707	1.435438
H	3.101731	0.0	0.0
