13

C	-0.407777	0.003373	-1.4528
C	0.0	0.0	0.0
F	-1.814173	-0.076985	-1.543627
H	1.093629	0.0	0.0
H	-0.013515	-0.883949	-1.957603
H	-0.358508	-0.91324	0.495638
N	0.016643	1.178188	-2.162587
H	1.023874	1.087534	-2.278261
H	-0.119415	1.944276	-1.507207
N	-0.445152	1.23831	0.65225
H	-1.307317	1.091953	1.156745
H	0.270731	1.514991	1.311658
H	3.049305	0.0	0.0
