13

C	-0.371137	0.080551	-1.459201
C	0.0	0.0	0.0
F	-1.715716	0.443179	-1.615191
H	1.10069	0.0	0.0
H	-0.25809	-0.903198	-1.924932
H	-0.350852	0.917474	0.487087
N	0.431324	1.034959	-2.195378
H	0.365513	1.919832	-1.697058
H	1.399923	0.745018	-2.057315
N	-0.557108	-1.198043	0.65971
H	0.222329	-1.842073	0.772149
H	-0.839337	-0.945748	1.600178
H	3.068872	0.0	0.0
