14
Coordinates from ORCA-job run
  C   -0.42009336107094      0.03913434656255      0.00390822468424
  C   0.93780044254028     -0.00328268577503      0.09630878165994
  C   -1.26427463209629     -1.12854300449467     -0.39967002331129
  H   -0.65655550745706     -1.99496619001582     -0.65664702961167
  H   -1.88302613708103     -0.87059359475408     -1.26525853304989
  H   -1.93557694151902     -1.40791721417596      0.41834532106463
  N   -1.11897334374300      1.16793386261199      0.42571693617351
  H   -2.06449436974736      1.21605065436965      0.07803158294613
  H   -0.62273013840446      2.03594499604538      0.28102503120722
  C   1.65241723387089     -1.16274183630265     -0.33829833756713
  N   2.24901400250494     -2.09933619270134     -0.72946975913847
  N   1.72034023475825      1.02589486021080      0.67935114041080
  H   1.21932622702182      1.54499318897263      1.38509495721158
  H   2.18482629042298      1.63742880944657      0.02256170732039
