14
Coordinates from ORCA-job run
  C   -0.40284717309141      0.15093767782646     -0.19953852517951
  C   0.94184723349136      0.08487394389272      0.01537528497735
  C   -1.38677920175482     -0.57431992194462      0.66917031595136
  H   -1.72888553233800      0.06075114629337      1.49277300851981
  H   -0.95751357709539     -1.48674732551116      1.08429389243914
  H   -2.27173361940682     -0.85280834527921      0.08999022599371
  N   -0.97154216760417      1.02046168959260     -1.12471502812873
  H   -1.78765667079259      0.65212871435648     -1.59006412033105
  H   -0.31826188152370      1.43674237807333     -1.77507974590403
  C   1.81032177071909      0.75612127459133     -0.90190474543415
  N   2.48147814318965      1.29220703391048     -1.70823928031642
  N   1.57680300480344     -0.50827246357498      1.13866714146616
  H   2.07683441610385     -1.35765887364628      0.90901056960146
  H   0.93693525529951     -0.67341692858051      1.90026100634492
