14
Coordinates from ORCA-job run
  C   -0.46169935578215      0.05799565057160     -0.24084546332773
  C   0.86226636033406      0.07023856660996      0.08729642487955
  C   -1.47651805785095     -0.67985572566082      0.57335552045538
  H   -0.99987777908558     -1.15551573300490      1.42629352081803
  H   -2.24646046105268      0.01225456488083      0.93125117138903
  H   -1.97285990177150     -1.43331431797583     -0.04437188723935
  N   -0.94269318741114      0.64506703918767     -1.39031905367536
  H   -0.32963722973609      1.29474662906083     -1.86096497727416
  H   -1.90471078230684      0.94168070116913     -1.36003091174734
  C   1.76377306842125      0.82199334966718     -0.73090638032050
  N   2.49069462598594      1.46406153430544     -1.40144505281153
  N   1.35803256645636     -0.64965601841263      1.22160585447079
  H   2.01521990310530     -1.36438369009016      0.93295371535700
  H   1.84247023069403     -0.02531255030830      1.85512751902620
