14
Coordinates from ORCA-job run
  C   -0.51117156289526      0.08032760295860     -0.01028481263844
  C   0.85122553291986      0.05512980801899      0.01068705287891
  C   -1.36384917579243     -1.13685952691100      0.16162022522811
  H   -1.98982784731938     -1.03094117833132      1.05167531681650
  H   -0.76237113173352     -2.03961811081267      0.25987554210055
  H   -2.02831776459156     -1.25795264357461     -0.70006827925361
  N   -1.17336464618909      1.28028494571518     -0.09868834853501
  H   -2.08504821745910      1.25088411830062     -0.52635857559077
  H   -0.57449603626539      2.03633771126214     -0.40387676218638
  C   1.57155361949310     -1.16057482086786      0.20584202337342
  N   2.21334576313871     -2.13855244736297      0.35058530186116
  N   1.56080695677513      1.29238852849671     -0.15828930119452
  H   2.29155709868362      1.19107115653598     -0.85243164021738
  H   1.99995741123530      1.57907485657222      0.70971225735746
