14
Coordinates from ORCA-job run
  C   -0.47021810365278      0.15771708456853     -0.17143973713162
  C   0.86812064083814     -0.00690505311669      0.03531936739429
  C   -1.48733382562642     -0.74655512111561      0.44960610181410
  H   -2.07073786754663     -1.24191986570537     -0.33147728668653
  H   -0.99560229970441     -1.49175979233876      1.06906015929762
  H   -2.18266497955907     -0.16644074008538      1.06577729614194
  N   -0.97465697649851      1.10435430627597     -1.03695195596402
  H   -0.34081336883952      1.83771654642340     -1.32126459871085
  H   -1.90248196180558      1.43368025054956     -0.82424339476264
  C   1.77273626307094      0.91751262100024     -0.57682974917517
  N   2.50470124340445      1.69391472670573     -1.07836766642592
  N   1.37590079274692     -1.07774033355806      0.83857984459320
  H   1.95827394488359     -1.69517244593142      0.28519835010839
  H   1.94377649828889     -0.71740218367215      1.59603326950723
