14
Coordinates from ORCA-job run
  C   -0.51302951630138      0.06714079847587     -0.03587547712112
  C   0.84052291837804      0.06547354398287      0.11871542287917
  C   -1.27650096006746     -1.06771485946448     -0.64185571707641
  H   -0.62103647637600     -1.89228924426776     -0.91947272609236
  H   -2.01987899777197     -1.44510530314553      0.06807058665175
  H   -1.81335394219102     -0.72547303691411     -1.53077268009048
  N   -1.23861240531514      1.18894669203110      0.28322174003749
  H   -2.19218981713899      1.02987171873807      0.56751775476648
  H   -0.71706308846520      1.83925279561767      0.85647182164424
  C   1.64195930305687     -1.03607106774150     -0.30350319015068
  N   2.34985291305714     -1.92337954320150     -0.62194109601539
  N   1.46212966549243      1.21965227114752      0.70790309918799
  H   1.98883231599831      1.73952606549008      0.01435172116239
  H   2.10836808764439      0.94016916925168      1.43616874021692
