14
Coordinates from ORCA-job run
  C   -0.41814571098344      0.03804094867364     -0.01671638520966
  C   0.94423129899116      0.01826791463964      0.03688856845584
  C   -1.25299559206500     -1.13512551476600     -0.42379853479480
  H   -2.03398000898303     -1.33429079883196      0.31619529289324
  H   -0.64702767836462     -2.03587573065717     -0.52435044814215
  H   -1.74152384642836     -0.93045906310120     -1.37930760565477
  N   -1.11004898395162      1.22619814857897      0.16529333269094
  H   -0.64071345075601      1.90535386381617      0.74445364461842
  H   -2.08522607590237      1.12004243250701      0.39534829875481
  C   1.64977991984758     -1.20942105976630     -0.16804010624974
  N   2.22885541412844     -2.22578530258593     -0.30498660658121
  N   1.73851145102842      1.17824085434492      0.23341650074367
  H   1.97480548656862      1.39842223658321      1.19003136306041
  H   1.39247777687022      1.98539107056499     -0.26542731458499
