14
Coordinates from ORCA-job run
  C   -0.41425252650879      0.04843022685289     -0.03551426455780
  C   0.94469499526752      0.00987104334151      0.04233813467938
  C   -1.25904416612668     -1.13132681543915     -0.40284498969957
  H   -0.65186574883056     -2.01674216013382     -0.58198394550264
  H   -1.83476469393095     -0.91243824107726     -1.30675251421401
  H   -1.97418735662653     -1.36038841724529      0.39356972718552
  N   -1.09558618853710      1.25183341863799      0.09787677064088
  H   -2.07832948431819      1.15229380614008      0.29512151382956
  H   -0.64652222057285      1.92847366034273      0.70011348163681
  C   1.64143855431929     -1.22849459051171     -0.11131669763792
  N   2.22313834567508     -2.24810739032138     -0.20710825889661
  N   1.76117063700393      1.16558897896687      0.19948712443319
  H   2.03185105044458      1.35888088590996      1.15366636650979
  H   1.35225880274124      1.98012559453659     -0.23665244840659
