14
Coordinates from ORCA-job run
  C   -0.47847091930008      0.16060458605909     -0.14360571026566
  C   0.86843328640166     -0.01670016159067     -0.01947325884357
  C   -1.46357709933173     -0.71787990257561      0.56026613919520
  H   -0.94175853575821     -1.44970171315413      1.17101116691721
  H   -2.09372796181551     -1.23050009289146     -0.17181953241432
  H   -2.11919444674966     -0.11599046432321      1.19855788129279
  N   -1.02639062760192      1.09401409471850     -0.99673731703029
  H   -0.40443649109197      1.81267413062685     -1.33868642879792
  H   -1.93611536695208      1.43805495271508     -0.73525443352233
  C   1.74291837051151      0.88118092914106     -0.71008631575477
  N   2.45165922597538      1.63516120411118     -1.27517094226064
  N   1.41478292664063     -1.07535081512165      0.77492647949965
  H   1.95427290170416     -1.71181342838220      0.20006188213630
  H   2.03360473736781     -0.70475331933284      1.48601038984834
