14
Coordinates from ORCA-job run
  C   -0.47678836698402      0.20084406795335     -0.08871813055618
  C   0.86773158207073     -0.02148055955260     -0.02914532408996
  C   -1.45889644650249     -0.67032810658373      0.62823614186582
  H   -2.17431595995293     -1.09806610496018     -0.08228340083071
  H   -0.93903072241727     -1.47442364991749      1.14208822006841
  H   -2.02524075920522     -0.07647067168820      1.35090731643417
  N   -1.01845706312011      1.29403929398410     -0.73071110355516
  H   -1.95448686130433      1.16829544002947     -1.08111649558598
  H   -0.41117789228639      1.78742831264205     -1.36971164625044
  C   1.73742174411236      0.84711735543781     -0.76220183702615
  N   2.44104183637984      1.56329371964105     -1.38042338486894
  N   1.41692008904841     -1.09021950348459      0.74925575836580
  H   1.97896801311097     -1.70177451777267      0.16983655943708
  H   2.01431080705044     -0.72825507572836      1.48298732659222
