14
Coordinates from ORCA-job run
  C   -0.41982870498330      0.01521475168551      0.03321972297084
  C   0.94163630314380      0.03959440312131      0.03405286090364
  C   -1.23117231711462     -1.15654768000668     -0.42274350426994
  H   -0.60119124960751     -1.95650693615551     -0.80881161321161
  H   -1.92881296743962     -0.85406027011669     -1.21064727457857
  H   -1.82049248890163     -1.55171647382593      0.41055776937967
  N   -1.14227811616243      1.06007405818306      0.60344348993338
  H   -2.11123769189001      1.08782502473000      0.32511729954967
  H   -0.69938808144931      1.96373604902642      0.51426851708574
  C   1.68173208714830     -1.03445767585569     -0.55105885092484
  N   2.29681064603599     -1.89761830614386     -1.06370452449902
  N   1.71086354038458      1.05566564449086      0.65803170170838
  H   1.23828135378872      1.47223164733022      1.44665647434329
  H   2.08507768704705      1.75556576353698      0.03261793160938
