14
Coordinates from ORCA-job run
  C   -0.50956373675266      0.09341108882040     -0.00691175268172
  C   0.85203070458372      0.03459870140400      0.00216573968960
  C   -1.38983874937469     -1.09489600683159      0.21989269433277
  H   -2.00679536340260     -0.93911640425449      1.10905775106616
  H   -2.06253124639243     -1.23560776455022     -0.63213527556025
  H   -0.80883985664547     -2.00698181347049      0.35038259015832
  N   -1.14304186659193      1.30477855186562     -0.13689093274454
  H   -0.52877149799627      2.03343898390702     -0.47621711789457
  H   -2.05914324399182      1.28092663490751     -0.55530128961752
  C   1.54396121105244     -1.19030621565186      0.23796409711391
  N   2.16291718341820     -2.17756058825722      0.41553526046400
  N   1.58997213407511      1.24598946275286     -0.22542131290773
  H   2.30532386630841      1.09915275082675     -0.92755042800058
  H   2.05332046170999      1.55117261853172      0.62342997658216
