14
Coordinates from ORCA-job run
  C   -0.46118908225693      0.15735219024665     -0.19555489613370
  C   0.86586194034905     -0.02061865989980      0.06536429678696
  C   -1.51596745144222     -0.69606298740812      0.43422571561314
  H   -2.07864996042836     -1.22419522639674     -0.34049596688519
  H   -1.06076673961757     -1.41443317342916      1.11070202709288
  H   -2.22349290032695     -0.07323149685710      0.99189453087389
  N   -0.91725100673698      1.06699424402100     -1.12490757985320
  H   -1.84667643779219      1.42050535201008     -0.96480466274925
  H   -0.26108334073229      1.77392348334446     -1.42459801625692
  C   1.80975200111595      0.85408582469937     -0.56061190696747
  N   2.57626459856013      1.58927407987266     -1.07270473437217
  N   1.32507361940367     -1.05623791024695      0.94089074363066
  H   1.91580017689605     -1.71103328418899      0.44212776609778
  H   1.87132458300864     -0.66632243576737      1.69947268312260
