14
Coordinates from ORCA-job run
  C   -0.51364376986468      0.10332479357840     -0.02307719167308
  C   0.83957655551232      0.18306062845411      0.13073831639672
  C   -1.21070588170090     -1.19840002142972     -0.26158956335042
  H   -1.91294841030493     -1.39914846677067      0.55217578658641
  H   -0.48447614799734     -2.00417315228326     -0.32509042713103
  H   -1.78608148065719     -1.15495350931008     -1.19252102185301
  N   -1.34058614054628      1.19591883148041      0.12549512517163
  H   -0.89752575215677      2.10348839149804      0.09941991518059
  H   -2.20715268946251      1.15532992374782     -0.38632130393835
  C   1.42887428575370      1.47108335954743      0.33488132593598
  N   1.89908722668039      2.54107209418228      0.49071781909386
  N   1.66766975791365     -0.98444990820672      0.09613440657840
  H   2.14287187547796     -1.11299220404798      0.98165988402527
  H   2.37604057135259     -0.89816076044006     -0.62262307102298
