14
Coordinates from ORCA-job run
  C   -0.50976967951783      0.07405740584737     -0.04781519441520
  C   0.84619213373992      0.06489755377483      0.08828568649969
  C   -1.34928783624385     -1.16425631752572     -0.05300010658498
  H   -1.93383770843437     -1.22121610802448     -0.97691324667249
  H   -0.74062895090053     -2.06420280807605      0.02336905677616
  H   -2.05227256661087     -1.14109178229529      0.78388221732140
  N   -1.18628007468064      1.26816083255153     -0.09245186493250
  H   -0.58028032811455      2.05679151116641     -0.27738324549808
  H   -2.05858225804634      1.26439731609476     -0.59638918009309
  C   1.57173823534089     -1.15346253610457      0.24281611031464
  N   2.21839199334257     -2.13189438223052      0.36015403260735
  N   1.54226776166472      1.32153918292019      0.08597561489102
  H   1.90354216808708      1.53573616060196      1.00898745296116
  H   2.32980711037380      1.28954397129958     -0.55051733317508
