14
Coordinates from ORCA-job run
  C   -0.39830442792258      0.22257809447693     -0.12031518737308
  C   0.94257379163758     -0.02223276403335     -0.08598918304511
  C   -1.37488776351510     -0.52442435105423      0.73707887075699
  H   -0.99821788407400     -1.50950810689663      1.01168741115566
  H   -2.31763383073342     -0.66588848104476      0.20064777597196
  H   -1.60375093324858      0.03544573432282      1.64903711688840
  N   -0.94493537315465      1.29298297480876     -0.82173190352528
  H   -0.31678857865608      1.73541273972865     -1.47963104444009
  H   -1.84641774622442      1.09837516655896     -1.23154938742877
  C   1.78535318003968      0.69942342620047     -0.99006672492844
  N   2.43051800917183      1.28877544539539     -1.78009699554517
  N   1.61749392313997     -0.86339620596018      0.83743618692029
  H   1.96351543459436     -1.71788856289248      0.42061236585403
  H   1.06148219894541     -1.06965510961036      1.65288069873861
