14
Coordinates from ORCA-job run
  C   -0.50322639704394     -0.01392819649833      0.14973716900350
  C   0.82717279087185      0.26343366057119      0.03090552173080
  C   -1.24269531569354     -0.81433574226138     -0.87517551086386
  H   -0.57435444319484     -1.09016120034322     -1.68599795415565
  H   -1.65171435881113     -1.72381976873846     -0.42186304123430
  H   -2.08133533146508     -0.23249456443148     -1.26729570173867
  N   -1.27679134036994      0.49472769663879      1.16994402274613
  H   -0.78506589883216      0.88155667902625      1.96236925047764
  H   -2.08480017674909     -0.05176067567257      1.41849304802207
  C   1.46328337891225      1.01749930692811      1.06786094519475
  N   1.97840386794113      1.62979447281611      1.93393220225131
  N   1.58891940634967     -0.18275266442435     -1.09670832388904
  H   1.99502478359898      0.60478039000263     -1.58823558150084
  H   2.34817903448583     -0.78253939361330     -0.79796604604385
