14
Coordinates from ORCA-job run
  C   -0.51494660392110      0.05030585779640      0.03514620957399
  C   0.84748204768547      0.08735927596577      0.02239964849946
  C   -1.31318533530989     -1.13309012020747     -0.41358100390088
  H   -0.67584455574466     -1.91460648705324     -0.82454002326524
  H   -2.03314884991539     -0.83697129970675     -1.18334070715822
  H   -1.87625156389625     -1.54372123636605      0.42877653814218
  N   -1.22390286144020      1.09606910854055      0.57275320444862
  H   -0.66488654041531      1.93099651120770      0.68930730213504
  H   -2.14986329924375      1.24086252425307      0.20351390504805
  C   1.61951280783407     -1.02468682283969     -0.42698401003423
  N   2.30228142354635     -1.91027634660904     -0.79961889865600
  N   1.50390462373065      1.27527302160604      0.49291729889877
  H   2.20599584277094      1.57933616905457     -0.17093450343844
  H   1.97185286431906      1.10414984435814      1.37618503970692
