14
Coordinates from ORCA-job run
  C   -0.47332636848893      0.10273784005411     -0.20052857054765
  C   0.86808549345082      0.02914475754134      0.03605987006940
  C   -1.46528915078679     -0.68185053966513      0.59860637017826
  H   -2.01696792212060     -1.36109595259864     -0.05738510520551
  H   -0.95564954169901     -1.25253260561010      1.37027017295664
  H   -2.19205746298371     -0.00860149159315      1.06560429394007
  N   -1.00170764822795      0.82759748065798     -1.24656619921781
  H   -0.39130005494414      1.50395811735090     -1.68256687527138
  H   -1.94360083358069      1.15830946310419     -1.11286999110144
  C   1.74710778977892      0.83037855242781     -0.75982656978831
  N   2.45728281067622      1.50549203479136     -1.41557571236478
  N   1.40403336978255     -0.82852775554740      1.04969935030333
  H   2.01164065863835     -1.52891396763897      0.64114739240775
  H   1.95274886050496     -0.29609593327430      1.71393157364143
