14
Coordinates from ORCA-job run
  C   -0.46755174869755      0.10179594424035     -0.21540694526650
  C   0.86639889525442      0.02442348140633      0.05955979232880
  C   -1.48608101468819     -0.66286691252008      0.56920726498107
  H   -1.00062137359091     -1.22755776263744      1.36058818158771
  H   -2.02858543265785     -1.34481964279139     -0.09131443003658
  H   -2.21692703944589      0.02297578820431      1.01069451423359
  N   -0.96170764166747      0.81025841963082     -1.28925158253243
  H   -1.90340709689056      1.15242308585589     -1.18615080390802
  H   -0.33385298678812      1.47493551117837     -1.71848497784266
  C   1.77257880047715      0.80488389014733     -0.72646795741453
  N   2.50574915185879      1.46235746999958     -1.37479969016683
  N   1.36886847389231     -0.81727401252962      1.10321699402820
  H   1.98352473308248     -1.52820896799985      0.72457581380474
  H   1.90261427986142     -0.27532629218460      1.77203382620343
