14
Coordinates from ORCA-job run
  C   -0.46924127638620      0.10736295987654     -0.20912769942573
  C   0.86522092265878      0.04293219334115      0.06684783420143
  C   -1.46912918551969     -0.75281694792502      0.49669142555394
  H   -2.21890053463330     -0.12968824032271      0.99581715143221
  H   -0.97136726837231     -1.37534197985074      1.23531765349607
  H   -1.99150650716969     -1.38523528889539     -0.22645999635091
  N   -0.97938613938275      0.89566467416330     -1.21823182275546
  H   -0.36834880445338      1.61377322959972     -1.58071776575698
  H   -1.92941092151587      1.20386994633167     -1.08796871192554
  C   1.75200945127687      0.91727356493749     -0.63858010163537
  N   2.46968181691015      1.65091946837148     -1.21893737229597
  N   1.38726008887240     -0.87505663428941      1.03324382201607
  H   1.89919214052062     -0.38202440012005      1.75476490778150
  H   2.02492621719439     -1.53063254521802      0.59734067566477
