14
Coordinates from ORCA-job run
  C   -0.43585536007561      0.01415594907116      0.01842901991382
  C   0.92485076098887      0.07446748452998      0.04280804925854
  C   -1.23142073882988     -1.17137368147575     -0.45073249141118
  H   -0.59477114629151     -2.02529826349562     -0.69267925339847
  H   -1.93597706080887     -1.49179249510290      0.32154449174105
  H   -1.81402649005915     -0.88733965530972     -1.33376343027160
  N   -1.11248497408486      1.16757980422621      0.47921154565497
  H   -0.88479075500508      1.99050945008774     -0.06701368584702
  H   -2.11883477684956      1.05342635275416      0.53837880490297
  C   1.73949002964846     -0.95883140414669     -0.49826628977590
  N   2.46764040008162     -1.79636007174704     -0.88909810170445
  N   1.56225373981226      1.26074259670185      0.48578314714799
  H   2.47636070614458      1.07637875710136      0.87019542159011
  H   0.95656566532874      1.69273517680526      1.17320277219917
