14
Coordinates from ORCA-job run
  C   -0.48429758192425      0.14428500258474     -0.14130067599114
  C   0.86822681922775      0.02734814914842     -0.00772732930125
  C   -1.43694214834003     -0.59916201612076      0.74035216527955
  H   -2.10156866653959     -1.22548637523901      0.13576409222934
  H   -0.88838924198205     -1.22701659603930      1.43734732960075
  H   -2.06069243875576      0.10835501048396      1.29361623299288
  N   -1.06702263014620      1.02315819201119     -1.02867713296923
  H   -0.46993583061991      1.39557474229737     -1.75322622185746
  H   -1.98438994898347      0.76483909407903     -1.35457451310520
  C   1.70929825414565      0.75766242738188     -0.90620170387128
  N   2.38956737748519      1.35629635247524     -1.66054877305193
  N   1.45276305432687     -0.79736177039180      1.00626518071351
  H   2.00751469895065     -0.23979376040276      1.64494068772106
  H   2.06586828315516     -1.48969845226821      0.59297066161040
