14
Coordinates from ORCA-job run
  C   -0.39702321522081      0.11433515112342     -0.21907763830882
  C   0.95036479438011      0.08772990634975     -0.00656623590535
  C   -1.35844400123138     -0.67947721435337      0.61374609065654
  H   -1.80104355983425     -0.06771628047444      1.40735567260365
  H   -2.16919097095907     -1.05123598165859     -0.01668440153626
  H   -0.87094613317136     -1.53665783295070      1.07721037741706
  N   -0.98280155548184      0.83199417737243     -1.25366619869078
  H   -1.89390682763660      1.20719255646500     -1.03673077801371
  H   -0.38333974581760      1.51534895687111     -1.69629696848369
  C   1.78014677460936      0.86739815929438     -0.87257253283346
  N   2.40785510502961      1.51512986738362     -1.63022033516120
  N   1.62818604973713     -0.59328137672124      1.04197372272241
  H   2.04858911600413     -1.46451403780667      0.74421831355834
  H   1.04155416959256     -0.74824605089470      1.84731091197527
