14
Coordinates from ORCA-job run
  C   -0.42076033155920      0.02423246010466      0.00396549415610
  C   0.93965842026842      0.07229334546523     -0.03170290236150
  C   -1.22408464053272     -1.15385311681681     -0.45044054079659
  H   -0.58662802035950     -1.98699724305660     -0.74283282641162
  H   -1.89133515867120     -1.49228707487484      0.34889969042621
  H   -1.84484317086457     -0.87595091898553     -1.30783776389611
  N   -1.15597268795480      1.15601637747088      0.34498110136135
  H   -2.11046773244911      0.96216625478080      0.60648048047821
  H   -0.69738381009114      1.75880985943249      1.01346951957719
  C   1.69220958321814     -1.09058184152827     -0.38557837161684
  N   2.31747041101152     -2.05509297517713     -0.64056478497150
  N   1.69216263485841      1.25390185206528      0.19525005663364
  H   2.09504495968602      1.33608159571762      1.11815288859969
  H   1.19392954343973      2.09026142540222     -0.07124204117820
