14
Coordinates from ORCA-job run
  C   -0.39899487008455      0.12158746555395     -0.20627190731190
  C   0.95490497624322      0.02211375362720     -0.06740250364981
  C   -1.35640058776557     -0.53703429114062      0.74066363343171
  H   -1.74118525755284      0.17656148361611      1.47751824724166
  H   -0.88524310177551     -1.35947399817473      1.27732245357974
  H   -2.20672103015107     -0.93635249354109      0.18309232513184
  N   -0.99941105034758      0.79217882853632     -1.26188038522372
  H   -0.38870812325469      1.39895977739921     -1.79172983521380
  H   -1.87729660965520      1.23365541685208     -1.03392674508559
  C   1.77503863406850      0.68028972073140     -1.03761247430670
  N   2.38936413706930      1.23287569456650     -1.87720909935233
  N   1.65297573706085     -0.62652978661708      0.98960641114641
  H   1.94979524236176     -1.56494570218707      0.75413919937977
  H   1.13188190378338     -0.63288586922217      1.85269068023273
