14
Coordinates from ORCA-job run
  C   -0.42032192682775      0.01781411146527      0.01560559701711
  C   0.93818885128389      0.08462352620104     -0.05174286170782
  C   -1.21837323743889     -1.16712316142353     -0.42965492085206
  H   -1.86615966422379     -1.51742194882257      0.38057268755453
  H   -1.85875619015873     -0.89271462799190     -1.27355651157484
  H   -0.57675262460925     -1.99181113051168     -0.73689237125513
  N   -1.16258244310330      1.13678803089870      0.38098761121298
  H   -2.10665020445253      0.92864872562343      0.66797293995733
  H   -0.69477500585297      1.74646843860164      1.03657720794505
  C   1.69643331255615     -1.06460288150327     -0.43696382063889
  N   2.32727405988885     -2.01759456639247     -0.72001603324777
  N   1.68056663455902      1.27404691701219      0.16930149102200
  H   1.17086955697111      2.10554638690434     -0.09049431765811
  H   2.09203888140819      1.35833217993880      1.08830330222562
