14
Coordinates from ORCA-job run
  C   -0.50692746793809      0.08217711886467     -0.06945397901896
  C   0.84654376958618      0.05145174649669      0.08808000407805
  C   -1.39522530645519     -1.09527664756750      0.18172363786463
  H   -2.10590896798078     -0.86438189304160      0.97979268226234
  H   -0.82323309382109     -1.97813553340250      0.46450163318151
  H   -1.97066123428728     -1.33299016416394     -0.71868664388950
  N   -1.13361788895559      1.26106513158957     -0.38907993638285
  H   -0.49414509071066      1.96631191139538     -0.73099247231904
  H   -2.00186058367627      1.18026422247155     -0.89331063200704
  C   1.52006526847501     -1.12777054171639      0.52466988567372
  N   2.12529986348857     -2.07746466654143      0.87261993003052
  N   1.59404076113802      1.24821389274355     -0.18257122015105
  H   1.97435550215872      1.63719177078678      0.67310289711074
  H   2.37227446897846      1.04834365208516     -0.79939578643306
