14
Coordinates from ORCA-job run
  C   -0.47794470078893      0.11601361742123     -0.18324284044709
  C   0.86763130027224      0.03319127053312      0.02537109624414
  C   -1.45275773850203     -0.72934778023537      0.57364028011483
  H   -0.92697310582317     -1.35293440674714      1.29175942551071
  H   -2.17279343809876     -0.09666292255254      1.10325144870367
  H   -2.01360486228090     -1.36062734457086     -0.12111387310315
  N   -1.02682401732598      0.90926107514072     -1.16733366534703
  H   -0.42751700845129      1.61954449083909     -1.56280480836133
  H   -1.96787179066989      1.22419570815491     -0.99532616932327
  C   1.73149109713955      0.88555859176615     -0.73359327329935
  N   2.43278470468355      1.59813610689111     -1.35847396165927
  N   1.42470125825896     -0.88933598142855      0.96790547918683
  H   1.98156563985861     -0.40118547329886      1.65889934068226
  H   2.02911266172803     -1.55580695191301      0.50206152109807
