14
Coordinates from ORCA-job run
  C   -0.45179634615594      0.08266230270852     -0.24175235917405
  C   0.87394891310980     -0.01683525799870      0.06615733923939
  C   -1.51188330815518     -0.58510232946942      0.57582445300294
  H   -1.06142338213816     -1.23463036946514      1.32133107339777
  H   -2.17388451719248     -1.16701799270767     -0.07342111458261
  H   -2.12109188235821      0.17136489786252      1.08260192650263
  N   -0.90689540671163      0.75393322852598     -1.35411630334546
  H   -0.26097646367532      1.38180976197217     -1.81025130507873
  H   -1.84968217261715      1.10360549757615     -1.30069729001909
  C   1.80866390359335      0.70172452210722     -0.74492759014354
  N   2.54407427115037      1.33471672949990     -1.41493103915130
  N   1.32458018957015     -0.79328887428284      1.18183048015593
  H   1.83033032847627     -0.20884495850706      1.83769520478250
  H   1.95503587310414     -1.52509715782163      0.87565652441364
