14
Coordinates from ORCA-job run
  C   -0.41473870855622      0.17876970646521     -0.13666128310658
  C   0.94204821168945      0.05674880470696     -0.07826248646741
  C   -1.33184349364790     -0.59426558457886      0.76227760440000
  H   -0.87148350829607     -1.51941443603837      1.10848128425374
  H   -2.24920073445925     -0.85842563118024      0.22817311032053
  H   -1.62494817788899      0.00350925023206      1.63078316870011
  N   -1.04524038844837      1.14748258478805     -0.91127024666248
  H   -0.45121083670065      1.60090750371053     -1.59263818544571
  H   -1.92168080129170      0.84791195261747     -1.31184789096540
  C   1.72839448035119      0.78566937353248     -1.02626168237242
  N   2.32828290030997      1.37178808645898     -1.85341069815970
  N   1.67775448515455     -0.65809360843036      0.90339627148763
  H   1.13366188034524     -0.85582286745152      1.72871035311368
  H   2.10020469143874     -1.50576513483239      0.54753068090401
