14

C	-0.530328	-0.00204	-1.397396
C	0.0	0.0	0.0
Cl	-0.004817	1.512982	-2.179324
H	1.089702	0.0	0.0
H	-0.341308	0.887668	0.531745
C	-0.080713	-1.127533	-2.210581
N	0.328986	-2.014088	-2.863374
N	-2.076585	0.050678	-1.45312
O	-2.618567	0.712931	-0.580553
O	-2.628737	-0.507031	-2.391162
N	-0.506836	-1.163023	0.745138
O	-0.142808	-1.281058	1.910448
O	-1.260841	-1.955324	0.161074
F	2.484236	0.0	0.0
