14

C	-0.484482	-0.019582	-1.42816
C	0.0	0.0	0.0
Cl	0.512865	-1.046905	-2.471988
H	1.087306	0.0	0.0
H	-0.359617	0.883338	0.521619
C	-1.895052	-0.371424	-1.600712
N	-3.044143	-0.599106	-1.701501
N	-0.371845	1.418966	-2.012683
O	-0.774723	1.55458	-3.160557
O	0.091471	2.294311	-1.297097
N	-0.468134	-1.169358	0.740856
O	-0.730504	-2.204962	0.120461
O	-0.513872	-1.063249	1.966824
F	2.476547	0.0	0.0
