14

C	-0.435258	-0.108255	-1.430494
C	0.0	0.0	0.0
Cl	-0.109405	1.457591	-2.220494
H	1.089907	0.0	0.0
H	-0.369547	0.909641	0.467057
C	0.239333	-1.156867	-2.190218
N	0.780919	-1.947395	-2.869593
N	-1.965988	-0.313985	-1.571128
O	-2.367169	-1.018161	-2.487024
O	-2.654695	0.291465	-0.762017
N	-0.496057	-1.132335	0.774727
O	-0.47615	-1.034765	1.999339
O	-0.878136	-2.135617	0.158807
F	2.468808	0.0	0.0
