11
Coordinates from ORCA-job run
  C   -0.82521037818860     -0.82051802653177      0.45536422857597
  C   0.17042603200893      0.01179232614439     -0.34807728649417
  H   -0.32189370564324     -1.69923865365233      0.86688030866744
  H   0.54165589526354     -0.59542276048799     -1.18829107539119
  H   -1.21700491704521     -0.22314526418135      1.27897732579414
  H   -1.65014190850168     -1.15977356552739     -0.17285671461088
  N   1.23109233644089      0.49306523917011      0.53772072380764
  H   1.91023745506334      1.03120653157726      0.01227665646920
  H   1.71212970872753     -0.30551754991896      0.93546803642662
  C   -0.50568371241875      1.17444436941241     -0.94361408256948
  N   -1.04660680570673      2.09310735399562     -1.43384812067527
