11
Coordinates from ORCA-job run
  C   -0.72904345944530     -0.87568026114766      0.31883107076798
  C   0.21714888524234      0.06517182398697     -0.43554573233011
  H   -1.10970218849843     -0.38583197322550      1.21814463744944
  H   0.57524097829597     -0.44005841366484     -1.33894255040464
  H   -0.18638809411128     -1.77651123508952      0.61596419350931
  H   -1.57957116266913     -1.17030269383978     -0.30042421251483
  N   1.39884599338664      0.50165774671854      0.30511391472466
  H   1.11545245374967      0.93672458136905      1.17602010119927
  H   1.96575493509564     -0.30655067293580      0.53375379005876
  C   -0.52164201309865      1.25690337237991     -0.88275196129358
  N   -1.14709632794748      2.19447772544863     -1.20916325116625
