11
Coordinates from ORCA-job run
  C   -0.82822854617487     -0.91013690315181      0.34438597308037
  C   0.21932407874752     -0.06669619366359     -0.37535174054187
  H   -1.21142723591205     -0.37616717456732      1.21743526525048
  H   0.58259946288034     -0.62029942985152     -1.24657726536978
  H   -0.36214605689168     -1.83772070943264      0.67802928656950
  H   -1.66890799128964     -1.13895387184973     -0.31254825637770
  N   1.36216394880871      0.16211992516598      0.50265820702922
  H   2.08070552827718      0.68466314681556      0.01548764795444
  H   1.07198198461099      0.71815193245992      1.29925873422355
  C   -0.39247836971174      1.18428391720808     -0.87911493288032
  N   -0.85458680334477      2.20075536086708     -1.24366291893788
