11
Coordinates from ORCA-job run
  C   -0.70532075676703     -0.86584967097910      0.39067589843943
  C   0.18999050397699      0.05168177683140     -0.44953577307108
  H   -1.58972901829153     -1.18274975727642     -0.16681137127283
  H   0.49422745453989     -0.48115133428313     -1.35687396566846
  H   -1.03421484904054     -0.34672501657819      1.29390522145192
  H   -0.14252040052014     -1.75479136258402      0.68534096280118
  N   1.41269046182027      0.51390677398799      0.20350734050302
  H   1.99803227307352     -0.28511976309519      0.41727998091916
  H   1.18204188968575      0.97085042478888      1.07879740355419
  C   -0.57956791460746      1.22701658010452     -0.88889855529432
  N   -1.22662964386971      2.15293134908327     -1.20638714236221
