11
Coordinates from ORCA-job run
  C   -0.82952758326633     -0.83972073717589      0.41011725047447
  C   0.17692558452163      0.02502682873920     -0.34400384434393
  H   -0.32966506267174     -1.73037693743481      0.79991905094434
  H   0.56661924583159     -0.54993021815078     -1.19842354359451
  H   -1.24007833592653     -0.27370914388900      1.24678031522470
  H   -1.64049978732345     -1.16000591712510     -0.24577192324511
  N   1.21847947567357      0.47872914067014      0.57794300885039
  H   1.90423136413232      1.03924583253493      0.08561813558465
  H   1.69655142047132     -0.33133797169805      0.95528235529505
  C   -0.49382741892780      1.20508798249113     -0.91085426748896
  N   -1.03020890251458      2.13799114103821     -1.37860653770110
