15

C	0.0	0.0	0.0
C	-0.555193	0.086013	-1.411978
Cl	1.815348	0.0	0.0
H	-1.644129	-0.095433	-1.318014
H	-0.320293	-0.966582	0.384177
N	-0.535452	1.047668	0.771027
H	-0.021425	1.910967	0.683767
H	-0.748115	0.795406	1.719419
N	0.067899	-0.960587	-2.279007
O	-0.126712	-2.111821	-1.902141
O	0.735815	-0.619088	-3.25072
N	-0.380846	1.404868	-2.078105
O	-1.043431	1.566747	-3.097868
O	0.389602	2.227031	-1.58656
Br	-3.705398	0.0	0.0
