17

C	-0.416624	0.016634	-1.46831
C	0.0	0.0	0.0
Cl	-2.220576	-0.214917	-1.647705
H	1.102716	0.0	0.0
C	-0.124109	1.314911	-2.08057
N	0.099991	2.356705	-2.576333
C	0.306641	-1.093154	-2.209624
H	0.011417	-2.039893	-1.759688
H	1.381554	-0.946335	-2.053173
H	0.060287	-1.082224	-3.273203
N	-0.39936	-1.250471	0.607939
H	-1.248733	-1.096859	1.139153
H	0.345135	-1.542352	1.230536
N	-0.546479	1.145403	0.739195
H	-0.368763	1.994922	0.20838
H	0.045169	1.228659	1.563138
H	2.856561	0.0	0.0
