17

C	-0.589375	0.14406	-1.415633
C	0.0	0.0	0.0
Cl	0.100455	1.609161	-2.192789
H	1.106171	0.0	0.0
C	-0.223844	-1.003042	-2.251319
N	-0.018329	-1.95354	-2.911555
C	-2.106056	0.283591	-1.395472
H	-2.348837	1.166777	-0.80511
H	-2.498232	0.3982	-2.408077
H	-2.537536	-0.600655	-0.922934
N	-0.485447	-1.279101	0.56771
H	-0.165751	-2.028623	-0.043935
H	0.080916	-1.398791	1.406342
N	-0.446716	1.103963	0.824143
H	-1.151363	0.772485	1.472799
H	0.35548	1.44805	1.340159
H	2.868824	0.0	0.0
