17

C	-0.385181	0.100704	-1.472304
C	0.0	0.0	0.0
Cl	-2.214907	-0.003658	-1.664992
H	1.110116	0.0	0.0
C	-0.023542	1.417246	-2.005783
N	0.248449	2.469205	-2.453127
C	0.262375	-1.007329	-2.278066
H	1.343496	-0.935565	-2.106519
H	-0.094949	-1.956484	-1.883679
H	0.032591	-0.91758	-3.341383
N	-0.412692	-1.296219	0.518923
H	0.354036	-1.619785	1.103794
H	-1.213343	-1.145933	1.12511
N	-0.449975	1.125604	0.808268
H	0.337298	1.751736	0.923007
H	-1.197918	1.638344	0.360603
H	2.807383	0.0	0.0
