17

C	-0.585255	-0.010553	-1.419981
C	0.0	0.0	0.0
Cl	0.032621	1.405239	-2.347974
H	1.100957	0.0	0.0
C	-0.168792	-1.215043	-2.145088
N	0.072438	-2.170139	-2.785594
C	-2.107056	0.064573	-1.410905
H	-2.503059	-0.809733	-0.888218
H	-2.400895	0.98146	-0.898157
H	-2.501427	0.077734	-2.429029
N	-0.378852	-1.26692	0.624499
H	-1.144762	-1.14705	1.276883
H	0.432459	-1.596458	1.141538
N	-0.410941	1.216177	0.689704
H	0.410451	1.575355	1.168284
H	-1.119785	1.018659	1.385523
H	2.805122	0.0	0.0
