17

C	-0.48192	0.057524	-1.456652
C	0.0	0.0	0.0
Cl	-0.149249	-1.515907	-2.292705
H	1.101229	0.0	0.0
C	-1.931352	0.266339	-1.518717
N	-3.086122	0.476747	-1.571519
C	0.279997	1.146494	-2.198365
H	0.040184	2.10431	-1.738348
H	0.009403	1.157889	-3.25667
H	1.347947	0.948691	-2.071001
N	-0.576899	-1.149147	0.706231
H	-0.099268	-1.171997	1.603994
H	-0.276092	-1.994641	0.228607
N	-0.411364	1.242409	0.629801
H	-1.257124	1.08066	1.168126
H	0.336942	1.548243	1.242457
H	2.921963	0.0	0.0
