16

C	-0.150734	-0.391181	-1.481136
C	0.0	0.0	0.0
Cl	-0.505293	1.220266	-2.622104
H	1.095109	0.0	0.0
H	-1.062066	-0.933298	-1.727062
N	1.014777	-1.026966	-1.84311
H	1.105735	-1.272384	-2.81705
H	1.862538	-0.646612	-1.364041
N	-0.499372	-1.170446	0.758661
H	-0.868793	-0.851001	1.649455
H	0.314692	-1.73946	0.965736
C	-0.658296	1.27755	0.451252
H	-0.468916	1.420786	1.520423
H	-1.74207	1.248032	0.2865
H	-0.254838	2.1352	-0.082042
F	2.785906	0.0	0.0
