16

C	-0.566575	0.020668	-1.402095
C	0.0	0.0	0.0
Cl	0.137735	-1.42875	-2.351047
H	1.098817	0.0	0.0
H	-0.17884	0.870839	-1.963735
N	-1.987265	-0.007148	-1.39687
H	-2.360026	-0.195993	-2.317992
H	-2.256664	-0.746421	-0.754748
N	-0.544152	-1.19999	0.685399
H	-0.429743	-1.043472	1.681767
H	0.100177	-1.953428	0.461282
C	-0.447381	1.250591	0.742139
H	-1.526758	1.266576	0.927799
H	0.093198	1.300933	1.693371
H	-0.174787	2.145382	0.175282
F	2.707502	0.0	0.0
