16

C	-0.163406	-0.122287	-1.520974
C	0.0	0.0	0.0
Cl	-0.345142	1.616191	-2.337198
H	1.105171	0.0	0.0
H	-1.110736	-0.567928	-1.834842
N	0.961659	-0.816305	-1.971544
H	1.821638	-0.518043	-1.462022
H	1.05816	-0.873684	-2.973861
N	-0.538571	-1.271239	0.547041
H	-0.257353	-1.29423	1.524442
H	0.015694	-2.00078	0.105188
C	-0.663198	1.170573	0.67859
H	-0.536554	1.078617	1.763155
H	-0.20817	2.109158	0.366779
H	-1.73622	1.202527	0.461178
F	2.790242	0.0	0.0
