16

C	-0.246045	-0.097371	-1.514386
C	0.0	0.0	0.0
Cl	-0.433427	1.555827	-2.281259
H	1.094843	0.0	0.0
H	-1.190388	-0.600214	-1.740961
N	0.852844	-0.783866	-2.152309
H	0.704707	-1.769369	-1.960556
H	1.698304	-0.519799	-1.619509
N	-0.382767	-1.331022	0.518639
H	-1.240523	-1.265841	1.056403
H	0.356495	-1.627224	1.144909
C	-0.634467	1.144078	0.760089
H	-1.728988	1.150263	0.651756
H	-0.394553	1.041427	1.824085
H	-0.255459	2.107996	0.421037
F	2.730968	0.0	0.0
