16

C	-0.124679	0.080136	-1.506999
C	0.0	0.0	0.0
Cl	-1.811088	0.63137	-2.085312
H	1.099792	0.0	0.0
H	-0.08598	-0.93826	-1.903671
N	0.88183	0.977927	-1.993936
H	1.729333	0.774213	-1.429203
H	1.07622	0.7898	-2.968009
N	-0.53423	-1.255708	0.513649
H	-1.470915	-1.108214	0.875852
H	0.05092	-1.546765	1.286578
C	-0.48009	1.249127	0.716258
H	-1.575374	1.308119	0.740302
H	-0.104179	1.24714	1.744379
H	-0.098799	2.139121	0.211233
F	2.728824	0.0	0.0
