16

C	-0.240222	-0.2159	-1.506785
C	0.0	0.0	0.0
Cl	-0.620879	1.367831	-2.38083
H	1.09656	0.0	0.0
H	-1.135561	-0.815322	-1.685151
N	0.907434	-0.829105	-2.112785
H	1.732519	-0.560099	-1.548629
H	0.795563	-1.831706	-2.023075
N	-0.379289	-1.285223	0.621766
H	-1.246477	-1.182822	1.140532
H	0.352085	-1.525686	1.281788
C	-0.627858	1.202905	0.669007
H	-0.250973	2.13648	0.251143
H	-0.380444	1.184233	1.735466
H	-1.722428	1.203263	0.566131
F	2.738882	0.0	0.0
