16

C	-0.09298	-0.388196	-1.492573
C	0.0	0.0	0.0
Cl	-0.734765	1.267219	-2.669795
H	1.097829	0.0	0.0
H	-0.956232	-0.972555	-1.817272
N	1.113989	-0.844328	-1.884259
H	1.224204	-1.18459	-2.823831
H	1.955777	-0.504668	-1.329966
N	-0.449592	-1.127949	0.825301
H	0.203984	-1.890194	0.68077
H	-1.365291	-1.445019	0.517297
C	-0.647357	1.289263	0.436954
H	-0.473963	1.406473	1.510349
H	-1.728806	1.287217	0.254154
H	-0.222734	2.137884	-0.096421
F	2.796033	0.0	0.0
