15

C	0.0	0.0	0.0
C	-0.591611	0.213249	-1.386002
Cl	1.784015	0.0	0.0
H	-1.680086	0.172117	-1.206806
H	-0.299409	-0.993805	0.339636
C	-0.486422	1.05666	0.974643
H	-0.073919	0.867443	1.968528
H	-0.175005	2.042946	0.632229
H	-1.576761	1.012293	1.01554
C	-0.236246	-0.894762	-2.292929
N	0.038959	-1.753417	-3.046616
N	-0.250456	1.522484	-1.932039
H	0.640682	1.481514	-2.410764
H	-0.961807	1.795778	-2.597854
Br	-3.90906	0.0	0.0
