15

C	0.0	0.0	0.0
C	-0.583094	-0.132957	-1.402795
Cl	1.784715	0.0	0.0
H	-1.673352	-0.153017	-1.22767
H	-0.300055	-0.882902	0.567958
C	-0.497896	1.257846	0.683248
H	-1.590256	1.230897	0.694247
H	-0.156018	2.135964	0.135251
H	-0.12528	1.299392	1.708951
C	-0.203386	-1.417774	-2.017495
N	0.117642	-2.413376	-2.553246
N	-0.266162	1.014656	-2.241547
H	-1.005053	1.144189	-2.920835
H	0.606523	0.868719	-2.735713
Br	-3.912558	0.0	0.0
