15

C	0.0	0.0	0.0
C	-0.558275	0.157984	-1.409457
Cl	1.793819	0.0	0.0
H	-1.651084	0.12827	-1.261955
H	-0.30182	-0.980987	0.370764
C	-0.498873	1.091202	0.923943
H	-0.121572	0.926393	1.935564
H	-1.590752	1.054148	0.930957
H	-0.166145	2.064634	0.564523
C	-0.182158	-0.9879	-2.259644
N	0.113656	-1.866645	-2.982137
N	-0.194915	1.441883	-1.994298
H	0.74594	1.400439	-2.367915
H	-0.832405	1.654835	-2.750795
Br	-3.89445	0.0	0.0
