17

C	-0.434713	-0.015243	-1.462303
C	0.0	0.0	0.0
Cl	0.248015	1.407796	-2.275577
H	1.107833	0.0	0.0
C	0.023263	-1.213954	-2.157507
N	0.375398	-2.170275	-2.741388
N	-1.965257	0.085259	-1.669265
O	-2.527411	0.969603	-1.039642
O	-2.482875	-0.680657	-2.467788
N	-0.477029	-1.247	0.65904
O	0.029912	-1.542196	1.732507
O	-1.400535	-1.863801	0.112933
C	-0.41714	1.172808	0.878589
H	-1.473558	1.142375	1.141351
H	0.19878	1.117815	1.775169
H	-0.198078	2.111453	0.371041
Cl	3.193738	0.0	0.0
