17

C	-0.46515	-0.369629	-1.412895
C	0.0	0.0	0.0
Cl	0.271392	0.710551	-2.589885
H	1.109244	0.0	0.0
C	-0.20995	-1.746735	-1.824719
N	-0.0414	-2.82038	-2.268885
N	-2.00406	-0.183472	-1.437025
O	-2.455318	0.893392	-1.79122
O	-2.633299	-1.132177	-0.977514
N	-0.433651	-1.075689	0.954426
O	0.111692	-2.170386	0.840892
O	-1.280828	-0.79215	1.802865
C	-0.483828	1.355322	0.468194
H	-0.000756	1.567751	1.420088
H	-1.563245	1.401855	0.604075
H	-0.170795	2.115219	-0.245864
Cl	3.199365	0.0	0.0
