17

C	-0.41747	-0.000716	-1.470664
C	0.0	0.0	0.0
Cl	0.155378	1.496297	-2.2427
H	1.092593	0.0	0.0
C	0.139369	-1.136482	-2.20021
N	0.588895	-2.038417	-2.805093
N	-1.946314	-0.015967	-1.688014
O	-2.587484	0.771534	-1.007893
O	-2.38982	-0.769398	-2.54227
N	-0.457646	-1.268962	0.631583
O	-1.241224	-1.986743	0.002119
O	-0.054924	-1.49205	1.764539
C	-0.429726	1.158879	0.888399
H	-1.485904	1.11693	1.150316
H	-0.220373	2.103934	0.390941
H	0.184061	1.104898	1.787335
Cl	3.196689	0.0	0.0
