17

C	-0.423509	6.2e-05	-1.462773
C	0.0	0.0	0.0
Cl	0.200626	1.449764	-2.261494
H	1.091694	0.0	0.0
C	0.075	-1.178945	-2.16501
N	0.516945	-2.105625	-2.738533
N	-1.963854	0.016649	-1.616785
O	-2.493832	-1.057463	-1.874197
O	-2.520478	1.065989	-1.330132
N	-0.410037	-1.346191	0.535713
O	-1.600777	-1.495911	0.843612
O	0.485653	-2.153702	0.774435
C	-0.570029	1.104704	0.858746
H	-0.299662	2.076666	0.444726
H	-1.654279	1.046155	0.957104
H	-0.116109	1.023985	1.850301
Cl	2.68957	0.0	0.0
