15
Coordinates from ORCA-job run
  C   -1.11656742246608     -0.71759309964395     -0.09003622286257
  C   0.26943316206373     -0.22860889827863     -0.49273752085008
  F   -1.09072385675576     -2.08388436363122      0.14804117653755
  H   0.52778901345743     -0.81059319090709     -1.38605210968559
  H   -1.83526276046832     -0.54540341942852     -0.89786324850223
  C   -1.60027562789380     -0.03823704209455      1.12408781516593
  N   -1.96572457697973      0.53138960458411      2.08283302485769
  C   1.29429889870944     -0.51344514298629      0.59955927543502
  H   1.30113463255346     -1.57068791707633      0.86873403241116
  H   1.07851789070617      0.07034303391033      1.49869878616983
  H   2.29529337232709     -0.24319631028005      0.25557704718071
  C   0.21487876566921      1.25246760601003     -0.85795182906010
  H   1.18603947528485      1.58254112505726     -1.23276649378362
  H   -0.03087055407884      1.86278704337024      0.01528219872426
  H   -0.52796041212885      1.45312097139466     -1.63540593173795
