15
Coordinates from ORCA-job run
  C   -1.21501191070507     -0.30941469076344      0.11521908176956
  C   0.11983660805096      0.42332651231622      0.02423983703149
  F   -1.16045903024721     -1.48889283038286     -0.61516271738102
  H   0.00586780142391      1.33438357789319      0.62590171622657
  H   -2.01844475166558      0.29675302365307     -0.31615805358296
  C   -1.56775283140886     -0.63660958335710      1.50640708716691
  N   -1.83423689816175     -0.86584888765190      2.62599940903866
  C   0.39037788359945      0.81512845280675     -1.42666956837091
  H   0.48481682120219     -0.07433994933651     -2.05256480574956
  H   -0.41297950692874      1.43612419116127     -1.83260794017048
  H   1.32123039355663      1.38161334182851     -1.49877405531685
  C   1.25223383062466     -0.41969840573429      0.60448753695728
  H   1.08542201385436     -0.65137364407482      1.65897367761099
  H   1.34743591452231     -1.35969310427892      0.05700808979077
  H   2.19966366228274      0.11754199592083      0.52370070497954
