15
Coordinates from ORCA-job run
  C   -1.11965811448612     -0.71243388690568     -0.09263007371577
  C   0.26227969197993     -0.21720243896064     -0.50144777273545
  F   -1.09510125066134     -2.08522674265743      0.10563390939105
  H   0.50853406162071     -0.78081528595098     -1.40982363098088
  H   -1.84993746206951     -0.51464591922099     -0.88398424385262
  C   -1.58229394496062     -0.06744233065479      1.14779817317925
  N   -1.93098885986967      0.47492326117173      2.12818456205805
  C   1.29925464343330     -0.52691992270723      0.57265198054251
  H   1.10116417887787      0.04651358964909      1.48256585518355
  H   2.29813142750972     -0.26149967901887      0.21863134977831
  H   1.29961248701633     -1.58790068078863      0.82728038588825
  C   0.20656482228614      1.27123322617381     -0.83478298406832
  H   -0.03638887096962      1.86299908195647      0.05186627574844
  H   1.17646932219997      1.60952681200996     -1.20540324998154
  H   -0.53864213190709      1.48789091590416     -1.60554053643482
