11
Coordinates from ORCA-job run
  C   -0.29488142730152      0.03691865631784     -0.05222615969766
  C   1.02086820882961     -0.67931155484952     -0.30873092869394
  Br  -1.41357973330040     -0.18123786798001     -1.74354242909997
  H   1.54781027259396     -0.19259756305196     -1.13186593690943
  H   0.85002011662250     -1.72184534901368     -0.57205061115185
  H   1.62859151439113     -0.61979207378503      0.59676091867464
  N   -0.08442926081426      1.38840238808348      0.30295005606553
  H   0.45686294166914      1.87447672579304     -0.40101473827766
  H   -0.94903107013890      1.88546117064332      0.47472814451179
  C   -1.07808773569841     -0.63092541920304      0.98850116003330
  N   -1.68414382685284     -1.15854911295443      1.84549052454524
