11
Coordinates from ORCA-job run
  C   -0.38867455082836     -0.00521195940839     -0.17815964059117
  C   1.02562952363866     -0.58087858057626     -0.19378714277382
  Br  -1.22919403178880     -0.44548069347326     -1.91008654599321
  H   1.50815512476964     -0.35340049038663      0.76135823868269
  H   1.01748478135599     -1.66150961566411     -0.34128392498089
  H   1.59564771698942     -0.11759951090758     -1.00156301564761
  N   -0.48865975351105      1.42474025902392     -0.00391925881722
  H   0.10267946318495      1.89652114604039     -0.67871597726531
  H   -0.19564996255512      1.67915695788160      0.93355233081199
  C   -1.18451285300273     -0.65675819462419      0.86683555794802
  N   -1.76490545825261     -1.17857931790552      1.74476937862652
