11
Coordinates from ORCA-job run
  C   -0.29290079873680      0.02169159210624     -0.06922181393479
  C   1.06811448922779     -0.63689959680027     -0.22376298261222
  Br  -1.29879261437793     -0.31196098150373     -1.81411028818433
  H   1.61859785140058     -0.15348015982053     -1.03325144656719
  H   0.96259598173166     -1.69509546666903     -0.45701332465076
  H   1.61804878003343     -0.51594127817504      0.71207757479506
  N   -0.16930909303825      1.39312347455044      0.24492468745775
  H   0.38775203826875      1.88194447932876     -0.44498626947546
  H   -1.06504467708740      1.85196333926888      0.35092755832563
  C   -1.10316778701430     -0.64931367355103      0.94830728875369
  N   -1.72689417040754     -1.18703172873467      1.78610901609263
