11
Coordinates from ORCA-job run
  C   -0.39765203066595      0.01444611081318     -0.15373464635656
  C   0.98762490917953     -0.61487612377476     -0.28184883288952
  Br  -1.36270155643289     -0.32470560491204     -1.84348840937084
  H   1.52434964926108     -0.14305494255677     -1.10731411627686
  H   1.53874533256312     -0.44393631421044      0.64764894917427
  H   0.92590083020061     -1.68773370807874     -0.46822113984534
  N   -0.42701089080979      1.43945498333429      0.07889612504121
  H   0.14528743604454      1.91279804432382     -0.61114525788159
  H   -0.07028449863837      1.64419169663521      1.00643956296068
  C   -1.15360071093105     -0.64376898759699      0.91605931298364
  N   -1.71165846977083     -1.15281515397676      1.81570845246091
