11
Coordinates from ORCA-job run
  C   -0.39393012341694      0.00740090165468     -0.16707924555112
  C   1.01016742207160     -0.58748861081559     -0.24706826910002
  Br  -1.29026098889244     -0.34885563591205     -1.88982950098511
  H   1.52303825110650     -0.40689251186994      0.70226521490884
  H   0.98118722327509     -1.66081898766073     -0.43873691831719
  H   1.56422693635925     -0.09924811974612     -1.05128667812584
  N   -0.46607244484887      1.43051018573785      0.06809868570267
  H   -0.14127399149412      1.64132414023457      1.00590025801892
  H   0.11325355275382      1.92061388535259     -0.60404540477489
  C   -1.16970802840781     -0.67404646090279      0.87411502754021
  N   -1.73162780850608     -1.22249878607249      1.74766683068353
