12
Coordinates from ORCA-job run
  C   0.57164260470482     -0.03157157061129     -0.54730261666626
  C   -0.57253710849185      0.17142979072154      0.43468386193916
  H   0.89321636221585      0.92792492870066     -0.95153797097592
  H   -0.78003832425623     -0.77890724673290      0.94717175765927
  H   0.31081762988296     -0.71603394124080     -1.35278475723981
  H   -0.25154675590266      0.88888420703364      1.19059989363420
  N   1.74041526115113     -0.63175887306832      0.15533135834614
  O   2.14657789786594     -1.72652918326563     -0.22909167019411
  O   2.20603255547882      0.01379954616236      1.09276272965026
  N   -1.70475405206716      0.72446263077940     -0.30152954039782
  H   -2.35001986869727      1.17204514954645      0.33533538223269
  H   -2.20980620188435     -0.01474543802511     -0.77363842798779
