12
Coordinates from ORCA-job run
  C   0.52532858752829     -0.73713107899246      0.30422360741256
  C   -0.86097773497501     -0.33635924892980     -0.14364293935046
  H   0.80803667281195     -1.73765223705754     -0.03221082268036
  H   -1.54975214434133     -1.07514585392667      0.27688207686128
  H   0.62429711531096     -0.67362593376761      1.38688479036743
  H   -0.92799854985303     -0.40538399757074     -1.23606865962661
  N   1.58194099011706      0.17616391827021     -0.24509282328721
  O   2.69182398415288      0.09634121762475      0.26950366037955
  O   1.28378310809689      0.91411040630595     -1.18343511274590
  N   -1.19497624705258      0.97593413813628      0.40016003616263
  H   -0.78452451087088      1.69094341626268     -0.18636497166076
  H   -2.19698127092520      1.11180525364496      0.39116115816785
