14

C	-0.578706	0.003609	-1.408297
C	0.0	0.0	0.0
Cl	0.144005	-1.270396	-2.381788
H	1.089861	0.0	0.0
H	-1.656566	-0.134597	-1.399726
N	-0.338946	1.331602	-2.079587
O	0.690036	1.932461	-1.803221
O	-1.209324	1.682031	-2.874249
N	-0.502493	-1.268692	0.663302
O	-1.707933	-1.498496	0.556232
O	0.312389	-1.956468	1.259252
C	-0.539635	1.121788	0.757999
N	-1.001652	2.026475	1.348422
Cl	3.209368	0.0	0.0
