14

C	-0.590363	0.074806	-1.400142
C	0.0	0.0	0.0
Cl	-2.352725	-0.007052	-1.375177
H	1.094264	0.0	0.0
H	-0.29619	1.028465	-1.836606
N	-0.011642	-0.962509	-2.358426
O	-0.709205	-1.891035	-2.735047
O	1.139354	-0.714047	-2.689577
N	-0.402964	-1.265928	0.696571
O	-0.786606	-1.19525	1.858873
O	-0.259244	-2.290866	0.039429
C	-0.45319	1.156944	0.76027
N	-0.796049	2.130975	1.320018
Cl	3.114848	0.0	0.0
