14

C	-0.596367	-0.000133	-1.401804
C	0.0	0.0	0.0
Cl	0.130951	-1.261405	-2.389615
H	1.089932	0.0	0.0
H	-1.673508	-0.15101	-1.379348
N	-0.38371	1.34075	-2.061354
O	0.647561	1.944515	-1.800229
O	-1.270295	1.690271	-2.838485
N	-0.494737	-1.264902	0.673652
O	-1.703503	-1.481563	0.600088
O	0.329128	-1.960012	1.247424
C	-0.535183	1.12548	0.756753
N	-0.982425	2.036961	1.348035
Cl	3.20932	0.0	0.0
