14

C	-0.576641	-0.057081	-1.414801
C	0.0	0.0	0.0
Cl	0.447158	-0.95292	-2.520183
H	1.092514	0.0	0.0
H	-1.569393	-0.498544	-1.419698
N	-0.763268	1.354148	-1.923309
O	-1.932477	1.729106	-2.009291
O	0.236126	2.011118	-2.175538
N	-0.382427	-1.254974	0.749978
O	-0.155893	-1.25066	1.952025
O	-0.847157	-2.191701	0.105277
C	-0.507124	1.135375	0.754773
N	-0.936357	2.057176	1.343787
Cl	3.108602	0.0	0.0
