15

C	0.0	0.0	0.0
C	-0.481985	0.019193	-1.448529
F	1.41783	0.0	0.0
H	-1.591301	0.088116	-1.281838
C	-0.358316	1.292449	0.63745
N	-0.50611	2.331219	1.162619
N	-0.51532	-1.066451	0.780193
H	-0.35108	-1.934843	0.278074
H	-1.549356	-0.878779	0.749088
C	-0.170808	-1.267767	-2.086304
N	0.090652	-2.265949	-2.651805
N	0.020866	1.170259	-2.173985
H	0.984575	1.024064	-2.445961
H	-0.53632	1.32532	-3.003758
H	-2.89666	0.0	0.0
