15

C	0.0	0.0	0.0
C	-0.650492	-0.115402	-1.339895
F	1.409526	0.0	0.0
H	-1.903826	-0.088552	-0.834617
C	-0.372621	1.307241	0.621138
N	-0.598306	2.324324	1.167476
N	-0.421486	-1.070271	0.829598
H	-0.125694	-1.949242	0.377513
H	0.027678	-0.961772	1.748782
C	-0.343599	-1.373393	-1.951606
N	-0.080741	-2.399077	-2.451165
N	-0.437535	0.985021	-2.245095
H	0.500604	1.448863	-2.143588
H	-1.133465	1.701274	-2.043929
H	-2.787965	0.0	0.0
