15

C	0.0	0.0	0.0
C	-0.539198	0.23094	-1.398965
F	1.410061	0.0	0.0
H	-1.648194	0.242904	-1.191823
C	-0.313577	1.192985	0.846768
N	-0.45072	2.084388	1.599596
N	-0.527337	-1.218226	0.489772
H	-0.296237	-1.311655	1.473899
H	-1.565923	-1.060655	0.424135
C	-0.2122	-0.904225	-2.269004
N	0.05247	-1.725186	-3.068536
N	-0.102405	1.512697	-1.928259
H	-0.743259	1.813381	-2.650269
H	0.824146	1.434082	-2.328104
H	-2.928514	0.0	0.0
