15

C	0.0	0.0	0.0
C	-0.306431	-0.013494	-1.533198
F	1.37851	0.0	0.0
H	0.425612	-0.753482	-1.885821
C	-0.370715	1.279824	0.661766
N	-0.549501	2.294904	1.225944
N	-0.523583	-1.164867	0.621435
H	-1.546888	-1.104989	0.499499
H	-0.344521	-1.104652	1.620256
C	0.125898	1.283718	-2.09467
N	0.427306	2.297214	-2.60853
N	-1.642857	-0.407106	-1.912464
H	-1.922856	0.079629	-2.755867
H	-2.348702	-0.173232	-1.145611
H	-3.195878	0.0	0.0
