15

C	0.0	0.0	0.0
C	-0.52717	-0.004476	-1.425741
F	1.381964	0.0	0.0
H	-1.634994	0.058302	-1.248829
C	-0.330164	1.31762	0.634686
N	-0.462358	2.313414	1.24416
N	-0.541611	-1.118386	0.680209
H	-1.57907	-0.961871	0.581966
H	-0.319265	-1.045625	1.669017
C	-0.202083	-1.276719	-2.082927
N	0.073037	-2.220155	-2.728845
N	-0.047447	1.159387	-2.156201
H	-0.636872	1.315424	-2.963973
H	0.900931	1.003715	-2.476904
H	-2.928895	0.0	0.0
