15

C	0.0	0.0	0.0
C	-0.527632	-0.071047	-1.424814
F	1.383671	0.0	0.0
H	-1.634925	-0.00321	-1.251121
C	-0.329295	1.34696	0.570772
N	-0.47122	2.360047	1.148507
N	-0.541804	-1.08153	0.73534
H	-1.579314	-0.934851	0.62274
H	-0.32742	-0.955329	1.721178
C	-0.197056	-1.371528	-2.021132
N	0.096539	-2.359903	-2.586711
N	-0.052526	1.060247	-2.207464
H	0.890222	0.887587	-2.534066
H	-0.653138	1.186262	-3.012196
H	-2.937678	0.0	0.0
