15

C	0.0	0.0	0.0
C	-0.507925	0.214109	-1.428759
F	1.403229	0.0	0.0
H	-1.613297	0.124019	-1.295565
C	-0.322995	1.213925	0.81385
N	-0.456757	2.162116	1.49553
N	-0.525553	-1.210989	0.501932
H	-0.295002	-1.301789	1.487143
H	-1.563569	-1.055732	0.429091
C	-0.003221	-0.861811	-2.28318
N	0.398962	-1.690694	-3.011852
N	-0.192558	1.509324	-2.01063
H	-0.828796	2.191282	-1.614762
H	0.753387	1.776971	-1.763893
H	-2.906253	0.0	0.0
