18
Coordinates from ORCA-job run
  C   -0.60298394220698      0.18856928485618      0.17969456602925
  C   0.87582883717634     -0.01970052850719     -0.19008765541635
  Cl  -0.72013491224422      1.49637219236376      1.41905622938716
  H   0.85284962513392     -0.70253120691053     -1.05679423568223
  C   -1.20075063511309     -1.06878910873529      0.79075926764137
  H   -2.26893472099598     -0.93051034221612      0.96739051888849
  H   -0.72942641338186     -1.30352104701474      1.74531120333670
  H   -1.07386279846750     -1.91312782817167      0.10375803542544
  C   -1.38972581954329      0.63885381529315     -1.03993665292144
  H   -2.42873804650405      0.83433242714869     -0.76819457706376
  H   -1.37336695536051     -0.14985271645095     -1.79927496492757
  H   -0.94870594783051      1.53983255629413     -1.46235761988338
  N   1.61817162375179     -0.57838666330521      0.94021864866117
  H   1.36616650171011     -1.54827343037315      1.09400306628271
  H   2.60638166939678     -0.55954506768504      0.71680649142301
  N   1.45633034077155      1.21672903197687     -0.66088726655978
  H   2.34429670952339      1.03790236595701     -1.11344313946916
  H   1.61660488418410      1.82564626548013      0.13397808484838
