18
Coordinates from ORCA-job run
  C   -0.59031416732042      0.13581157405169      0.25358853872451
  C   0.87647023711491     -0.15385201254383     -0.10924741332859
  Cl  -0.63544061106054      1.22337125746770      1.69416856772802
  H   0.82254353826606     -0.94305199540207     -0.87880583289682
  C   -1.30193483882056     -1.15356275103472      0.62819397209306
  H   -2.32880678046179     -0.94342791733448      0.93311885577007
  H   -0.77646251056594     -1.65277792903469      1.44020583347045
  H   -1.32845107195732     -1.82332224715832     -0.23762297075640
  C   -1.30663266377947      0.85458599024997     -0.87863233479870
  H   -0.88389443926219      1.84574803118515     -1.04387289482329
  H   -1.22970785671472      0.26678651420993     -1.80034441982840
  H   -2.36451298942766      0.97522478054591     -0.63848187744361
  N   1.56982179879665     -0.73167777501600      1.01892553526701
  H   1.75653321710036     -0.00082261074271      1.69661881933787
  H   2.45280102376792     -1.12891485503594      0.72257994887497
  N   1.53753859129199      1.05666510956961     -0.59753993935973
  H   2.52999348100787      0.86978806592159     -0.68083197198312
  H   1.20245604202485      1.30342877010122     -1.52202041604730
