18
Coordinates from ORCA-job run
  C   -0.61034431397105     -0.01379793808325      0.44818786096218
  C   0.92476357297846     -0.10238167247596      0.33522772311217
  Cl  -0.98789030801348      0.22652742933825      2.19575490166844
  H   1.26113279667050     -0.79080869561271      1.12406209186227
  C   -1.27164509518645     -1.31676663467802      0.02397150621520
  H   -0.82766930729894     -2.17115784258022      0.54303361741842
  H   -2.33494946249884     -1.29382012938137      0.26751532875467
  H   -1.17237570349494     -1.45331453495931     -1.05540555737381
  C   -1.16816005120896      1.16686990399399     -0.32460082046267
  H   -2.25845267221490      1.17550254206700     -0.26681584087521
  H   -0.86783454811247      1.08278380172603     -1.37212811811645
  H   -0.79559308462134      2.10362057905696      0.08949768963151
  N   1.53048770708928      1.18179454877005      0.60235536089393
  H   2.48808133268483      1.07235278547932      0.90854599490232
  H   1.52319280626916      1.74001905145289     -0.24350894561067
  N   1.26442311169503     -0.56940342880217     -1.01633811367077
  H   2.26824614836135     -0.48692160291833     -1.13366141514590
  H   1.03458707087277     -1.55109816239317     -1.12469326416564
