18
Coordinates from ORCA-job run
  C   -0.63016891386549      0.25023406576594      0.33747600000001
  C   0.90271295956456      0.34840050593915      0.20401689740838
  Cl  -1.07537054905322      1.12662749915722      1.85009556828299
  H   1.17040762860509      1.39822254880157      0.39256641396617
  C   -1.09667502633692     -1.18776978787442      0.46732382016537
  H   -2.18688723709618     -1.22914865354013      0.51066341073931
  H   -0.70021229862143     -1.63620766253725      1.37809607113001
  H   -0.75315436915500     -1.75506748426307     -0.40143828377321
  C   -1.33133274208698      0.95922356587429     -0.81174405117911
  H   -0.95167820829681      1.97743009595257     -0.93681921848158
  H   -2.40241138371381      1.02411430629600     -0.61416968498255
  H   -1.18943441803403      0.39997713026815     -1.73946392563498
  N   1.28151931907159     -0.10708824243973     -1.14105830583895
  H   2.29239302416347     -0.17944178014632     -1.17461934720351
  H   1.01143835917688      0.57600759869762     -1.84014776948970
  N   1.55470238953200     -0.44735397382794      1.21843934879334
  H   1.61192855269065     -1.40985053479614      0.90622322173080
  H   2.49122291345566     -0.10930919732751      1.39555983436720
