18
Coordinates from ORCA-job run
  C   -0.60500760248305      0.00783845935030      0.39376239611256
  C   0.91496044013282     -0.18992061632017      0.24406674581849
  Cl  -0.91241047172857      0.49503900113062      2.11777508745807
  H   1.18950974031720     -1.00376288343438      0.93296566399772
  C   -1.33769500702325     -1.30229052040816      0.16848934265575
  H   -2.40823940772108     -1.16911641082270      0.33656575583405
  H   -0.97637565308468     -2.07153802883002      0.85513138328961
  H   -1.16547203191386     -1.63644048779931     -0.85462378391728
  C   -1.13070105557289      1.11141226546335     -0.50522726559202
  H   -2.19657176338964      1.26543052817580     -0.32643768357914
  H   -0.59937355271819      2.04610881718774     -0.33078477925002
  H   -0.99690968237268      0.81571270384231     -1.54914969825981
  N   1.62776431961413      1.05580765389806      0.51190082306356
  H   2.62437172573990      0.87127027619836      0.49325641748552
  H   1.39821159396687      1.40079626516574      1.43691399301969
  N   1.19077316957003     -0.65062303476773     -1.10782238586826
  H   1.34710018283300      0.16449207443320     -1.69080027503336
  H   2.03306505583391     -1.21121606246301     -1.12398173723514
