18
Coordinates from ORCA-job run
  C   -0.92503311901042      0.29368564224546     -0.05604577143797
  C   0.57693994698045      0.44193154540887     -0.12804375440342
  F   -1.52096221543136      1.45481474457378      0.26570224477193
  H   0.72902504612006      1.16818560174632     -0.93417932438153
  N   -1.33593882314545     -0.74358098686707      0.97075843527283
  O   -1.72280138559214     -0.32881450772272      2.05340620198897
  O   -1.18812611644686     -1.90825152612003      0.61993908470201
  N   -1.59562819127755     -0.13871186023164     -1.35531594637990
  O   -0.93960582532075     -0.04646961461294     -2.38598257956688
  O   -2.77297879325615     -0.45800579963976     -1.25035618499691
  C   1.32263940688021     -0.84501357405191     -0.47634780392151
  H   0.94196069829376     -1.31560180354143     -1.38112822179289
  H   1.27354908649554     -1.56722184068234      0.33946994296731
  H   2.37327675417279     -0.59655144250153     -0.64147212892093
  C   1.08838623284290      1.03765311305605      1.18637933295742
  H   0.97039229627526      0.33375057402577      2.01365115229752
  H   2.15311054051490      1.25610108859164      1.08470841820039
  H   0.57279446090481      1.96210064632350      1.44585690264357
