18
Coordinates from ORCA-job run
  C   -0.86302582312304     -0.29215618878402     -0.32045545305328
  C   0.61328891570436      0.04004741429810     -0.35192866633919
  F   -1.18090383733093     -1.14284910925101     -1.30691315439358
  H   0.77012850159684      0.25830076160009     -1.41584173607806
  N   -1.68744849800087      0.97260524297584     -0.53581182532147
  O   -2.21530744668312      1.47921395854120      0.44563668478285
  O   -1.68100887081256      1.39169909373162     -1.68457300957801
  N   -1.38180420589241     -0.90080034069450      0.97334156894843
  O   -0.78536383120240     -0.61035682971321      2.00262170499041
  O   -2.37076444062031     -1.61283961500005      0.86526881364516
  C   1.44610811569570     -1.18784393290928      0.01795131725167
  H   2.48493284267228     -1.01556095265485     -0.27013391545275
  H   1.10007915220387     -2.08152279034578     -0.50579431690754
  H   1.41711662226515     -1.37210059130024      1.09237607898266
  C   0.99810717514193      1.28271096876315      0.44753524314504
  H   0.47864971835974      2.17418065624314      0.08949639527337
  H   0.79064069908631      1.15726379211009      1.50857078679328
  H   2.06857521093945      1.45900846238971      0.32165348331101
