15

C	-0.299722	0.032208	-1.495204
C	0.0	0.0	0.0
Cl	-2.098407	0.092219	-1.79546
H	1.095613	0.0	0.0
H	-0.358025	-0.928899	0.448201
N	0.277562	1.241406	-2.02488
H	1.242137	1.293291	-1.698766
H	0.283338	1.206112	-3.037844
C	0.22013	-1.249038	-2.13432
H	0.054188	-1.221775	-3.214532
H	-0.279697	-2.132151	-1.729424
H	1.293087	-1.313426	-1.929911
C	-0.527703	1.141703	0.732237
N	-0.950031	2.044137	1.352745
Cl	3.343392	0.0	0.0
