15

C	-0.305339	-0.013042	-1.504357
C	0.0	0.0	0.0
Cl	-2.105214	-0.022344	-1.757116
H	1.096868	0.0	0.0
H	-0.368466	-0.899589	0.498869
N	0.224402	1.141536	-2.196362
H	1.234092	1.127167	-2.052009
H	-0.128791	1.986976	-1.757719
C	0.27936	-1.27029	-2.118375
H	0.101751	-1.262156	-3.194063
H	1.354514	-1.282945	-1.916217
H	-0.173355	-2.161626	-1.680489
C	-0.511553	1.18893	0.663923
N	-0.936814	2.154696	1.179227
Cl	3.345092	0.0	0.0
