15

C	-0.436317	-0.02985	-1.458814
C	0.0	0.0	0.0
Cl	-2.349905	0.003966	-1.463934
H	1.090511	0.0	0.0
H	-0.341064	0.928743	0.468181
N	0.08353	1.087969	-2.124917
H	-0.219254	1.150952	-3.085949
H	-0.069442	1.958247	-1.63746
C	-0.039439	-1.312176	-2.15449
H	-0.514378	-2.172911	-1.684682
H	-0.333181	-1.282082	-3.206799
H	1.047935	-1.398519	-2.076335
C	-0.519244	-1.122848	0.769046
N	-0.956882	-2.016413	1.391593
Cl	3.36948	0.0	0.0
