17

C	-0.474867	0.06519	-1.444852
C	0.0	0.0	0.0
Cl	0.047484	-1.544695	-2.231096
H	1.092972	0.0	0.0
H	-0.338579	-0.944491	0.440594
N	-1.896655	0.206521	-1.528781
H	-2.343609	-0.555174	-1.029798
H	-2.192667	0.160568	-2.497093
C	0.225382	1.150131	-2.23922
H	1.30553	1.041535	-2.128957
H	-0.041063	1.087843	-3.298196
H	-0.084496	2.126264	-1.85859
C	-0.489246	1.177366	0.842237
H	-0.107668	1.067094	1.860459
H	-1.579045	1.242078	0.876177
H	-0.101754	2.123593	0.458702
Cl	3.607387	0.0	0.0
