17

C	-0.488807	0.094758	-1.44651
C	0.0	0.0	0.0
Cl	-0.194041	-1.492319	-2.277936
H	1.094247	0.0	0.0
H	-0.301961	0.951935	0.461595
N	-1.91687	0.356546	-1.610349
H	-2.112331	1.24937	-1.162284
H	-2.441251	-0.352974	-1.108704
C	0.308301	1.151683	-2.186295
H	0.125405	2.128518	-1.722357
H	1.374287	0.934239	-2.105057
H	-0.002195	1.190364	-3.231704
C	-0.543891	-1.154134	0.828204
H	-0.199856	-1.053713	1.860613
H	-1.640097	-1.183594	0.843585
H	-0.178018	-2.108948	0.449885
Cl	3.581576	0.0	0.0
