17

C	-0.398377	-0.02598	-1.462975
C	0.0	0.0	0.0
Cl	-2.246109	-0.601704	-1.523862
H	1.09579	0.0	0.0
H	-0.32322	-0.942431	0.449589
N	-0.278071	1.23137	-2.080566
H	-0.529492	1.194666	-3.059152
H	-0.820698	1.943572	-1.612763
C	0.369954	-1.080503	-2.228216
H	0.061385	-1.108074	-3.277314
H	0.200916	-2.064405	-1.790694
H	1.432725	-0.834909	-2.147817
C	-0.535391	1.179509	0.796978
H	-0.078682	2.114064	0.462831
H	-1.624882	1.259554	0.725613
H	-0.270891	1.06058	1.849848
Cl	3.585681	0.0	0.0
