17

C	-0.396002	-0.059032	-1.471007
C	0.0	0.0	0.0
Cl	-0.210397	1.676448	-2.203288
H	1.095469	0.0	0.0
H	-0.303802	-0.969488	0.415371
N	0.466373	-0.970091	-2.115509
H	0.374304	-0.933504	-3.122692
H	1.433386	-0.802965	-1.84833
C	-1.849218	-0.405403	-1.724684
H	-2.047152	-1.394118	-1.305333
H	-2.509735	0.327548	-1.263819
H	-2.057475	-0.427125	-2.797563
C	-0.567513	1.130788	0.839928
H	-0.261331	0.991328	1.879941
H	-0.184522	2.094878	0.508245
H	-1.661648	1.164479	0.812943
Cl	3.539588	0.0	0.0
