18

C	0.0	0.0	0.0
C	-0.582058	-0.179779	-1.432502
Br	1.940413	0.0	0.0
H	-0.664507	0.834372	-1.843885
C	-0.533414	1.266941	0.632466
H	-1.627106	1.212554	0.598458
H	-0.17948	2.140007	0.079452
H	-0.198638	1.329461	1.667443
N	-0.387773	-1.11895	0.899279
O	0.05315	-1.154726	2.07458
O	-0.445436	-2.365675	0.210133
N	-1.871468	-0.897566	-1.407539
H	-2.520495	-0.46607	-2.067572
H	-1.240868	-2.194909	-0.375854
N	0.295093	-0.940537	-2.322209
H	-0.231265	-1.122076	-3.172691
H	0.470657	-1.838138	-1.876737
Cl	-3.942737	0.0	0.0
