15

C	0.0	0.0	0.0
C	-0.506826	-0.105455	-1.430218
F	1.397167	0.0	0.0
H	-1.603936	-0.097942	-1.343364
H	-0.324348	0.961771	0.40825
C	-0.479674	-1.136605	0.868941
H	-0.100566	-0.996138	1.88487
H	-0.114725	-2.0828	0.471965
H	-1.57129	-1.134865	0.88491
N	-0.066536	-1.354692	-2.045303
H	0.926624	-1.297365	-2.239726
H	-0.55363	-1.48945	-2.923095
C	-0.081596	1.079168	-2.205196
N	0.275348	1.979003	-2.871368
Cl	-3.729435	0.0	0.0
