15

C	0.0	0.0	0.0
C	-0.432134	0.354215	-1.436769
F	1.386704	0.0	0.0
H	0.398517	0.945476	-1.841501
H	-0.313755	0.849548	0.612964
C	-0.551066	-1.290499	0.546268
H	-0.22619	-1.424331	1.580429
H	-1.644364	-1.253997	0.518464
H	-0.20179	-2.138207	-0.046669
N	-1.614198	1.194597	-1.425368
H	-2.409541	0.74314	-0.956334
H	-1.908113	1.383794	-2.37676
C	-0.508877	-0.8604	-2.286779
N	-0.552706	-1.801546	-2.990015
Cl	-4.240155	0.0	0.0
