15

C	0.0	0.0	0.0
C	-0.361394	-0.115448	-1.501715
F	1.392089	0.0	0.0
H	0.097246	0.759404	-1.980049
H	-0.333898	0.977753	0.363062
C	-0.548273	-1.107875	0.85775
H	-0.205309	-0.988823	1.887971
H	-0.216431	-2.080588	0.486407
H	-1.640716	-1.05581	0.844201
N	-1.752665	-0.177005	-1.892989
H	-2.303944	0.540594	-1.429904
H	-2.181312	-1.033017	-1.560346
C	0.332339	-1.295934	-2.050578
N	0.847557	-2.260325	-2.47748
Cl	-4.289968	0.0	0.0
