15

C	0.0	0.0	0.0
C	-0.515134	-0.084439	-1.436394
F	1.395387	0.0	0.0
H	-1.59943	0.08476	-1.364074
H	-0.317557	0.960359	0.417205
C	-0.478901	-1.132507	0.874164
H	-1.570731	-1.132261	0.886359
H	-0.103587	-2.087669	0.499591
H	-0.10156	-0.991547	1.889484
N	-0.285071	-1.353885	-2.121891
H	0.631226	-1.709493	-1.873304
H	-0.984539	-2.013562	-1.805129
C	0.080613	1.004432	-2.228293
N	0.552638	1.882123	-2.84839
Cl	-3.689821	0.0	0.0
