15

C	0.0	0.0	0.0
C	-0.359641	0.008202	-1.506233
F	1.392444	0.0	0.0
H	0.112073	0.913598	-1.910996
H	-0.334522	0.944829	0.440333
C	-0.546726	-1.172991	0.766513
H	-1.639362	-1.122009	0.7585
H	-0.203022	-1.134951	1.802817
H	-0.212983	-2.11322	0.320691
N	-1.75042	-0.008246	-1.903939
H	-2.303836	0.655775	-1.368297
H	-2.179302	-0.894908	-1.666836
C	0.32708	-1.129822	-2.145875
N	0.844886	-2.060538	-2.639058
Cl	-4.291381	0.0	0.0
