15

C	0.0	0.0	0.0
C	-0.50684	-0.105835	-1.430161
F	1.397332	0.0	0.0
H	-1.603948	-0.098107	-1.343198
H	-0.324341	0.961871	0.408002
C	-0.479658	-1.136386	0.869214
H	-0.100966	-0.995445	1.885231
H	-0.114328	-2.082641	0.472729
H	-1.571291	-1.134965	0.884819
N	-0.066854	-1.355351	-2.044859
H	0.9262	-1.298131	-2.239849
H	-0.554464	-1.490602	-2.92229
C	-0.081508	1.078475	-2.205562
N	0.2753	1.978115	-2.872079
Cl	-3.729273	0.0	0.0
