15

C	0.0	0.0	0.0
C	-0.421142	-0.089629	-1.479583
F	1.386876	0.0	0.0
H	0.391411	0.39689	-2.031817
H	-0.32119	0.991046	0.332311
C	-0.556636	-1.071652	0.897196
H	-1.649425	-1.037381	0.850772
H	-0.209719	-2.058529	0.584462
H	-0.243498	-0.894467	1.928621
N	-1.63872	0.655565	-1.717961
H	-1.938967	0.535237	-2.677493
H	-2.417487	0.346404	-1.12475
C	-0.417316	-1.499563	-1.944886
N	-0.386911	-2.588943	-2.384816
Cl	-4.254884	0.0	0.0
