15

C	0.0	0.0	0.0
C	-0.365722	0.188231	-1.491877
F	1.398245	0.0	0.0
H	0.325245	0.964911	-1.843033
H	-0.321388	0.90217	0.531491
C	-0.556583	-1.23323	0.654528
H	-0.235638	-1.281253	1.69768
H	-0.213417	-2.131486	0.137172
H	-1.649626	-1.185295	0.627001
N	-1.706168	0.59812	-1.846113
H	-2.432904	0.059309	-1.369909
H	-1.85346	1.548636	-1.528122
C	0.006551	-1.033542	-2.231802
N	0.324579	-2.010225	-2.799945
Cl	-4.24425	0.0	0.0
