15

C	0.0	0.0	0.0
C	-0.237288	0.046222	-1.523692
F	1.400069	0.0	0.0
H	0.446866	-0.74024	-1.889057
H	-0.351147	0.922347	0.462686
C	-0.51086	-1.234272	0.68108
H	-0.14076	-2.129588	0.172754
H	-1.602857	-1.206923	0.656132
H	-0.16691	-1.255435	1.718663
N	0.164468	1.378897	-1.998187
H	0.116852	1.398223	-3.009957
H	1.131637	1.510632	-1.728929
C	-1.516163	-0.299903	-2.16395
N	-2.243351	-0.602353	-3.037953
Cl	-3.62601	0.0	0.0
