17

C	0.0	0.0	0.0
C	-0.177834	0.136724	-1.569355
F	1.429498	0.0	0.0
H	0.61825	-0.507132	-1.956017
N	-0.483408	1.051498	0.823426
H	-0.209271	1.952157	0.445979
H	-1.50939	0.937712	0.729046
N	-0.514773	-1.269029	0.390136
H	-0.343509	-1.338437	1.390027
H	-1.538968	-1.107303	0.28739
C	0.18713	1.504494	-1.952848
N	0.460154	2.600984	-2.277295
C	-1.484338	-0.276944	-2.248135
H	-2.338019	0.202605	-1.774893
H	-1.616506	-1.35183	-2.111727
H	-1.409211	-0.065663	-3.321153
F	-2.882719	0.0	0.0
