17

C	0.0	0.0	0.0
C	-0.181866	0.208816	-1.562254
F	1.429715	0.0	0.0
H	0.63635	-0.385049	-1.980996
N	-0.483487	1.014974	0.870017
H	-0.20896	1.932905	0.537918
H	-1.509308	0.902183	0.774935
N	-0.508553	-1.286089	0.34098
H	-1.533419	-1.128572	0.251407
H	-0.326696	-1.395056	1.335554
C	0.129223	1.605799	-1.874759
N	0.35653	2.727206	-2.143509
C	-1.474763	-0.221791	-2.258466
H	-1.420012	0.053522	-3.31681
H	-1.550978	-1.308031	-2.183544
H	-2.342104	0.192639	-1.747817
F	-2.883897	0.0	0.0
