17

C	0.0	0.0	0.0
C	-0.438464	-0.238009	-1.46103
F	1.427169	0.0	0.0
H	-1.538446	-0.238893	-1.360015
N	-0.482747	1.287366	0.389316
H	-0.272527	1.364787	1.380401
H	-1.509158	1.140264	0.312867
N	-0.431356	-1.015403	0.918159
H	-1.457898	-0.93574	0.848667
H	-0.144204	-1.931042	0.586686
C	0.004361	-1.55669	-1.902915
N	0.361226	-2.613093	-2.275293
C	0.049987	0.846957	-2.420041
H	1.14139	0.863998	-2.457867
H	-0.336677	0.678532	-3.428887
H	-0.29803	1.813213	-2.056169
F	-2.816978	0.0	0.0
