17

C	0.0	0.0	0.0
C	-0.185969	0.290123	-1.548478
F	1.429442	0.0	0.0
H	0.641333	-0.267233	-1.999138
N	-0.480019	0.962154	0.927282
H	-0.202185	1.900331	0.660998
H	-1.505943	0.855671	0.830021
N	-0.511863	-1.300801	0.275213
H	-0.339803	-1.448279	1.267115
H	-1.537413	-1.132668	0.188699
C	0.101309	1.706475	-1.783154
N	0.316485	2.843885	-1.986802
C	-1.469987	-0.120115	-2.273942
H	-1.555436	-1.207353	-2.234714
H	-2.342698	0.287773	-1.768508
H	-1.391093	0.189712	-3.322971
F	-2.868102	0.0	0.0
