17

C	0.0	0.0	0.0
C	-0.436364	-0.069694	-1.479408
F	1.426519	0.0	0.0
H	-1.536542	-0.095358	-1.382715
N	-0.484755	1.229119	0.541995
H	-1.510569	1.095441	0.443197
H	-0.281335	1.181354	1.536824
N	-0.431851	-1.121542	0.785484
H	-1.458029	-1.032534	0.717482
H	-0.150072	-1.986498	0.334755
C	0.02882	-1.31902	-2.074186
N	0.408152	-2.317614	-2.565424
C	0.039837	1.123785	-2.307861
H	1.131655	1.167649	-2.320042
H	-0.336837	2.038075	-1.851596
H	-0.323819	1.053065	-3.337055
F	-2.814831	0.0	0.0
