13

C	0.0	0.0	0.0
C	-0.544846	-0.087774	-1.427789
Cl	1.763272	0.0	0.0
H	-1.467347	-0.6629	-1.386783
H	-0.371463	0.862162	0.546383
H	0.181375	-0.621191	-2.045544
N	-0.377115	-1.201466	0.831775
O	-0.55741	-1.008004	2.028608
O	-0.399873	-2.286202	0.260404
N	-0.865228	1.203291	-2.00907
H	-0.1391	1.8826	-1.815754
H	-1.732867	1.507894	-1.57614
Br	-3.594293	0.0	0.0
