13

C	0.0	0.0	0.0
C	-0.490372	-0.257309	-1.429228
Cl	1.763808	0.0	0.0
H	-0.142209	0.603198	-2.012447
H	-0.359892	0.92794	0.440941
H	0.055617	-1.131651	-1.792575
N	-0.429677	-1.08933	0.948916
O	-0.503378	-2.227906	0.496286
O	-0.621491	-0.756586	2.113494
N	-1.891727	-0.461509	-1.640416
H	-2.221028	-1.311488	-1.204088
H	-2.502318	0.265646	-1.280463
Br	-4.745712	0.0	0.0
