14

C	0.0	0.0	0.0
C	-0.457069	0.003698	-1.440669
F	1.380161	0.0	0.0
H	0.045655	-0.796168	-1.980829
H	-0.186059	0.966468	-1.870762
H	-1.542244	-0.126751	-1.498121
C	-0.457	1.158686	0.856036
H	-0.186025	2.078117	0.339695
H	-1.542299	1.12711	0.995005
H	0.045597	1.115367	1.820299
N	-0.34066	-1.334056	0.670863
O	-0.4118	-2.316852	-0.05327
O	-0.411786	-1.338826	1.891615
Br	-4.168758	0.0	0.0
