19

C	-0.433737	-2e-06	-1.459895
C	0.0	0.0	0.0
F	-1.865028	-1e-05	-1.464686
H	1.095748	0.0	0.0
C	0.023873	1.253622	-2.171871
H	1.113463	1.317839	-2.108304
H	-0.279574	1.219172	-3.222635
H	-0.400204	2.132841	-1.690535
C	0.023886	-1.253625	-2.171869
H	1.113473	-1.317846	-2.108275
H	-0.400203	-2.132845	-1.69055
H	-0.279533	-1.219171	-3.222638
N	-0.435312	-1.242828	0.639312
H	-1.431917	-1.188003	0.824942
H	0.050856	-1.337701	1.523659
N	-0.435311	1.242829	0.639313
H	-1.43191	1.187995	0.824967
H	0.050878	1.337715	1.523646
Br	3.656908	0.0	0.0
