19

C	-0.489877	-0.005635	-1.448246
C	0.0	0.0	0.0
F	-0.213302	1.27974	-1.982798
H	1.101245	0.0	0.0
C	0.299726	-1.001773	-2.264987
H	-0.009924	-0.958454	-3.313603
H	1.364118	-0.771678	-2.183788
H	0.132558	-2.006199	-1.875148
C	-1.989258	-0.190313	-1.558075
H	-2.268493	-1.184868	-1.209735
H	-2.296286	-0.078555	-2.601096
H	-2.501284	0.55855	-0.951223
N	-0.425392	-1.236001	0.649795
H	0.282507	-1.510516	1.31885
H	-1.281814	-1.038245	1.155342
N	-0.545555	1.175295	0.697015
H	0.020229	1.302296	1.531785
H	-0.353337	1.982096	0.111234
Br	3.712785	0.0	0.0
