19

C	-0.426801	0.018945	-1.464516
C	0.0	0.0	0.0
F	-1.826555	-0.191466	-1.534008
H	1.102033	0.0	0.0
C	-0.148084	1.361219	-2.110077
H	-0.778174	2.128026	-1.656128
H	-0.373766	1.317439	-3.178692
H	0.906279	1.62153	-1.981529
C	0.243863	-1.114635	-2.209707
H	-0.016238	-2.059472	-1.734377
H	-0.088248	-1.12174	-3.25246
H	1.32898	-0.990517	-2.167223
N	-0.467417	-1.220417	0.622983
H	0.073254	-1.397273	1.460486
H	-1.442701	-1.095589	0.871844
N	-0.518766	1.190555	0.713705
H	0.02861	1.993069	0.41307
H	-0.25817	1.056455	1.687419
Br	3.667167	0.0	0.0
