19

C	-0.491245	-0.015371	-1.447989
C	0.0	0.0	0.0
F	-0.222288	1.269614	-1.989102
H	1.101229	0.0	0.0
C	0.303573	-1.010934	-2.261248
H	-0.00828	-0.975089	-3.309554
H	1.36697	-0.774031	-2.183587
H	0.143443	-2.014694	-1.865787
C	-1.990559	-0.208577	-1.553815
H	-2.506034	0.540247	-0.949677
H	-2.263648	-1.203511	-1.199889
H	-2.300573	-0.103368	-2.596987
N	-0.424327	-1.232766	0.656482
H	-1.27922	-1.03095	1.166884
H	0.288597	-1.506372	1.323479
N	-0.545712	1.178246	0.691904
H	0.019994	1.308888	1.526418
H	-0.353248	1.982417	0.102645
Br	3.708628	0.0	0.0
