19

C	-0.484338	0.04548	-1.449871
C	0.0	0.0	0.0
F	0.014288	-1.106328	-2.075066
H	1.100893	0.0	0.0
C	-1.993246	-0.020848	-1.557008
H	-2.292848	-0.01964	-2.609123
H	-2.450626	0.827217	-1.044754
H	-2.336592	-0.948281	-1.094201
C	0.122739	1.221459	-2.198419
H	-0.328726	2.170905	-1.896629
H	1.200615	1.250769	-2.0172
H	-0.050353	1.090634	-3.26975
N	-0.480696	-1.19606	0.670643
H	0.265874	-1.582499	1.233147
H	-1.257995	-0.946133	1.271282
N	-0.491735	1.202295	0.713145
H	-0.05172	1.166933	1.629801
H	-0.081771	2.019412	0.268011
Br	3.685676	0.0	0.0
