19

C	-0.38322	-0.009513	-1.479227
C	0.0	0.0	0.0
F	-1.807541	-0.107637	-1.55049
H	1.096769	0.0	0.0
C	0.024493	1.273126	-2.168437
H	-0.238764	1.232325	-3.229699
H	-0.463579	2.121518	-1.695437
H	1.104951	1.397512	-2.064887
C	0.185065	-1.222682	-2.182461
H	-0.064075	-1.193342	-3.246332
H	1.270521	-1.227643	-2.061243
H	-0.219856	-2.142321	-1.758607
N	-0.438626	-1.201865	0.719187
H	0.259166	-1.929903	0.622512
H	-1.309884	-1.535463	0.32126
N	-0.492843	1.218599	0.623645
H	-0.107518	1.237259	1.561776
H	-1.500056	1.121729	0.724414
Br	3.660259	0.0	0.0
