19

C	-0.497553	0.09399	-1.442579
C	0.0	0.0	0.0
F	-0.226489	1.414537	-1.888922
H	1.094931	0.0	0.0
C	0.292031	-0.842136	-2.329508
H	0.132424	-1.871214	-2.005842
H	-0.024846	-0.732142	-3.370805
H	1.355943	-0.611873	-2.240772
C	-1.99799	-0.08684	-1.555655
H	-2.311819	0.087874	-2.588204
H	-2.273822	-1.101549	-1.265767
H	-2.508751	0.622999	-0.901904
N	-0.424163	-1.279038	0.564664
H	0.305322	-1.617977	1.180054
H	-1.256987	-1.108817	1.118001
N	-0.540894	1.12226	0.78278
H	0.043587	1.200592	1.610057
H	-0.365741	1.966637	0.247488
Br	3.689262	0.0	0.0
