19

C	-0.434021	0.046664	-1.474152
C	0.0	0.0	0.0
F	-0.044261	-1.188656	-2.038238
H	1.102669	0.0	0.0
C	-1.932421	0.154597	-1.672776
H	-2.309041	1.056701	-1.192011
H	-2.440803	-0.710955	-1.23991
H	-2.164522	0.175299	-2.74118
C	0.331342	1.12304	-2.218236
H	-0.000354	2.116402	-1.906446
H	1.399351	1.018758	-2.012998
H	0.158435	1.024347	-3.293567
N	-0.449497	-1.167181	0.735081
H	-1.424594	-1.355528	0.530387
H	0.097331	-1.960473	0.4251
N	-0.530149	1.190132	0.685927
H	0.090057	1.966526	0.473461
H	-0.394654	0.993534	1.67278
Br	3.726234	0.0	0.0
