19

C	-0.383671	0.010398	-1.482834
C	0.0	0.0	0.0
F	-1.774492	0.275722	-1.591962
H	1.103285	0.0	0.0
C	0.339227	1.127052	-2.209538
H	0.074839	1.118955	-3.270749
H	0.055978	2.096018	-1.793379
H	1.419191	1.002047	-2.095806
C	-0.132341	-1.335504	-2.125395
H	0.922189	-1.602496	-2.012568
H	-0.378765	-1.301147	-3.190359
H	-0.75538	-2.085763	-1.638002
N	-0.552238	-1.188041	0.670674
H	-0.615873	-0.924082	1.646997
H	0.144685	-1.924725	0.618133
N	-0.467379	1.179052	0.714964
H	-1.319131	1.518492	0.284934
H	0.23899	1.900894	0.671019
Br	3.658086	0.0	0.0
