19

C	-0.388551	-0.016881	-1.477419
C	0.0	0.0	0.0
F	-1.785024	-0.019447	-1.625517
H	1.10989	0.0	0.0
C	0.136233	1.231112	-2.161972
H	-0.377015	2.107799	-1.761869
H	-0.061219	1.180625	-3.236465
H	1.213465	1.323399	-1.997896
C	0.138148	-1.278965	-2.134676
H	-0.058133	-1.251291	-3.210284
H	1.215266	-1.367407	-1.967121
H	-0.374681	-2.147624	-1.717175
N	-0.530436	-1.189574	0.682031
H	0.130213	-1.940057	0.506442
H	-0.464573	-1.024538	1.682135
N	-0.530274	1.205173	0.654365
H	0.139106	1.947236	0.474691
H	-0.482293	1.057156	1.657558
Br	3.676711	0.0	0.0
