17
Coordinates from ORCA-job run
  C   0.66315906451140     -0.41460682705249     -0.34355329622928
  C   -0.52013075479796      0.06350782834769      0.51322145520093
  F   0.16843932649117     -0.91141279122273     -1.54139930546539
  H   -0.13293364933070      0.37932503830537      1.48419260085978
  C   1.63036388274613      0.71290589446831     -0.66056334035193
  H   2.00638999833478      1.17317738086649      0.25504399932169
  H   1.12929088324331      1.46376469621689     -1.27125097293839
  H   2.47266740861688      0.31187368416546     -1.22540186799776
  C   1.38229384638522     -1.51129025863631      0.33095799898928
  N   2.00860204330857     -2.35656691728413      0.85268526583316
  N   -1.38321926831333     -1.13006995164425      0.82130237822962
  O   -2.24622113701474     -1.42797402199591      0.00077783624420
  O   -1.13923077885446     -1.72683722308018      1.86883283015210
  C   -1.35084871317853      1.14169150094169     -0.15373875322525
  H   -2.26409514895298      1.31056255096359      0.41851131911566
  H   -0.79720112427747      2.08069371576568     -0.18683142375668
  H   -1.62832587891729      0.84225570087483     -1.16278672398175
