17
Coordinates from ORCA-job run
  C   0.71092767037818      0.14791774965729     -0.51800688747106
  C   -0.58666466416951      0.47562440372511      0.24049637819333
  F   0.85635347303156      1.18541674833250     -1.43869515103603
  H   -0.45657833035242      1.47948339218215      0.64850784430604
  C   1.93796113521650      0.12281031598158      0.37138707323448
  H   1.91543467846307     -0.73319864471544      1.04709281153930
  H   1.98399418753990      1.04195721387686      0.95790994099526
  H   2.82705121758655      0.05084609646429     -0.25625434983131
  C   0.59263923643101     -1.10335780614676     -1.28443447376874
  N   0.53124657419497     -2.09793903288439     -1.90542012717699
  N   -0.66839147286353     -0.42479760690859      1.43318169004564
  O   -0.96657681034865     -1.59927509391021      1.22499010599595
  O   -0.40419429642824      0.06943112040986      2.52816182628127
  C   -1.83661971848439      0.36169659252273     -0.60498043962864
  H   -1.98850653947050     -0.66603941337715     -0.93436147256482
  H   -1.73827061417833      1.00865306189060     -1.47784439836520
  H   -2.70880572654615      0.68177090289954     -0.03173037074848
