17
Coordinates from ORCA-job run
  C   0.81592797010119      0.41847320208461     -0.32370182593921
  C   -0.64337884730928      0.57186670356231      0.13714281479283
  F   1.52237585002308      1.48607856991411      0.21809512231295
  H   -0.98376903107702      1.55607448754052     -0.18961077277130
  C   1.52277875453853     -0.86405932689989      0.06821888078439
  H   2.55089254691301     -0.81161238707420     -0.29273090534446
  H   1.03844058221236     -1.73313621977574     -0.37787402211064
  H   1.52496701005443     -0.97026421390593      1.15156471126711
  C   0.81937302265604      0.57537001201028     -1.79040589417583
  N   0.80077238596285      0.67878936589641     -2.96014316350863
  N   -0.65847546974090      0.65858644751658      1.63734598642538
  O   -0.82983385939782      1.77045999335785      2.12776318489729
  O   -0.49877469712082     -0.38883551303613      2.26226992391941
  C   -1.56661767862127     -0.53505403885705     -0.32940828768531
  H   -1.55548044906215     -0.60005983200641     -1.41910623392809
  H   -1.27049402609288     -1.49290305161274      0.09557740761353
  H   -2.58870406403936     -0.31977419871455     -0.01299692654942
