17
Coordinates from ORCA-job run
  C   0.81147934007535      0.44115202743520     -0.36149752560134
  C   -0.65188012937023      0.55893900021897      0.10589625423894
  F   1.46454831520153      1.63836307357479     -0.11161757268267
  H   -1.00566619374260      1.54433098655608     -0.21646823638517
  C   1.60491692388586     -0.69485924906714      0.26022456342050
  H   1.68006999711388     -0.54617570834654      1.33572873078177
  H   2.60904933506774     -0.69236858008328     -0.16549473120897
  H   1.13968094669470     -1.65840459659612      0.04621571149132
  C   0.79035886206177      0.28533268050851     -1.83127476155705
  N   0.78980391725841      0.15573903123894     -2.99848563458609
  N   -0.73578949391119      0.61932052870822      1.62069870955441
  O   -1.78361430627972      0.23344885436178      2.13126041826440
  O   0.21469997814663      1.09957194357813      2.22984333551332
  C   -1.55855333232511     -0.54173278029882     -0.41525338623276
  H   -1.53766489066464     -0.56289904525937     -1.50494454949456
  H   -2.58122704036666     -0.36328778812905     -0.09124933638179
  H   -1.25121222884571     -1.51747037840030     -0.03458198913427
