17
Coordinates from ORCA-job run
  C   0.71192706839495     -0.42153776852821     -0.21161439843980
  C   -0.57255085221666      0.10727517553662      0.44630856156232
  F   0.36466652230133     -1.11775875634015     -1.36088422849534
  H   -0.30188252768147      0.58227582863133      1.39157303079425
  C   1.65672628794258      0.70133891313592     -0.60356988374544
  H   1.91544079716756      1.31324782127653      0.26264223395501
  H   2.56980759268101      0.27095698494972     -1.01650757635043
  H   1.19017984808366      1.32309648198412     -1.36755054135013
  C   1.40585728984745     -1.36271784002662      0.68745642502470
  N   2.01257300427018     -2.08391741594091      1.38806981275531
  N   -1.41104772534242     -1.07694222958620      0.84604195260757
  O   -1.25045684855951     -1.50093529759549      1.98940604977222
  O   -2.17208700821837     -1.53905829915886      0.00113120119949
  C   -1.37522466590960      1.02774037249828     -0.45127877034656
  H   -2.34713130158523      1.22843852620597      0.00159064428353
  H   -0.85937985900623      1.98060527807141     -0.57537249460720
  H   -1.53741762216922      0.56789222488656     -1.42444201861950
