16
Coordinates from ORCA-job run
  C   1.04792568120598     -0.38592827131769      0.10752587960845
  C   -0.31011236223461      0.28879160637483     -0.21781370730446
  Cl  0.88327852649217     -1.58869880335056      1.43548448376914
  H   -0.07026997267396      0.98732071602917     -1.03081323576887
  C   1.56481575813987     -1.08397832722831     -1.07319256561102
  N   1.97527408119876     -1.61540990306145     -2.03770578403676
  C   2.02791393542384      0.61994753887129      0.52750645449383
  N   2.80673782607463      1.44401656168329      0.83635937686039
  C   -0.83829026010500      1.08646134078581      0.96959986867408
  H   -0.11878332190251      1.83057428318612      1.31779789941304
  H   -1.74584038388945      1.61460358376413      0.66916481762024
  H   -1.09218141740902      0.42925860956680      1.80335539884034
  C   -1.32998157983470     -0.72261245053910     -0.72980393808311
  H   -1.59980531754357     -1.43800838226531      0.04925192358837
  H   -2.23727361522440     -0.19369099575197     -1.02964603463299
  H   -0.96240757771803     -1.27364710674705     -1.59807083743067
