16
Coordinates from ORCA-job run
  C   1.03262281124683     -0.53029819555604      0.20351445271472
  C   -0.42851475498623     -0.07274539497079      0.43873947612003
  Cl  1.25643272212959     -2.23085961651191      0.74530625453685
  H   -0.60989289255567     -0.24051514032990      1.50702109037480
  C   1.37303045946888     -0.44829455197577     -1.21962208284771
  N   1.59774243403689     -0.36236103226874     -2.36998305638101
  C   1.96357114895701      0.29890451537407      0.97449478418238
  N   2.67815227594724      0.98138081023240      1.61058874767382
  C   -1.41192527118558     -0.89973151821598     -0.38264705522669
  H   -1.25834635625498     -0.73883423457624     -1.45304018674377
  H   -2.43002724145209     -0.58702940517749     -0.14079158348369
  H   -1.33050767072623     -1.96677980259723     -0.17490188652712
  C   -0.56871557756661      1.41637220518323      0.12660756606389
  H   0.09033269317833      2.03310992700771      0.74037940356569
  H   -1.59685521600357      1.72806408874868      0.32325262839195
  H   -0.35609956423380      1.61861734563401     -0.92691855241415
