16
Coordinates from ORCA-job run
  C   1.14207844732982     -0.14348023366306      0.25350557294178
  C   -0.35724724703319      0.17996235631027      0.47043961055439
  Cl  2.17541264751464      1.01527384908407      1.16154505575034
  H   -0.49615689777449      0.16502104433950      1.55797324611266
  C   1.45658538427286     -1.48728918003338      0.74746266640146
  N   1.67055085138670     -2.56654505702404      1.16042921515018
  C   1.48508117249794     -0.05570517735720     -1.16862460749500
  N   1.70903405133023      0.02315259133900     -2.31958945334750
  C   -1.22566724763837     -0.90287808523372     -0.16818714608869
  H   -2.27751885207067     -0.67132033372864      0.01308017812818
  H   -1.02554223282573     -1.89310616621288      0.24509096527615
  H   -1.07551335596381     -0.93881054529689     -1.25085402763584
  C   -0.71525987630648      1.55961985209074     -0.07189155496591
  H   -0.09984888383074      2.34786290041993      0.36238474684602
  H   -1.75852107208487      1.77750056220463      0.16785684570172
  H   -0.60846688880384      1.59074162276166     -1.15962131332995
