16
Coordinates from ORCA-job run
  C   1.14968921269216     -0.03782423897329      0.25489066062052
  C   -0.38152408993940      0.00994514030888      0.48506698186278
  Cl  2.00025629136298      1.00849522985350      1.44530812790384
  H   -0.52033465379368     -0.28604909532028      1.53167345313544
  C   1.65532473313253     -1.40193153910226      0.43420778826727
  N   2.02363043343957     -2.50662700206838      0.59269559604683
  C   1.48068285576356      0.43031005400116     -1.09382138779795
  N   1.69480633236645      0.81012955371426     -2.18517077407177
  C   -1.08018391953365     -0.99827696523461     -0.42598414283998
  H   -2.15466156923575     -0.97199603852135     -0.23164333181682
  H   -0.73514604760593     -2.01985298296281     -0.25640629621037
  H   -0.92708676487233     -0.74762110168674     -1.47942594753822
  C   -0.93503571490331      1.41512924569098      0.27377635602862
  H   -2.00331587980261      1.41540348223462      0.50102736135017
  H   -0.45454416855505      2.15074823703467      0.91908501915882
  H   -0.81455705051555      1.73001802103162     -0.76627946409918
