16
Coordinates from ORCA-job run
  C   1.05109633840986     -0.51298206715706      0.14213421216592
  C   -0.40946357332806     -0.09937395726879      0.45117896241316
  Cl  1.33295212850977     -2.22830518945179      0.60415797960649
  H   -0.54436597672695     -0.31111066052892      1.51852946240765
  C   1.33454091308332     -0.36527620926676     -1.28811053485690
  N   1.51381071776154     -0.22666195736640     -2.44129360583579
  C   1.99229717197788      0.30588702211094      0.91170409575961
  N   2.71517763263688      0.97763991839101      1.54989284176223
  C   -1.40634940667457     -0.91810690056024     -0.36213944137960
  H   -1.29629908584642     -1.98967508159366     -0.19464645741784
  H   -2.42062848722216     -0.63502107948353     -0.07239392263877
  H   -1.29602294163696     -0.71775729323388     -1.43128308529010
  C   -0.59449945624066      1.39668433113330      0.20171417359365
  H   -1.62033972769462      1.67705524258133      0.45071026408663
  H   -0.42928774832364      1.64267927779566     -0.85099656048777
  H   0.07538150131477      2.00532460389881      0.81184161611143
