16
Coordinates from ORCA-job run
  C   1.04905150200735     -0.51790986412648      0.14460238617468
  C   -0.40723866009548     -0.08975473414376      0.45472073436410
  Cl  1.32190446541820     -2.22708255255018      0.63456544527125
  H   -0.53837752466304     -0.28621830672674      1.52544994414035
  C   1.32481078866177     -0.39742847296691     -1.28961469419179
  N   1.49587883865555     -0.28321977509217     -2.44677810188229
  C   1.99942278466104      0.30780118595035      0.89517938585048
  N   2.72642501868230      0.98764714292308      1.51990584019173
  C   -1.41334532492929     -0.91271494616311     -0.34289046792628
  H   -1.30766683094795     -1.98281833992281     -0.16400400945001
  H   -2.42436493784451     -0.62128997062503     -0.05014632647191
  H   -1.30881897610740     -0.72501779052230     -1.41482396175865
  C   -0.58358963004064      1.40392875740084      0.18577075149348
  H   -1.60717137565265      1.69363350578960      0.43338065847504
  H   -0.41931369580921      1.63488896596514     -0.87053819118414
  H   0.09139355800395      2.01655519481047      0.78622060690398
