16
Coordinates from ORCA-job run
  C   1.04757030203693     -0.49734688196416      0.20951591668735
  C   -0.42369566032034     -0.07228229496712      0.44279530190142
  Cl  1.31944958213633     -2.17734327015682      0.79210737565816
  H   -0.59376951260469     -0.21571009697814      1.51646104575412
  C   1.37763776291489     -0.44203268339700     -1.21726438914347
  N   1.59589249697514     -0.37822496261187     -2.37028427481535
  C   1.96037241868067      0.37468074405202      0.95446874940687
  N   2.65939966414349      1.08953573971553      1.57202718727078
  C   -1.39035812140064     -0.94645121424035     -0.34907316080635
  H   -1.27791434556594     -2.00530509121267     -0.11535009851766
  H   -1.24983458756121     -0.80843085915146     -1.42451682483966
  H   -2.41473824141059     -0.65563816760687     -0.10610653229748
  C   -0.60520949479841      1.40362059423762      0.09162824136160
  H   0.04343686667291      2.05376411133561      0.68148929985724
  H   -1.63917052539667      1.69422272234034      0.29027185617224
  H   -0.40806860450188      1.58194161060533     -0.96916969364979
