16
Coordinates from ORCA-job run
  C   1.03670814824789     -0.42447423658524      0.11725618148840
  C   -0.29185512173217      0.30081225414389     -0.22195044316043
  Cl  0.81290928901072     -1.61912007666213      1.44411643283431
  H   -0.01763932058909      0.99067800968328     -1.03147984904625
  C   1.53583477822001     -1.14431119653813     -1.05791422513466
  N   1.89954607771209     -1.70351784238115     -2.02555354681781
  C   2.04847882483208      0.54473046805636      0.54764770904007
  N   2.83031602115586      1.35534498581868      0.88294008073108
  C   -0.80373838491419      1.11608412783222      0.96085833207625
  H   -0.06011126205100      1.82930418230724      1.32263596015647
  H   -1.09639205347371      0.46680557370167      1.78816616620487
  H   -1.68474933971019      1.68124749696282      0.64899976896654
  C   -1.34391157809965     -0.67132835445055     -0.74500896049627
  H   -0.98770920347683     -1.23991624318565     -1.60666822143882
  H   -1.65202537974411     -1.37242289638022      0.03300438418565
  H   -2.22566149538770     -0.10791625232310     -1.05804976958940
