16
Coordinates from ORCA-job run
  C   1.08465344266277     -0.16233384379581     -0.25477810141688
  C   -0.35027083637170     -0.02634051268208      0.31831354735494
  Cl  1.16416991183844      0.38906764632372     -1.96578486781661
  H   -0.25893317341726     -0.39120629819999      1.35027300443518
  C   2.02211654514036      0.65044034680753      0.52569351045965
  N   2.74037563314124      1.30948391271530      1.18207292042442
  C   1.51846860626207     -1.56172966522775     -0.21056438747859
  N   1.82756702563660     -2.69397351973864     -0.14926209048842
  C   -1.33880875576444     -0.91639385565056     -0.42734480593885
  H   -1.46722168431550     -0.58336350965154     -1.45884364080625
  H   -1.02671623549401     -1.96271852503703     -0.43450827827667
  H   -2.31084411977837     -0.86133314007463      0.06733051250954
  C   -0.80415814713126      1.42901794678546      0.35439047118932
  H   -0.91369196006712      1.83153660491960     -0.65416170547653
  H   -0.11057455824594      2.06315354783803      0.91024409373985
  H   -1.77713169409586      1.48669286466837      0.84692981758590
