16
Coordinates from ORCA-job run
  C   1.04669414007894     -0.51045925889259      0.18249250746993
  C   -0.41703372797169     -0.07833021599946      0.44817973226691
  Cl  1.31322778856255     -2.20419537978680      0.72591797791907
  H   -0.57108982004189     -0.24358994306657      1.52114098656726
  C   1.35434320526971     -0.42782832073278     -1.24809861050001
  N   1.55297913104486     -0.33995395873853     -2.40309933640220
  C   1.97874816087087      0.33907299787244      0.92965374695073
  N   2.69366324604279      1.03648797384271      1.54896618486846
  C   -1.40332060966338     -0.92775426680593     -0.34649545220424
  H   -2.42130956160853     -0.63126763636691     -0.08443870825213
  H   -1.27585400680784     -0.77109654056770     -1.42096559510672
  H   -1.29866512486282     -1.99182506861657     -0.13393122958706
  C   -0.59181520170602      1.40613467414203      0.13149611408630
  H   -1.61998689914518      1.70059794589148      0.35296357427604
  H   0.07151379100226      2.03836122832111      0.72450863892943
  H   -0.41009451106463      1.60564576950408     -0.92829053128178
