15

C	-0.497628	-0.081267	-1.42641
C	0.0	0.0	0.0
Cl	0.289449	1.057189	-2.471062
H	1.092799	0.0	0.0
H	-0.367966	-0.876656	0.53139
N	-0.364066	-1.478674	-2.027432
O	-0.834461	-1.621242	-3.150487
O	0.163475	-2.341221	-1.339552
N	-2.017991	0.133747	-1.424147
O	-2.619782	-0.714949	-0.773292
O	-2.504207	1.082048	-2.01019
N	-0.528857	1.242907	0.568578
H	0.241661	1.885817	0.690185
H	-0.914671	1.059048	1.482487
Br	3.541257	0.0	0.0
