15

C	-0.519981	-0.042476	-1.419966
C	0.0	0.0	0.0
Cl	0.33675	-1.208748	-2.389109
H	1.091323	0.0	0.0
H	-0.310794	-0.941277	0.468583
N	-2.017804	-0.374365	-1.477586
O	-2.619708	-0.406335	-0.40876
O	-2.503927	-0.56527	-2.58299
N	-0.42368	1.352208	-2.040663
O	-1.46008	2.003082	-2.088528
O	0.692975	1.71027	-2.369362
N	-0.46791	1.197742	0.670792
H	-1.283959	1.015264	1.235421
H	0.279847	1.561099	1.245665
Br	3.539641	0.0	0.0
