15

C	-0.517021	-0.021694	-1.422163
C	0.0	0.0	0.0
Cl	0.317295	-1.20441	-2.393076
H	1.093829	0.0	0.0
H	-0.313354	-0.94767	0.454006
N	-2.019292	-0.323985	-1.486917
O	-2.619588	-0.389545	-0.418719
O	-2.511121	-0.466708	-2.598024
N	-0.3878	1.372142	-2.038675
O	0.73092	1.697964	-2.394827
O	-1.403343	2.056778	-2.053612
N	-0.462976	1.189073	0.688562
H	-1.287095	1.005933	1.238751
H	0.278712	1.535016	1.279752
Br	3.54074	0.0	0.0
