14

C	-0.426668	0.018513	-1.440927
C	0.0	0.0	0.0
Br	-2.611209	-0.091536	-1.458813
H	1.095493	0.0	0.0
H	-0.35261	0.991935	-1.919254
H	-0.329288	-0.943043	0.450867
N	0.122288	-0.97263	-2.211417
H	-0.148372	-0.995329	-3.180659
H	0.183957	-1.879762	-1.779038
C	-0.496547	1.184294	0.815898
H	-0.19214	2.123771	0.345777
H	-0.039527	1.158744	1.807183
H	-1.582607	1.185302	0.923707
Cl	3.518803	0.0	0.0
