14

C	-0.360029	0.225275	-1.458792
C	0.0	0.0	0.0
Br	-0.568404	-1.658558	-2.387867
H	1.093031	0.0	0.0
H	-1.374293	0.586775	-1.633803
H	-0.374895	-0.955903	0.363024
N	0.591529	1.035903	-2.06705
H	0.465909	1.171779	-3.058699
H	1.545492	0.771023	-1.828027
C	-0.505035	1.159707	0.855865
H	-1.599958	1.208398	0.87467
H	-0.120053	2.106139	0.471822
H	-0.150286	1.047386	1.883431
Cl	3.53663	0.0	0.0
