11
Coordinates from ORCA-job run
  C   -0.58059261506403      0.46863232375048      0.08746216549000
  C   0.94540332106487      0.40206440527604      0.12951326514046
  Br  -1.09357767546564      2.26151944250757     -0.50092830015346
  H   1.34268295760357      1.17650828402702      0.78881009383157
  H   -0.98532157109346      0.39877413786504      1.10347760519718
  H   1.33056374425950      0.56963057559000     -0.87917908294907
  N   -1.08911693425832     -0.49121772078604     -0.85626604165033
  H   -2.10061439924889     -0.46085227795311     -0.88594512503156
  H   -0.80454524890573     -1.42610884250567     -0.58164326277074
  C   1.37336738651646     -0.91336608238890      0.60656308586874
  N   1.66075103459163     -1.98558424538245      0.98813559702720
