11
Coordinates from ORCA-job run
  C   -0.52954401841511      0.31079048182470      0.07848589880305
  C   0.77816001568989     -0.47445432921074      0.11722988491805
  Br  -0.26531284027922      1.88439159957351     -1.14484834170392
  H   0.61182663389954     -1.35878670358295      0.73992938179007
  H   -0.73314162370361      0.77559474344575      1.04220714849342
  H   1.03663805168503     -0.81385627272858     -0.89015463591031
  N   -1.59971239331453     -0.53877538171705     -0.28509155361936
  H   -2.49101790181303     -0.06353004447789     -0.23501140716962
  H   -1.48204784580670     -0.91309276636744     -1.21860856400645
  C   1.89073265619238      0.29539348668078      0.66470473522918
  N   2.78241926586536      0.89732518655991      1.13215745317590
