11
Coordinates from ORCA-job run
  C   -0.46216596847030      0.35803588646599     -0.19121911340818
  C   0.75068562627665     -0.45103077414549      0.26088285601852
  Br  0.05703611915743      1.57203430449431     -1.62516646160863
  H   1.15998733108074     -0.98113655494575     -0.60189943202937
  H   -0.79678512533300      1.02150947025003      0.61410052214864
  H   0.42014732632306     -1.20275169319277      0.98737690845430
  N   -1.45897186469303     -0.55513764319317     -0.70205922903737
  H   -2.24003419439640     -0.04249519100396     -1.09275775731476
  H   -1.80789657090238     -1.13002802364483      0.05814035776846
  C   1.78100848775208      0.37354534343958      0.88567616568288
  N   2.59698883320516      1.03645487547606      1.40592518332551
