11
Coordinates from ORCA-job run
  C   -0.53023312375197      0.31837914245971      0.00213484908341
  C   0.76567099589308     -0.45470544334084      0.22888343466440
  Br  -0.17788402372015      1.70692878473025     -1.40870727567937
  H   1.08491287060283     -0.92671467016212     -0.70498616887614
  H   -0.78699651661794      0.91232817764688      0.87819450105564
  H   0.55318724742655     -1.24666995103088      0.95345636505458
  N   -1.58460490154221     -0.57228643147918     -0.30497778610198
  H   -2.47241436204319     -0.09321611507461     -0.37636184076867
  H   -1.41428973518109     -1.07244739432442     -1.16883958759668
  C   1.84787615371274      0.38324143373922      0.73606427411181
  N   2.71477539522135      1.04616246683598      1.16613923505301
