11
Coordinates from ORCA-job run
  C   -0.53692610395144      0.45022307193979     -0.05385767197920
  C   0.70858462251741     -0.42932190361117      0.14233079978880
  Br  -0.08136128824182      1.87995239055045     -1.30993705018151
  H   0.42972702650336     -1.27505531561991      0.78086697507390
  H   -0.78792003101663      0.95303937318220      0.88133858500830
  H   1.02575790597665     -0.83092889005536     -0.82448740214656
  N   -1.69847582388835     -0.24163379605332     -0.53049956940732
  H   -1.49083368919868     -0.80172677830821     -1.34773031045972
  H   -2.09332974869949     -0.82625289517768      0.19581434740838
  C   1.82387272979632      0.27810720346229      0.76571356216146
  N   2.70190440020269      0.84459753969090      1.29944773473347
