11
Coordinates from ORCA-job run
  C   -0.57164410654229      0.58298009690456      0.04671806032765
  C   0.94120534320877      0.30230130823116      0.01178937665372
  Br  -0.85356101679738      2.25735375884646     -0.93656786159157
  H   1.26893045107412      0.18980435912902     -1.02576267698418
  H   -0.88188136177167      0.79358783806348      1.07121445698041
  H   1.50260583947567      1.13152538841546      0.44944463101465
  N   -1.41893314818810     -0.43620967608501     -0.48684122515757
  H   -1.48546839564088     -1.22087715191965      0.14950907882060
  H   -1.10219396954469     -0.75537872287954     -1.39361339785578
  C   1.22016261780436     -0.92909920043978      0.75017305336946
  N   1.38077774692211     -1.91598799826616      1.36493650442262
