11
Coordinates from ORCA-job run
  C   -0.67392499307957      0.51901047166656      0.10030386836512
  C   0.62176480554177      0.04990217087954      0.78627706136198
  Br  -0.27974707445207      2.17295409191163     -0.87306971802179
  H   0.37082049960195     -0.77810520011541      1.45950459458697
  H   -1.39052740412974      0.80310855754470      0.87300840294296
  H   1.05986813858687      0.85121100551132      1.38609264644305
  N   -1.29877890344185     -0.41203412693843     -0.78830336734808
  H   -0.64931892121875     -0.76043280494793     -1.48321259706292
  H   -1.70368687405269     -1.18567318706644     -0.27586751345588
  C   1.59800452007382     -0.42806453133883     -0.18873765504004
  N   2.34552620657023     -0.83387644710671     -0.99699572277136
