11
Coordinates from ORCA-job run
  C   -0.65051689980219      0.34947402001439      0.13906315751915
  C   0.81333798360611      0.28880077496055      0.57316301047276
  Br  -1.28172992622510      2.18323383142561      0.38957368858768
  H   0.91828899562007      0.62127782378582      1.60780958630607
  H   -1.26858107972664     -0.23867156100130      0.82691052358995
  H   1.39539107322979      0.95410406419860     -0.06914077719561
  N   -0.76519450452008      0.00702231835206     -1.25365154006709
  H   -1.73280346563940      0.03591521890922     -1.54996200706904
  H   -0.41076027380656     -0.93175474547248     -1.40680567424170
  C   1.31429657824686     -1.07995156544217      0.44268632541334
  N   1.66727151901714     -2.19045017973029      0.30135370668450
