11
Coordinates from ORCA-job run
  C   -0.52246124894453      0.32827521029387     -0.03461904928926
  C   0.75735134635344     -0.44153772244743      0.27838263768772
  Br  -0.14971945406581      1.52436586615271     -1.60765133041772
  H   1.05718054974858     -1.03308555482430     -0.59165788871253
  H   -0.75809666142204      1.03130489828774      0.76313469093978
  H   0.53343568861184     -1.13256079959557      1.09676944134199
  N   -1.59950203777775     -0.56767003232607     -0.22430361207036
  H   -1.44879555889551     -1.17372679910158     -1.02138723008924
  H   -2.47686032178949     -0.08004423169803     -0.34770184315631
  C   1.86236937246777      0.42693726107535      0.67221041784751
  N   2.74509832571350      1.11774190418329      1.01782376591844
