11
Coordinates from ORCA-job run
  C   -0.65997056442717      0.38009622614830      0.21285896176294
  C   0.68567417690293     -0.01183548182541      0.81606455435852
  Br  -0.40847182028865      2.14951362079585     -0.73022907451655
  H   0.51850947002496     -0.86764303305562      1.47785435167377
  H   -1.36032908193332      0.63048964106418      1.00865103107698
  H   1.09618380927342      0.81112224084606      1.40322493433636
  N   -1.18467378599094     -0.64945998986014     -0.59116963275265
  H   -2.11412368760106     -0.43811344236974     -0.92757129887142
  H   -0.58442754090387     -0.86765942184457     -1.37766016130257
  C   1.64094086947464     -0.40130941308326     -0.21865898716002
  N   2.37168815546907     -0.73620094681563     -1.07336467860539
