17

C	0.0	0.0	0.0
C	-0.528329	-0.132673	-1.433394
Cl	1.815259	0.0	0.0
H	-1.613286	0.046783	-1.33831
N	-0.318471	1.422694	0.594849
O	-0.582325	2.351487	-0.156239
O	-0.250331	1.489755	1.816481
N	-0.510988	-1.005326	0.817604
H	-1.535791	-0.990778	0.715341
H	-0.266619	-0.824418	1.784213
C	-0.343781	-1.526003	-1.84686
N	-0.173271	-2.60341	-2.283138
C	0.079812	0.764164	-2.516553
H	-0.430184	0.551956	-3.458978
H	-0.057304	1.812973	-2.271656
H	1.142031	0.553119	-2.647456
Br	-3.677082	0.0	0.0
