17

C	0.0	0.0	0.0
C	-0.389415	0.108365	-1.532116
Cl	1.769306	0.0	0.0
H	0.513965	0.454623	-2.039854
N	-0.34264	1.347096	0.690864
O	-0.05893	2.349076	0.042362
O	-0.78868	1.31607	1.824394
N	-0.518283	-1.033392	0.793834
H	-1.543295	-0.918159	0.807971
H	-0.282193	-1.929507	0.387045
C	-1.384457	1.104237	-1.947918
N	-1.983236	1.926867	-2.537148
C	-0.753417	-1.272904	-2.076636
H	-0.898494	-1.210015	-3.157369
H	-1.684314	-1.609123	-1.619101
H	0.053982	-1.98676	-1.883713
Br	-3.587414	0.0	0.0
