17

C	0.0	0.0	0.0
C	-0.415597	-0.263192	-1.484241
Cl	1.789	0.0	0.0
H	0.485315	-0.053135	-2.06808
N	-0.265153	1.513502	0.361697
O	-0.575507	1.739961	1.523452
O	-0.056984	2.346758	-0.509799
N	-0.53984	-0.87911	0.925869
H	-0.305727	-0.572596	1.863264
H	-1.566645	-0.835333	0.812574
C	-1.395883	0.630729	-2.118524
N	-1.971252	1.297878	-2.898169
C	-0.793398	-1.731189	-1.700545
H	-0.887488	-1.917437	-2.773145
H	-1.748385	-1.936828	-1.221377
H	-0.023418	-2.382805	-1.287002
Br	-3.5815	0.0	0.0
