17

C	0.0	0.0	0.0
C	-0.400848	0.033534	-1.511168
Cl	1.776798	0.0	0.0
H	0.486982	0.410661	-2.025389
N	-0.279747	1.411248	0.643175
O	-0.10113	2.394788	-0.062757
O	-0.57189	1.412082	1.83174
N	-0.547227	-1.044618	0.731339
H	-0.317325	-0.928867	1.712186
H	-1.574105	-0.977673	0.627334
C	-1.432931	0.976298	-1.962928
N	-2.048968	1.747019	-2.603238
C	-0.687759	-1.379925	-2.025314
H	-0.771721	-1.350199	-3.113975
H	0.123849	-2.054014	-1.744465
H	-1.62656	-1.74144	-1.606731
Br	-3.628186	0.0	0.0
