14
Coordinates from ORCA-job run
  C   -0.71934815832780     -0.11566681110769      0.12417665994956
  C   0.63768847983101      0.10549516516193     -0.11181106587612
  N   -1.39728684728341      0.54289809698765      1.09708052005700
  H   -2.40054606228340      0.55699690865699      1.01477663854818
  H   -0.96386382107929      1.38918886119212      1.43481863255495
  N   -1.44095931595324     -1.00217458722782     -0.60852880848753
  H   -2.29955332668566     -1.32793710049997     -0.19559693301235
  H   -0.89975739931370     -1.69150721105607     -1.10890270517288
  N   1.42185348520918      1.00703695217115      0.68888393992929
  O   2.61524219693629      0.76302396320349      0.82978330014025
  O   0.84279471668664      1.96421183451467      1.22589366010972
  N   1.35255460789571     -0.55544408416952     -1.17128018943742
  O   2.28720777951573      0.04144733194032     -1.69443653269248
  O   0.96397366485193     -1.67956931976724     -1.52485711661018
