14
Coordinates from ORCA-job run
  C   -0.74528935685734     -0.00651927589816      0.04892253781815
  C   0.64373834836638      0.00638080029950     -0.04300838179761
  N   -1.53970800159092     -0.51015474915241     -0.92928787707524
  H   -1.06870846022498     -0.91860352031535     -1.72251654035092
  H   -2.40007781502768     -0.93731360075950     -0.62715518107549
  N   -1.41312830387081      0.48417670372267      1.12433050733241
  H   -2.30985955156039      0.90186076436213      0.93569206791202
  H   -0.84742153466795      0.90276992129180      1.84737031623060
  N   1.36340584071606     -0.81734455353716     -0.97848868808906
  O   2.47282139015874     -1.22382932058313     -0.64894571301157
  O   0.80912827579608     -1.10275928769207     -2.05117178775752
  N   1.46632126181478      0.84072768542754      0.79251181117991
  O   2.51666173913556      1.26457550439429      0.32144917551661
  O   1.05311616781248      1.11703292843985      1.92929775316771
