14
Coordinates from ORCA-job run
  C   -0.73125794295549     -0.10063186177114      0.02949802788749
  C   0.65095208386864      0.08826847699221     -0.02665690799221
  N   -1.28874119232171     -1.10959077489299      0.74331433797730
  H   -0.69977456110062     -1.52352095979024      1.45028949698787
  H   -2.26666459539374     -1.02211275675059      0.96464211514854
  N   -1.59375402303977      0.71578006143935     -0.62552847816145
  H   -1.19540191808797      1.26132005364387     -1.37502176338900
  H   -2.52644027432733      0.36615504285553     -0.77022524345962
  N   1.57709591625244     -0.80134845614557      0.62035295368427
  O   2.68696267466896     -0.94272713902461      0.11860685712692
  O   1.19298501464769     -1.40876034677224      1.63225466945239
  N   1.24748633521657      1.18890966283153     -0.73454154100283
  O   2.30739802579849      1.63910522972781     -0.31327999829848
  O   0.64015445677384      1.65015376765708     -1.71370452596120
