14
Coordinates from ORCA-job run
  C   -0.73930966541972     -0.02869492430280      0.10270212265493
  C   0.63918421620722      0.02850520825056     -0.08443998803591
  N   -1.35694431456842     -1.08997641671580      0.68066630329760
  H   -2.18144909181470     -0.88491766634197      1.22107249125180
  H   -0.75736849068518     -1.83280105473548      1.00710765114228
  N   -1.57187606123267      0.97394903537092     -0.27633831084875
  H   -1.14290221883136      1.75717577799734     -0.74589268801635
  H   -2.49221982478647      0.69788371732476     -0.57752567852533
  N   1.55099569781570     -0.83734002833582      0.61549115382590
  O   2.66416420879297     -0.39807218284422      0.88497610630356
  O   1.15016255461185     -1.96428761981887      0.94493222068323
  N   1.25622817431779      0.94909185462718     -1.00249419648454
  O   2.28470900022820      0.59254134209267     -1.56784029937021
  O   0.69562581536478      2.03794295743154     -1.20141688787821
