14
Coordinates from ORCA-job run
  C   -0.74407999097736     -0.06467007918142      0.02091739488535
  C   0.64225108306488      0.05520274469442     -0.01925078713261
  N   -1.56328703666943      0.61614230367105     -0.82055689764104
  H   -1.11506337495475      1.25524536428494     -1.45980150283915
  H   -2.45939438328136      0.88341197083583     -0.44686068954916
  N   -1.38460126155772     -0.87189079221765      0.90448078260031
  H   -0.79784822057063     -1.42113422271729      1.51436514647211
  H   -2.24118765748685     -1.29146791694669      0.58153052113673
  N   1.51930825863768     -0.90456935027709      0.59813710722682
  O   1.11350293982311     -1.50219617885820      1.60679074928915
  O   2.60856932177798     -1.10666469904851      0.07154351703998
  N   1.30445287919984      1.14978532128744     -0.67868644660193
  O   0.74504831604902      1.66501536928269     -1.65890105895636
  O   2.37032912694559      1.53879016519048     -0.21270783593019
