14
Coordinates from ORCA-job run
  C   -0.73134293587545     -0.10384762980978      0.01100747561684
  C   0.65035517761689      0.09186914695406     -0.01005710236519
  N   -1.59335631263783      0.80608454541808     -0.50816445903484
  H   -1.22301426045259      1.73669818087213     -0.63059641323027
  H   -2.55131982747028      0.74203566010021     -0.20553924168460
  N   -1.29102510227313     -1.21501972473416      0.55143659214173
  H   -0.67357339781482     -2.00555094251466      0.66077295296060
  H   -2.23818758249916     -1.42032165259950      0.27930472067561
  N   1.56941232306048     -0.84256656528414      0.58207734822330
  O   2.62263532650305     -0.40689496719227      1.03431632561322
  O   1.23309440823426     -2.03579736776521      0.63827857484262
  N   1.25482530878767      1.24277217708801     -0.62583271231833
  O   2.37135197908906      1.11415766756259     -1.11610935419769
  O   0.60014489573185      2.29638147190465     -0.66189470724301
