14
Coordinates from ORCA-job run
  C   -0.74195326066899     -0.04981324604131      0.03266648676821
  C   0.64336464819247      0.07767281029398     -0.02637472148190
  N   -1.36132785090368     -0.79984594850653      0.97886441354827
  H   -0.77165246945680     -1.26529950186755      1.65028028572283
  H   -2.22447447840998     -1.24465160776669      0.71886244299859
  N   -1.56958647369305      0.55761772259521     -0.84518065919252
  H   -2.48719467843524      0.79881993589375     -0.51344868488109
  H   -1.12237589078672      1.16091663415302     -1.51943318324794
  N   1.31081583062755      1.08473430379715     -0.79662939998011
  O   2.44890261304061      1.40586378077126     -0.46821862820382
  O   0.69493853784797      1.59964840314434     -1.74454479114275
  N   1.51193292737027     -0.83967657780233      0.66632969234866
  O   1.13450417786116     -1.27461762543200      1.76670249833743
  O   2.53610636741443     -1.21036908323231      0.10112424840614
