14
Coordinates from ORCA-job run
  C   -0.74299866430960     -0.04077760463575      0.06346430090266
  C   0.64240598074556      0.03276454538386     -0.05233583794150
  N   -1.42741440344580      0.56356810518982      1.06792643091563
  H   -0.88004973304305      1.11292435585047      1.71338862159360
  H   -2.34934371128652      0.89732718647967      0.83830216931188
  N   -1.51700572148012     -0.72382776803976     -0.81790613575096
  H   -1.03074217381219     -1.21676873224151     -1.55167644483083
  H   -2.34693701280270     -1.15177314695680     -0.44091087488877
  N   1.42324972928143      1.02700931138371      0.63532663895568
  O   2.44216000295416      1.43523582923286      0.08772469142632
  O   1.00578585366290      1.44486553207252      1.72645876900293
  N   1.39859709486818     -0.87434957668669     -0.87474570588029
  O   2.53304283652436     -1.16684439308215     -0.51104585570092
  O   0.85124992214340     -1.34035364395026     -1.88597076711543
