14
Coordinates from ORCA-job run
  C   -0.74187725177137     -0.08650593857915      0.01776023615920
  C   0.64053462246574      0.07434796042661     -0.01549611041671
  N   -1.60392840365988      0.92090242644092     -0.27293458099304
  H   -1.18931193743463      1.79545778984682     -0.55793277495180
  H   -2.46969018886574      0.65189048429074     -0.71130324948573
  N   -1.33512803593979     -1.26319694561161      0.34348376599174
  H   -0.71717670369590     -2.01708257586964      0.60394742585230
  H   -2.21790580620609     -1.19753737315385      0.82349052768226
  N   1.54149831409248     -0.84589344101919      0.62680614266468
  O   1.19366535179176     -2.03313148550300      0.72144394197687
  O   2.59034631034641     -0.39910858356174      1.07954769332954
  N   1.27446894197151      1.17373604974617     -0.69445569357607
  O   0.65981951301817      2.24920778545636     -0.76440166212757
  O   2.37468527388733      0.97691384709055     -1.19995566210567
