14
Coordinates from ORCA-job run
  C   -0.74280963248618     -0.05745484660691      0.05412180839110
  C   0.64154037409728      0.04980346416215     -0.04668307491774
  N   -1.59017825472727      0.55261026419852     -0.81315118102993
  H   -2.47157795961691      0.85688146271535     -0.43290772504081
  H   -1.16380135353054      1.13022642651826     -1.52204089724964
  N   -1.35279440591659     -0.78023160624638      1.02779466282088
  H   -2.22234060256316     -1.22066402356817      0.77487679703795
  H   -0.74557439441268     -1.27754572080524      1.66176013146360
  N   1.53751564665915     -0.85884322279690      0.61885184669733
  O   1.16738665305509     -1.36378913349007      1.69000155314231
  O   2.60548305030181     -1.11366552374901      0.07189143433766
  N   1.28256481966479      1.07729577079804     -0.82424934908566
  O   2.36676600336442      1.49822808056087     -0.43442156136067
  O   0.68882005611078      1.50814860830949     -1.82484444520638
