14
Coordinates from ORCA-job run
  C   -0.73568167970246     -0.06707094514051      0.00666929993999
  C   0.65407788773356      0.05973674293730     -0.00501386936718
  N   -1.54209927233821      0.80699484668223     -0.64623597781007
  H   -2.48097997515642      0.49710702730727     -0.83565655112607
  H   -1.09728425957878      1.35598159359523     -1.36659725947992
  N   -1.35972914479626     -1.07176843876104      0.67128827411925
  H   -0.81056116163850     -1.53066478887700      1.38264761842087
  H   -2.33592775585473     -0.93686345092022      0.87680723882139
  N   1.51933866431686     -0.89006001704545      0.64151959111042
  O   2.63298124824812     -1.07420456932898      0.16248193135041
  O   1.08044163672850     -1.50160424147342      1.62817362713012
  N   1.32147294715907      1.14966113050521     -0.66518864221126
  O   0.76383909762518      1.66763803634716     -1.64534860616388
  O   2.39011176725407      1.53511707417220     -0.20354667473405
