14
Coordinates from ORCA-job run
  C   -0.73827596506812      0.02078144533867      0.01352409949987
  C   0.65652320907926     -0.01866466045857     -0.01139819437156
  N   -1.41816340865106      0.90532079977215      0.78548419874350
  H   -0.89351732510622      1.31502732473948      1.54383109795732
  H   -2.38303256104774      0.68891945277512      0.97416454662703
  N   -1.49405929518291     -0.82298060576883     -0.73309417725220
  H   -2.45120420014786     -0.55193056738264     -0.88740897786764
  H   -1.02115075578387     -1.26024779288691     -1.50983134004133
  N   1.38490214250007     -0.98557384136801     -0.78840313530728
  O   0.85373050126976     -1.42456386660369     -1.82044613409582
  O   2.47788906645749     -1.35381499128223     -0.37191664198670
  N   1.46638446115874      0.90453489625772      0.73735838528528
  O   2.56372233683796      1.20860679387830      0.28241337416967
  O   0.99725179368451      1.37458561298944      1.78572289863987
