14
Coordinates from ORCA-job run
  C   -0.72895981260909     -0.00771724316108      0.11558536064406
  C   0.65102045478295      0.00449673179874     -0.09535692834094
  N   -1.31832210261729     -0.87409591829183      0.97535563469587
  H   -2.30888761508226     -1.01592234169981      0.86697246506487
  H   -0.76897866275221     -1.68164190400257      1.22877504621812
  N   -1.55978256347056      0.84975687453956     -0.53086045081827
  H   -1.12101227987792      1.67145821094005     -0.91887860540079
  H   -2.47007926084650      0.98459945116103     -0.12217078492900
  N   1.26867554218791      0.88604636525138     -1.05132628792528
  O   0.72515534330213      1.97958237131345     -1.27089657388629
  O   2.27134574247287      0.49008928841965     -1.63555853868547
  N   1.55109697705798     -0.86394990802910      0.61090749111612
  O   2.70007217883587     -0.47759961495066      0.79558747919402
  O   1.10865605861611     -1.94410236328881      1.03386469305297
