14
Coordinates from ORCA-job run
  C   -0.73539916774502      0.01364155886161      0.01907385618231
  C   0.65255549587017     -0.00720160871315      0.06273992711213
  N   -1.43497777383696     -0.84034817424130     -0.78886425452548
  H   -0.91756892063591     -1.64596365847758     -1.10663617901162
  H   -2.35714100269202     -1.07159384271369     -0.45272872170922
  N   -1.48929288719674      0.86614624688896      0.75201857427778
  H   -0.98458712887075      1.62254147881177      1.19102151495060
  H   -2.41014507611194      1.06715873334945      0.39754958416013
  N   1.37743566142832     -0.91596766231062     -0.80420357221846
  O   2.28305786397464     -0.45706139252901     -1.49295928447927
  O   0.99978700685826     -2.09512626767083     -0.82881479628275
  N   1.45992951207944      0.91183882998206      0.80191284168818
  O   0.88979323445195      1.84967306109431      1.38274450284112
  O   2.66655318242654      0.70126269766802      0.86614600701454
