14
Coordinates from ORCA-job run
  C   -0.52706252777754     -0.34821972875945      0.01822289996623
  C   0.80209501422218      0.27606601038262     -0.26895610296707
  N   -0.89681524161930     -0.26664080300206      1.39670086380962
  H   -1.47714003493032     -1.05662886761436      1.65249102589114
  H   -1.40018242042454      0.59846755103951      1.55396770322786
  N   -1.55115333313942     -0.05430735657165     -0.90318409558505
  H   -2.37849620861207     -0.61197732481292     -0.73157024715183
  H   -1.24451920763100     -0.16432840875927     -1.86162778788232
  N   1.39462809991538      1.54318716278604     -0.03522279151101
  O   0.61506096165136      2.41849454476287      0.34300804951222
  O   2.60303399641922      1.65548112224997     -0.23083325208887
  N   1.41532133759328     -0.90566709179690     -0.32428431904610
  O   2.48647658326130     -1.42253601837440     -0.42248129095144
  O   0.15775298107146     -1.66039079152999     -0.18523065522338
