14
Coordinates from ORCA-job run
  C   -0.72682987470028      0.04134292398588      0.16614953780746
  C   0.62831464365813     -0.03635338571071     -0.14326500058303
  N   -1.29406213990332     -0.68600961555584      1.16131790553404
  H   -2.25044015452778     -0.96672332269694      1.01856962678180
  H   -0.68709947775945     -1.32530878408524      1.65185689881663
  N   -1.58623747780678      0.85115407948297     -0.50384683003793
  H   -1.18348485275652      1.43233078620743     -1.22349546482885
  H   -2.34432215854635      1.23573066442753      0.03600080170374
  N   1.30007751277176      0.96623982662002     -0.92751109831580
  O   2.48038861847344      1.19082434901938     -0.68023144442208
  O   0.64180854586267      1.57447630293036     -1.78542005781955
  N   1.46045896463103     -1.12554576424126      0.29563371079673
  O   1.17368610960416     -1.68365309776264      1.36599538187412
  O   2.38774174099928     -1.46750496262093     -0.43075396730726
