14
Coordinates from ORCA-job run
  C   -0.73611427829046     -0.05837105663962      0.02561090168587
  C   0.65440002019994      0.05120875149308     -0.02285900687034
  N   -1.35533114622702     -1.02771522541991      0.74468069465439
  H   -0.79487939151620     -1.46344996684117      1.46182689824584
  H   -2.32545607808818     -0.87452627537746      0.96552532132263
  N   -1.54759917970826      0.79842335585209     -0.64383266771567
  H   -2.49411124071205      0.49271615860508     -0.79903572776114
  H   -1.11317793205753      1.31151758986931     -1.39632929970902
  N   1.52401469197052     -0.88057820366537      0.64342545735645
  O   2.62576688704966     -1.09500208503967      0.14968511233629
  O   1.10037548555582     -1.44748795049558      1.66291780773375
  N   1.31803803006813      1.10579572841622     -0.74173470457867
  O   0.74401203459798      1.58861755656520     -1.73039045416457
  O   2.40006209715764      1.49885162267780     -0.31949033253582
