14
Coordinates from ORCA-job run
  C   -0.74854502796540     -0.00300235761789     -0.06050722230296
  C   0.63671367335487     -0.06772343512879      0.09382452613282
  N   -1.52981052890032      0.74074756119863      0.77001832855109
  H   -1.05075725745224      1.25644498100969      1.49225772775958
  H   -2.33668072854982      1.17033984891031      0.34881006487781
  N   -1.42322956270545     -0.68332272296899     -1.00857460792982
  H   -2.37224352023830     -0.95395780961236     -0.81274915209156
  H   -0.89257878971752     -1.25712263891529     -1.64417200395621
  N   1.46303291689484     -1.03965178996122     -0.56622396274328
  O   1.07899399629344     -1.49628466005783     -1.65410818043784
  O   2.55129038296284     -1.29991596051748     -0.06471697784498
  N   1.35566514422964      0.94056527153763      0.83660908937860
  O   0.79911779317155      1.42861301752428      1.82999939633439
  O   2.46903150862188      1.26427069459931      0.43953297427236
