14
Coordinates from ORCA-job run
  C   -0.74508158376104     -0.03779355566387      0.03839414619944
  C   0.64347023930154      0.03133441456441     -0.03277485252549
  N   -1.45406599938033      0.49936779345851      1.06397012757878
  H   -0.92186029638837      0.99401843239328      1.76397441954752
  H   -2.36570396306615      0.85905566869310      0.83238979929115
  N   -1.49790384537160     -0.64829168211112     -0.91160197513619
  H   -0.99422261914152     -1.09100903197047     -1.66538850462521
  H   -2.34307052899961     -1.09252481915025     -0.59172740444569
  N   1.41720856832146     -0.82185340580158     -0.89553966879713
  O   0.89563411167075     -1.21151081253263     -1.95168980218606
  O   2.53915394792570     -1.14818486679674     -0.52201770675196
  N   1.41133805755729      0.96360928731809      0.75032817576703
  O   0.96664118286829      1.30001442139337      1.85860720017711
  O   2.44746272846358      1.40376815620592      0.26307604590670
