14
Coordinates from ORCA-job run
  C   -0.74367055093857      0.06133064182562     -0.00204463954998
  C   0.64611176018938     -0.05122790830861      0.00132096342068
  N   -1.55435645699138     -0.95258692815102     -0.38776756843235
  H   -2.43839082211310     -0.69519028429906     -0.79343803339721
  H   -1.10635955372947     -1.79753936574593     -0.70714409419118
  N   -1.38416419465698      1.19515570581056      0.37683647782840
  H   -0.80498335115854      1.94919145163070      0.71325714887140
  H   -2.29287856180389      1.08342653995316      0.79522653465724
  N   1.33374274420551     -1.09013024461415     -0.72158412602251
  O   0.76104805213370     -2.18224622085833     -0.85883274404949
  O   2.43750705060491     -0.82953917862677     -1.18829420535657
  N   1.49650749013264      0.85871951678892      0.72020608206649
  O   2.55337521189761      0.42817101570832      1.16927260119398
  O   1.09651118222816      2.02246525888658      0.88398560296110
