14
Coordinates from ORCA-job run
  C   -0.73897652351126     -0.00694302627304      0.10892894006888
  C   0.63815082636723      0.00713320674193     -0.09389895972341
  N   -1.54666931323296      1.01519924191880     -0.27332402463643
  H   -2.47587892741026      0.75907947934732     -0.56520179473001
  H   -1.09966933897034      1.77840169476705     -0.75893242511832
  N   -1.38112771121724     -1.04315701035378      0.70590284212837
  H   -0.79970873631496     -1.79889769450156      1.03573314217949
  H   -2.19307598095739     -0.80681142540311      1.25265918440431
  N   1.53170120948216     -0.87277769446674      0.61243856033414
  O   1.10479308699339     -1.98634001342112      0.95458610578987
  O   2.65741698003554     -0.45941706986866      0.87057432159207
  N   1.27364671149907      0.90148883124604     -1.02531363203386
  O   2.28972641840685      0.51175153972589     -1.59131605756842
  O   0.74067129883016      2.00228994054097     -1.23383620268668
