14
Coordinates from ORCA-job run
  C   -0.74307832985793     -0.05963468210455      0.05041258286191
  C   0.64127660430502      0.05142005913508     -0.04436586031066
  N   -1.35724242783051     -0.72604409656857      1.06093736753682
  H   -2.22135098589533     -1.18753338379849      0.82772897113091
  H   -0.75264831230803     -1.17772036258481      1.73057778924978
  N   -1.58651540120399      0.48888391295481     -0.86118109549181
  H   -1.15655143289291      1.02700085303513     -1.59852464191085
  H   -2.47223480216891      0.81103902408828     -0.50631894574445
  N   1.28313092836502      1.03372265220955     -0.87769250534933
  O   0.69485056432648      1.40033242955129     -1.90670063313167
  O   2.36218834799518      1.48322780907140     -0.50586130026900
  N   1.53657883521672     -0.80792949957171      0.68468389956742
  O   2.60980856491395     -1.09192356427658      0.16287462091699
  O   1.16078784703524     -1.24484115114083      1.78342975094394
