14
Coordinates from ORCA-job run
  C   -0.73536274426688     -0.04578673435540      0.05380218436718
  C   0.65389871286008      0.03716608429642     -0.05108205028013
  N   -1.55755933134265      0.79512834102414     -0.62203441991240
  H   -2.51528935153300      0.50299251101560     -0.72527941942585
  H   -1.14464126751409      1.26938739545152     -1.41109927541296
  N   -1.34240711476589     -0.97260365745126      0.83683145688247
  H   -2.30060169800417     -0.79240702601547      1.08737476505148
  H   -0.76178183669625     -1.38576718108321      1.55131169071860
  N   1.53349032880654     -0.87817076570293      0.62461505042573
  O   2.61319653341819     -1.13185096200544      0.10159271276013
  O   1.13916518416880     -1.39290753895176      1.68284737953731
  N   1.30610559689275      1.05069914060560     -0.83624370648410
  O   0.70299802648998      1.50225815613173     -1.82238591126660
  O   2.40878896148659      1.44286223704045     -0.47025045696089
