14
Coordinates from ORCA-job run
  C   -0.73003264330148     -0.06413421396303      0.09326110954180
  C   0.64988568007763      0.05351135037391     -0.07970783914367
  N   -1.45232779358385     -1.02868023328359     -0.53009706583702
  H   -2.44577346138462     -0.87818722148386     -0.59174482262696
  H   -1.01164716089106     -1.45093023614431     -1.33372631917777
  N   -1.42721693235707      0.77884166704643      0.89526495831082
  H   -2.33739516401340      0.46850314796340      1.19277882360147
  H   -0.88116568319735      1.28698275787495      1.57472552860380
  N   1.41443521676321      1.10573410938771      0.53460908860222
  O   2.41240406500254      1.51091795573564     -0.05151150566976
  O   1.00386489782907      1.57445352086806      1.60785557727427
  N   1.40545788866259     -0.86259428313268     -0.89085721841803
  O   0.82600691425929     -1.41917287352806     -1.83677272280687
  O   2.57350417613450     -1.07524544771458     -0.58407759225430
