14
Coordinates from ORCA-job run
  C   -0.73132880745232     -0.10429791001793      0.01121214977272
  C   0.64993074983765      0.09402666520143     -0.00761236358191
  N   -1.58148878085014      0.69906707200932     -0.67620008009957
  H   -1.16533167099606      1.23946907016322     -1.41978397310856
  H   -2.50307062224473      0.33369002890196     -0.85115224316415
  N   -1.30298059376012     -1.11153689910175      0.71770538627692
  H   -0.73121759163862     -1.51112713960859      1.44684693685856
  H   -2.28481335440207     -1.01856967136337      0.91952019176410
  N   1.56279531871522     -0.78301222997304      0.67516421480919
  O   2.68432225750809     -0.92986918235430      0.20156115131183
  O   1.15607442604628     -1.37476625864622      1.68738100094111
  N   1.26077482191632      1.18744725489811     -0.71518277190530
  O   2.30781404053780      1.64680933909478     -0.27196250825977
  O   0.67751980678270      1.63366986079640     -1.71549709161517
