14
Coordinates from ORCA-job run
  C   -0.72827832595883     -0.12142600912964     -0.02639207740007
  C   0.64736979578070      0.10874367546552      0.02464593522136
  N   -1.57606280797372      0.72964556169845     -0.65641770384096
  H   -1.21858422502369      1.65873498819006     -0.82132662324302
  H   -2.54978446395245      0.66033239429346     -0.41081632324038
  N   -1.29595740633205     -1.20939787697696      0.55197993740347
  H   -0.66943206978170     -1.97509058783817      0.75025032544997
  H   -2.21935228767107     -1.45667028736523      0.23651497993206
  N   1.54759252034838     -0.76191397084434      0.73238599563934
  O   2.55870741261407     -0.27014462838433      1.22162288219339
  O   1.23586537306354     -1.95790053948104      0.84373206860772
  N   1.26462040323985      1.23140308124317     -0.62912506351148
  O   0.58953395259982      2.26172415358706     -0.78049179719164
  O   2.41376212904715      1.10096004554198     -1.03656253601977
