14
Coordinates from ORCA-job run
  C   -0.73985464035624     -0.04978504054018      0.08825326622705
  C   0.63946742641968      0.04260977021100     -0.07692557665489
  N   -1.39322759251960      0.52489108355792      1.13003535246128
  H   -0.82852642800100      1.06369569472468      1.76934108546805
  H   -2.32661219578609      0.85295363905540      0.94258667001176
  N   -1.53841735894497     -0.72137213127078     -0.77980498118709
  H   -1.07381215711390     -1.19241518811237     -1.54151431316187
  H   -2.35104682623068     -1.16503340793436     -0.38384263668118
  N   1.43493225435975      1.02747552218350      0.60784104616008
  O   2.42866037522836      1.46092731703005      0.03393162699834
  O   1.05399366512540      1.41210941088842      1.72421855538653
  N   1.37517809697737     -0.83902161423064     -0.94422042269578
  O   2.52556312474753     -1.12483606376974     -0.62852809799985
  O   0.79570225609438     -1.29219899179290     -1.94337157433242
