14
Coordinates from ORCA-job run
  C   -0.74388051069898     -0.00286252042773      0.06571483758382
  C   0.64300967062268      0.00206985783298     -0.05623845969686
  N   -1.38893541631458     -0.65125918846598      1.06858045380644
  H   -0.80929362572533     -1.17174198000711      1.70971487930834
  H   -2.29246153203594     -1.03356473375020      0.84171262103960
  N   -1.55866472590039      0.64067440914145     -0.80861135814707
  H   -2.41055015062220      1.01810108929520     -0.42676390415634
  H   -1.10358262678053      1.16369580358984     -1.54159123929946
  N   1.48255914220666     -0.94744330987891      0.62516893930506
  O   1.09245704604229     -1.39487603067869      1.71470600664237
  O   2.52273337184571     -1.29188643223325      0.07368587353670
  N   1.34289810866497      0.95772418177188     -0.87386306663305
  O   2.45915481563056      1.31370243798904     -0.51055432352759
  O   0.76655643306509      1.39766641582147     -1.88066125976196
