14
Coordinates from ORCA-job run
  C   -0.71519201360419     -0.03891057881452      0.06146760815421
  C   0.68965125689441     -0.06275909903106     -0.27755340946937
  N   -1.15088005276562     -0.33307313841059      1.28072217110619
  H   -0.48463151905748     -0.74406340423271      1.91280714325842
  H   -2.12119163219916     -0.55058423829615      1.44667764526238
  N   -1.59203654958891      0.29543022921054     -0.87795058218613
  H   -1.21557803573139      0.61192851535424     -1.75594797746988
  H   -2.52606191245321      0.59353585931784     -0.64175327979855
  N   1.46045447912472     -1.16230651562728      0.18486096510631
  O   0.80458961454668     -2.10083817521762      0.67857472576271
  O   2.68166936019716     -1.16861155907242      0.05691385746611
  N   1.25891194250961      1.20142641613147     -0.60012293517613
  O   0.44829831700457      2.14746505565456     -0.65404755130238
  O   2.46199674512281      1.31336063303371     -0.81364838071388
