14
Coordinates from ORCA-job run
  C   -0.73488094196793     -0.07248995992506     -0.01388945459113
  C   0.65381994446747      0.06457552556305      0.01057533700359
  N   -1.52871335335357      0.77654062524147     -0.71299289872251
  H   -2.45994646630569      0.45513142693974     -0.91986705602944
  H   -1.06712406973027      1.31253843644718     -1.43258167661377
  N   -1.37030272777586     -1.06457073482594      0.65931477424231
  H   -2.35270147582254     -0.93119558255405      0.83415608956486
  H   -0.83913172624488     -1.49812008740244      1.39965123883072
  N   1.50528571817010     -0.86166380951871      0.70822460095964
  O   2.63110991199162     -1.05670584517351      0.26319477757305
  O   1.04366807608763     -1.44356905936271      1.70231918758364
  N   1.33371635897597      1.14137404844266     -0.65734262488266
  O   2.39061180309756      1.54010058016697     -0.18040104718668
  O   0.79658894841039      1.63705443596136     -1.66036124773162
