14
Coordinates from ORCA-job run
  C   -0.74137502742103     -0.03167295613754      0.08573389290478
  C   0.64029858589659      0.02728539865263     -0.07428881440512
  N   -1.33350955229592     -0.71454655878700      1.09860849712258
  H   -0.71649998751960     -1.21940588474927      1.71700810055758
  H   -2.22610739883080     -1.13146290972581      0.88993389237498
  N   -1.60380014728845      0.58899632764430     -0.75868183771338
  H   -2.45938884643776      0.92812499339417     -0.35008191375884
  H   -1.18984001018130      1.13739320141663     -1.49746327148411
  N   1.53354942543410     -0.89628781486422      0.57402354414353
  O   2.56975108311450     -1.19646061494158     -0.00980156080814
  O   1.19176373803646     -1.36742884429877      1.66971769438689
  N   1.28085881518988      1.01787214301791     -0.89877753374791
  O   2.39308451518453      1.41098306995987     -0.56254635360470
  O   0.66021480711882      1.44761044941867     -1.88338433596813
