14
Coordinates from ORCA-job run
  C   -0.73561725312727     -0.12808739695524     -0.02517807659712
  C   0.63498752315277      0.11123884333555      0.02231729103791
  N   -1.52991976072607      0.35429171547103     -1.01461313083357
  H   -1.08007359178512      0.93779967081775     -1.70390707243949
  H   -2.47389822447108      0.58700149820947     -0.75229125750292
  N   -1.38416639195024     -0.86234294299133      0.91431983613371
  H   -2.17413386170546     -1.39740783201336      0.59230180346976
  H   -0.81068498359096     -1.26722435147084      1.63900013486091
  N   1.52855703564299     -0.67299688052128      0.83335148539851
  O   2.67166676621194     -0.84595817690823      0.42339047581868
  O   1.08559699228007     -1.16223679550456      1.88396569409102
  N   1.26337164110184      1.15972900981085     -0.73734509269649
  O   0.75203422593433      1.48265774998907     -1.82066598096420
  O   2.25127988303226      1.70353588873111     -0.25464610977670
