14
Coordinates from ORCA-job run
  C   -0.73686056291051      0.05090179094528     -0.01664811943241
  C   0.65523309985472     -0.04290204819766      0.01254466351871
  N   -1.41238764051305      0.94648356100690      0.74628014942988
  H   -0.90332921339036      1.31920871516396      1.53377455419104
  H   -2.39199074789124      0.76567578368137      0.89137387734353
  N   -1.49385717593282     -0.74784138518409     -0.81005072376362
  H   -2.43285576129460     -0.43663204684327     -0.99660947790348
  H   -1.00663551911275     -1.18850706172831     -1.57598131589070
  N   1.37624676018026     -1.02438155771333     -0.75283724405109
  O   2.43581405176660     -1.44373285845168     -0.30001260448327
  O   0.87116706675191     -1.42251398980328     -1.81417481981570
  N   1.46935165033944      0.83022423299378      0.81503186562452
  O   0.97655884555354      1.29543615375617      1.85461831466017
  O   2.59554514659888      1.09958071037415      0.41169088057243
