14
Coordinates from ORCA-job run
  C   -0.73465615997924      0.01435892190860      0.13535863493173
  C   0.63370225104931     -0.01511703832133     -0.11962202825492
  N   -1.51680638090190      1.07689279151901     -0.18355818936285
  H   -1.06024879457093      1.84201227738105     -0.65692705673895
  H   -2.46576377550631      0.86633187281815     -0.44662773752812
  N   -1.39331558315226     -1.01821308822674      0.72082358920959
  H   -0.82755167684251     -1.80307364392082      1.00721405153018
  H   -2.17522056486063     -0.77091076714899      1.30530980791576
  N   1.51989020494699     -0.94760946161404      0.52549200236401
  O   1.06395269365493     -2.05349429561709      0.85500955368211
  O   2.67038365578211     -0.58496595354454      0.74801257415032
  N   1.26757223288035      0.89050691805848     -1.04121802881110
  O   2.24460326776371      0.48483450635740     -1.66217773185583
  O   0.77145862973638      2.01844696035088     -1.18608944123193
