14
Coordinates from ORCA-job run
  C   -0.74104142972084     -0.09078135700741      0.02415395043865
  C   0.64016455610227      0.07763637671383     -0.02088564994645
  N   -1.57534352836520      0.44259161826780     -0.90465040264925
  H   -1.14363600802631      1.00838576160275     -1.61981213297642
  H   -2.48481269764042      0.72286266814230     -0.57545806466210
  N   -1.36080010410690     -0.80076372966168      1.00067856241999
  H   -2.19935727130133     -1.28918962615721      0.73205817072509
  H   -0.76175360491426     -1.24067144237121      1.68296219468018
  N   1.54539791438531     -0.75885067020703      0.72208813441097
  O   1.14975331400924     -1.23670159009891      1.79658021974094
  O   2.64829816492193     -0.98415339284275      0.23472274155335
  N   1.26853445592745      1.10050740828135     -0.81509069680289
  O   2.31232178224512      1.59021520722289     -0.39628946981870
  O   0.70327445648394      1.45791276811530     -1.86005755711336
