14

C	-0.226829	-0.052789	-1.49351
C	0.0	0.0	0.0
Cl	-0.08418	1.694989	-2.139641
H	1.093964	0.0	0.0
H	-0.409922	0.896429	0.458891
N	0.655517	-0.956711	-2.051286
H	0.653951	-0.956289	-3.061151
H	1.59171	-0.81521	-1.635425
N	-1.66336	-0.390901	-1.917235
O	-2.562733	-0.089823	-1.140491
O	-1.80756	-0.912382	-3.020122
C	-0.480213	-1.198997	0.660746
N	-0.84804	-2.164048	1.221214
H	2.705255	0.0	0.0
