14

C	-0.228505	-0.014777	-1.497093
C	0.0	0.0	0.0
Cl	-0.242542	1.713839	-2.152811
H	1.094364	0.0	0.0
H	-0.312029	-0.967808	0.399885
N	0.729229	-0.845657	-2.061817
H	0.750159	-0.798818	-3.070247
H	1.650069	-0.664017	-1.62081
N	-1.62125	-0.514189	-1.917226
O	-1.748144	-0.860384	-3.086877
O	-2.500265	-0.540246	-1.062484
C	-0.604841	1.074546	0.751743
N	-1.051614	1.944624	1.402355
H	2.713138	0.0	0.0
