14

C	-0.562033	-0.001735	-1.399109
C	0.0	0.0	0.0
Cl	0.194604	-1.401258	-2.286358
H	1.089536	0.0	0.0
H	-0.276606	-0.956236	0.459141
N	-1.976067	-0.004979	-1.465674
H	-2.349812	-0.750573	-0.893881
H	-2.288396	-0.100925	-2.425407
N	-0.135603	1.238329	-2.18563
O	0.619274	2.030741	-1.641849
O	-0.613873	1.336566	-3.315904
C	-0.541318	1.081475	0.804303
N	-0.964761	1.934206	1.492838
H	2.705818	0.0	0.0
