14

C	-0.272975	-0.092148	-1.497221
C	0.0	0.0	0.0
Cl	-0.01818	1.478886	-2.262229
H	1.092926	0.0	0.0
H	-0.303304	-0.949652	0.453362
N	0.560378	-1.066639	-2.135139
H	0.320663	-1.970859	-1.741422
H	1.513733	-0.847025	-1.816646
N	-1.739727	-0.520192	-1.715852
O	-1.952865	-1.71462	-1.510568
O	-2.590892	0.314881	-1.987773
C	-0.61548	1.106721	0.697667
N	-1.099592	1.995383	1.296109
H	2.695975	0.0	0.0
