14

C	-0.246068	-0.047995	-1.491594
C	0.0	0.0	0.0
Cl	-0.223414	1.661852	-2.189907
H	1.092404	0.0	0.0
H	-0.311679	-0.95769	0.42517
N	0.685472	-0.915979	-2.046889
H	0.686077	-0.899677	-3.057698
H	1.614806	-0.731682	-1.631623
N	-1.655652	-0.524785	-1.882621
O	-1.80361	-0.894585	-3.043797
O	-2.523847	-0.511968	-1.015364
C	-0.59542	1.092475	0.734198
N	-1.024976	1.975396	1.379402
H	2.708869	0.0	0.0
