15

C	0.0	0.0	0.0
C	-0.394205	0.185625	-1.472664
F	1.355549	0.0	0.0
H	-0.499639	-0.823805	-1.886154
H	-1.394131	0.608542	-1.455875
N	-0.396214	1.18166	0.862265
O	-0.504722	2.270225	0.310639
O	-0.422579	0.992407	2.073512
C	-0.505715	-1.230509	0.610316
N	-0.587974	-2.313745	1.063751
C	0.620273	0.985452	-2.288096
H	0.217227	1.142281	-3.291986
H	0.791665	1.9659	-1.842425
H	1.581426	0.478784	-2.388889
F	-2.36791	0.0	0.0
