15

C	0.0	0.0	0.0
C	-0.389701	-0.002862	-1.480534
F	1.355384	0.0	0.0
H	-1.471851	-0.129708	-1.481834
H	0.10131	-0.910535	-1.856384
N	-0.413592	1.203069	0.819457
O	-0.432273	1.039594	2.034933
O	-0.531066	2.279221	0.248937
C	-0.48348	-1.210145	0.677007
N	-0.59791	-2.284683	1.141482
C	0.078602	1.194546	-2.303371
H	-0.582274	2.045698	-2.156715
H	1.096764	1.504157	-2.054817
H	0.060356	0.922927	-3.364006
F	-2.423976	0.0	0.0
