15

C	0.0	0.0	0.0
C	-0.204439	-0.085213	-1.540246
F	1.358985	0.0	0.0
H	0.523797	0.644189	-1.91007
H	0.22303	-1.069027	-1.775779
N	-0.398555	1.320927	0.601602
O	-0.47423	1.370331	1.824552
O	-0.456532	2.283324	-0.155777
C	-0.521771	-1.108664	0.790776
N	-0.607662	-2.111226	1.402457
C	-1.500079	0.101506	-2.308108
H	-1.936972	1.071933	-2.092794
H	-2.234199	-0.646058	-2.033718
H	-1.247	0.037585	-3.377108
F	-2.290304	0.0	0.0
