15

C	0.0	0.0	0.0
C	-0.380657	-0.014392	-1.485515
F	1.355427	0.0	0.0
H	-1.468321	-0.052717	-1.495076
H	0.028081	-0.973169	-1.831627
N	-0.421147	1.224472	0.780101
O	-0.424856	1.106797	2.001444
O	-0.577921	2.272763	0.169663
C	-0.490626	-1.192186	0.701551
N	-0.594716	-2.25381	1.195944
C	0.210577	1.111975	-2.329145
H	-0.36801	2.026602	-2.217606
H	1.24917	1.329437	-2.068387
H	0.189461	0.815775	-3.382668
F	-2.41823	0.0	0.0
