15

C	0.0	0.0	0.0
C	-0.211414	-0.083657	-1.53549
F	1.358978	0.0	0.0
H	0.22918	-1.06036	-1.784431
H	0.50819	0.655686	-1.906945
N	-0.427285	1.310643	0.591442
O	-0.52804	2.265648	-0.166643
O	-0.466764	1.369402	1.81463
C	-0.530362	-1.090534	0.813984
N	-0.671142	-2.057852	1.466821
C	-1.513423	0.098935	-2.287408
H	-1.954981	1.064179	-2.046389
H	-2.234536	-0.657496	-1.993272
H	-1.285525	0.043192	-3.363437
F	-2.320482	0.0	0.0
