15

C	0.0	0.0	0.0
C	-0.210582	0.219331	-1.526306
F	1.358778	0.0	0.0
H	0.56046	0.960497	-1.761421
H	0.153076	-0.725606	-1.952123
N	-0.387839	1.181411	0.849268
O	-0.490625	0.989775	2.055642
O	-0.407398	2.276793	0.297209
C	-0.52704	-1.237708	0.561549
N	-0.598239	-2.337887	0.976846
C	-1.493463	0.631879	-2.225449
H	-1.246414	0.789401	-3.286625
H	-1.880894	1.555573	-1.804671
H	-2.264467	-0.119875	-2.110467
F	-2.286329	0.0	0.0
