15

C	0.0	0.0	0.0
C	-0.226005	-0.023658	-1.540331
F	1.359077	0.0	0.0
H	0.029447	-1.057596	-1.806858
H	0.605487	0.588067	-1.906199
N	-0.379616	1.301817	0.657189
O	-0.362585	2.300898	-0.055646
O	-0.508792	1.299808	1.875679
C	-0.526308	-1.130978	0.755947
N	-0.600068	-2.146463	1.348164
C	-1.480427	0.400434	-2.284257
H	-2.310786	-0.253694	-2.052289
H	-1.771714	1.408587	-2.001322
H	-1.242151	0.382178	-3.358602
F	-2.28505	0.0	0.0
