18

C	-0.310239	-0.024159	-1.51959
C	0.0	0.0	0.0
Br	-2.275607	-0.281247	-1.838498
H	1.099167	0.0	0.0
C	0.009317	1.252174	-2.153431
N	0.268716	2.280226	-2.661698
C	0.43258	-1.155589	-2.219924
H	0.258069	-1.131741	-3.297447
H	1.500475	-1.031887	-2.002729
H	0.093067	-2.116166	-1.83122
N	-0.406107	-1.205857	0.70109
H	-1.353311	-1.473437	0.452574
H	0.227031	-1.967218	0.491277
C	-0.544804	1.225437	0.706639
H	-0.211698	2.150663	0.232839
H	-1.639244	1.211493	0.728117
H	-0.178573	1.208026	1.733325
Cl	3.433179	0.0	0.0
