18

C	-0.473862	-0.011821	-1.483485
C	0.0	0.0	0.0
Br	0.442352	1.402204	-2.506955
H	1.095274	0.0	0.0
C	-0.09857	-1.282868	-2.102772
N	0.135401	-2.332037	-2.579718
C	-1.976731	0.206135	-1.65924
H	-2.255087	0.121731	-2.710871
H	-2.25274	1.198747	-1.303658
H	-2.535368	-0.545621	-1.093423
N	-0.415486	-1.201038	0.713434
H	0.15407	-1.98787	0.429988
H	-1.391524	-1.424305	0.563598
C	-0.495748	1.225951	0.75181
H	0.023436	1.250883	1.710345
H	-0.275446	2.150526	0.215259
H	-1.572073	1.170806	0.950247
Cl	3.451209	0.0	0.0
