18

C	-0.5416	0.004942	-1.446605
C	0.0	0.0	0.0
Br	0.302598	1.456209	-2.475344
H	1.099864	0.0	0.0
C	-0.171604	-1.243336	-2.115599
N	0.069131	-2.281439	-2.612534
C	-2.056502	0.176963	-1.523333
H	-2.511984	-0.588993	-0.893037
H	-2.403746	0.067979	-2.552406
H	-2.34041	1.16648	-1.163313
N	-0.517422	-1.237594	0.618676
H	0.138157	-1.981969	0.397952
H	-0.465834	-1.119187	1.625247
C	-0.48075	1.19768	0.802698
H	-1.547168	1.12059	1.039047
H	-0.291314	2.134116	0.276427
H	0.082927	1.231375	1.73926
Cl	3.467712	0.0	0.0
