18

C	-0.379668	0.028015	-1.508774
C	0.0	0.0	0.0
Br	0.209619	-1.660614	-2.356755
H	1.096601	0.0	0.0
C	-1.83177	0.06101	-1.673789
N	-3.004605	0.118881	-1.75003
C	0.307925	1.17051	-2.249921
H	-0.106988	2.126215	-1.921941
H	0.162248	1.080271	-3.327553
H	1.374367	1.133089	-2.011367
N	-0.484314	-1.149701	0.738708
H	-1.470804	-1.307398	0.55674
H	0.031035	-1.974001	0.458107
C	-0.489113	1.270275	0.690582
H	-0.190024	1.198101	1.736591
H	-1.58099	1.361852	0.648651
H	-0.037255	2.170094	0.271516
Cl	3.458841	0.0	0.0
