18

C	-0.47748	-0.009617	-1.481466
C	0.0	0.0	0.0
Br	0.438094	1.406631	-2.504758
H	1.095252	0.0	0.0
C	-0.114326	-1.280545	-2.107896
N	0.108603	-2.339584	-2.567846
C	-1.980415	0.210015	-1.653507
H	-2.256514	1.201494	-1.29515
H	-2.260836	0.126546	-2.704564
H	-2.536136	-0.544319	-1.08802
N	-0.410406	-1.203157	0.713429
H	-1.391499	-1.419971	0.57533
H	0.151999	-1.992824	0.41835
C	-0.497152	1.223448	0.754246
H	-1.572478	1.164214	0.957062
H	0.026157	1.250778	1.710424
H	-0.283251	2.149017	0.216837
Cl	3.465677	0.0	0.0
