14

C	0.0	0.0	0.0
C	-0.429128	0.171952	-1.461563
F	1.429315	0.0	0.0
H	-1.534376	0.192404	-1.423536
H	-0.089528	-0.690338	-2.039703
N	-0.413473	1.056598	0.87464
H	-0.110793	1.952506	0.503172
H	-1.442567	1.012667	0.841379
N	-0.481867	-1.26931	0.435056
H	-1.508952	-1.183943	0.317567
H	-0.325177	-1.295084	1.439135
C	0.088953	1.39947	-2.048778
N	0.471775	2.399687	-2.531527
H	-2.988344	0.0	0.0
