14

C	0.0	0.0	0.0
C	-0.494339	0.025536	-1.448691
F	1.404235	0.0	0.0
H	-1.602884	0.029283	-1.321755
H	-0.176689	0.940831	-1.956648
N	-0.41526	1.222265	0.617226
H	-0.291761	1.120306	1.616715
H	0.162674	1.981493	0.274478
N	-0.522807	-1.072032	0.774556
H	-0.315244	-1.950013	0.311194
H	-1.55363	-0.915591	0.714975
C	-0.04451	-1.132707	-2.205409
N	0.31787	-2.074859	-2.805442
H	-3.130646	0.0	0.0
