14

C	0.0	0.0	0.0
C	-0.426141	0.210484	-1.456717
F	1.429264	0.0	0.0
H	-0.086528	-0.638417	-2.05416
H	-1.530603	0.234879	-1.423374
N	-0.416704	1.031151	0.903177
H	-1.44684	0.982866	0.868614
H	-0.123194	1.940957	0.554549
N	-0.480293	-1.280408	0.402176
H	-1.506968	-1.195576	0.285714
H	-0.323824	-1.333138	1.405183
C	0.096716	1.451988	-2.011027
N	0.477498	2.460071	-2.478645
H	-2.991929	0.0	0.0
