14

C	0.0	0.0	0.0
C	-0.430872	-0.312272	-1.43627
F	1.429019	0.0	0.0
H	-0.090797	0.488582	-2.096113
H	-1.536014	-0.326506	-1.395937
N	-0.481424	1.303794	0.314606
H	-1.509197	1.206179	0.21279
H	-0.314949	1.425027	1.310828
N	-0.412969	-0.969272	0.972442
H	-0.113574	-1.896618	0.685598
H	-1.442563	-0.930346	0.93286
C	0.084152	-1.591883	-1.901774
N	0.476085	-2.629992	-2.287182
H	-2.98791	0.0	0.0
