14

C	-0.599372	-0.025893	-1.396873
C	0.0	0.0	0.0
Cl	-0.080083	1.564439	-2.161304
H	1.08835	0.0	0.0
H	-0.375997	0.875785	0.528202
C	-0.067897	-1.077238	-2.269328
N	0.30494	-1.865928	-3.054263
N	-2.013308	-0.170096	-1.325568
H	-2.417459	0.546452	-0.73657
H	-2.440747	-0.147426	-2.243329
N	-0.494454	-1.18231	0.75005
O	-0.165311	-2.287514	0.330051
O	-1.207554	-0.975585	1.734303
Cl	3.302305	0.0	0.0
