14

C	-0.350174	-0.03584	-1.495201
C	0.0	0.0	0.0
Cl	-2.095219	-0.479785	-1.715859
H	1.09233	0.0	0.0
H	-0.425816	0.852833	0.522625
C	-0.21323	1.339335	-1.998208
N	-0.11307	2.441106	-2.391632
N	0.458107	-0.912779	-2.303491
H	0.378282	-1.840498	-1.898582
H	1.428942	-0.627878	-2.157771
N	-0.451868	-1.213452	0.712136
O	-0.242363	-2.304962	0.183046
O	-0.992213	-1.058505	1.806002
Cl	3.245023	0.0	0.0
