15

C	-0.508009	-0.02476	-1.452931
C	0.0	0.0	0.0
Cl	-2.275703	-0.146735	-1.503962
H	1.094069	0.0	0.0
N	-0.066519	1.306659	-2.109518
O	-0.905721	2.166274	-2.30551
O	1.129726	1.354399	-2.341993
C	0.07152	-1.115487	-2.228983
N	0.521942	-1.993284	-2.869858
C	-0.453481	-1.221194	0.678572
N	-0.839421	-2.156148	1.277614
N	-0.419594	1.233741	0.627382
H	-1.316836	1.148227	1.08331
H	0.286136	1.510752	1.296011
Br	3.365495	0.0	0.0
