15

C	-0.416754	0.003365	-1.495903
C	0.0	0.0	0.0
Cl	-2.164689	-0.07388	-1.71517
H	1.09512	0.0	0.0
N	0.11633	1.342731	-2.066093
O	1.336821	1.41019	-2.096035
O	-0.679173	2.226143	-2.347286
C	0.23075	-1.068833	-2.241227
N	0.755836	-1.950157	-2.817665
C	-0.464821	-1.248974	0.581414
N	-0.847393	-2.261632	1.049168
N	-0.462187	1.119832	0.762449
H	0.030806	1.971068	0.523513
H	-1.463795	1.256726	0.706557
Br	2.750744	0.0	0.0
