15
Coordinates from ORCA-job run
  C   0.63676133575989      0.02355167140217      0.87819427096086
  C   -0.41734554372592      0.48332997118495     -0.12351877670214
  F   1.25813086636382      1.14252865309351      1.42093741794285
  H   0.10600935068864      1.00907368361729     -0.92930036625903
  H   0.13515737160818     -0.48980822074411      1.71246166127467
  C   1.70080724682310     -0.86256070290280      0.27308503759771
  H   1.26654929177076     -1.78125694593367     -0.11611806200065
  H   2.19291885967594     -0.33468052402074     -0.54707288392928
  H   2.45173339294708     -1.10115268243869      1.02854414444499
  N   -1.30192151854755      1.44757332614816      0.51090123808398
  H   -1.99880138888759      1.76992774926565     -0.14963538382078
  H   -1.78533783969523      1.01916666380315      1.29273310844591
  N   -1.01913074180211     -0.71410485515040     -0.71333578260026
  H   -1.60614511531167     -0.45151794316510     -1.49616673570495
  H   -1.61938556766733     -1.16006984415936     -0.02670888773388
