15
Coordinates from ORCA-job run
  C   0.57376951596758     -0.02535879510899      0.80409246775307
  C   -0.51272538009274      0.41265078930882     -0.17309066270129
  F   1.07531822003775      1.13429404936330      1.41220923370929
  H   -0.01960118600636      0.98004772439932     -0.97086417526232
  H   0.11431466817108     -0.61619081891184      1.60923851075625
  C   1.72176267883927     -0.76830613929652      0.16691449644119
  H   1.36438082174529     -1.68624422220299     -0.29786504550106
  H   2.18036894629372     -0.14396594515197     -0.60331432091425
  H   2.48003794966420     -1.00746676681927      0.91484305059491
  N   -1.51330312486367      1.30300091018788      0.41064284618316
  H   -1.93761548261030      0.84730123690381      1.21345962663126
  H   -1.05441932206219      2.13854165520259      0.75712865476058
  N   -1.09662761840951     -0.77448158846976     -0.76458198660681
  H   -1.81047933685315     -0.48102087393874     -1.42153131090089
  H   -1.56718134982097     -1.31280121546563     -0.04328138494308
