15
Coordinates from ORCA-job run
  C   0.71509674116760      0.12802351313862      0.83310576787775
  C   -0.48225432978723      0.51093179051113     -0.02673141946984
  F   1.48154516683594      1.27439613873069      1.02708255387053
  H   -0.08864919929752      1.09744196874533     -0.87107628256347
  H   0.35338071227939     -0.18977493341147      1.81725964781381
  C   1.60595909585904     -0.93073182091404      0.22218989281268
  H   2.50493741968270     -1.04430987522965      0.82973935382014
  H   1.09388568237694     -1.89266161568622      0.18131295251056
  H   1.91456391748684     -0.63651547105416     -0.78503719284179
  N   -1.35150732271775      1.38394512512476      0.72947476802385
  H   -1.99858501582302      1.86700329407326      0.11943650665427
  H   -1.88687845973006      0.82597895525968      1.38574123179703
  N   -1.17494403120551     -0.71746264940110     -0.43789077711723
  H   -0.63467549664618     -1.21722004095386     -1.13593055830318
  H   -2.05287488048120     -0.45904437893297     -0.87367644488512
