15
Coordinates from ORCA-job run
  C   0.50027795026848     -0.32137736306074      1.06013035503981
  C   -0.75801125617486      0.27338646941314      0.43186124423517
  F   0.86426702473443      0.48249075105115      2.13864310922149
  H   -1.40680817261161      0.57050865450467      1.26873533784471
  H   0.25226688753944     -1.30397266393036      1.48131305792429
  C   1.66903815013906     -0.42509721828297      0.11233223832143
  H   2.51440750143001     -0.90522204488239      0.60788100400062
  H   1.97023512455001      0.57659659562418     -0.19534265247337
  H   1.39084253447425     -1.01197574755295     -0.76479475689110
  N   -1.34975095694525     -0.74984266872679     -0.43622768956109
  H   -1.61001609850999     -1.56915326721015      0.10324179826057
  H   -2.19793775767066     -0.38220407078762     -0.85188021593673
  N   -0.44446452147508      1.47712030564080     -0.30664540220196
  H   -1.26200266643297      2.06573419588446     -0.39670587204861
  H   -0.13134374331526      1.22300807231557     -1.23654155573524
