15
Coordinates from ORCA-job run
  C   0.66606724508039      0.12841623254651      0.72494950597063
  C   -0.58890619493498      0.39777697885679     -0.09523734961649
  F   1.33535794584085      1.35531452714736      0.85436422958813
  H   -0.25978100238812      0.83632696491129     -1.05189474733542
  H   0.36402413843746     -0.17837700711648      1.73204525941803
  C   1.61860540476213     -0.86950550508317      0.11062759592481
  H   1.85482758185071     -0.58848755759589     -0.91917125635753
  H   1.18267346963171     -1.86998201248872      0.12273317352065
  H   2.54947709040717     -0.89633300973810      0.67940041792550
  N   -1.49209730005216      1.35720950090584      0.51433831646064
  H   -1.00442620213855      2.23414122423411      0.65060748290969
  H   -1.76244179924499      1.00686364160480      1.42822724044019
  N   -1.33195582381072     -0.84602165781935     -0.23371485126964
  H   -2.24724171355853     -0.60870823929276     -0.59898027378073
  H   -0.88318283988237     -1.45863408107224     -0.90329474379846
