15
Coordinates from ORCA-job run
  C   0.43747806289973     -0.23066060437444      1.03645480646553
  C   -0.85198487633157      0.26703869020444      0.38251741422003
  F   0.87068794863248      0.78708436001859      1.90490292348500
  H   -1.55585061396400      0.46812581266124      1.20635134160397
  H   0.20015041731100     -1.09250990992178      1.67124271409614
  C   1.56350282339717     -0.55331007011124      0.08366979081271
  H   1.30733287554284     -1.41068051251295     -0.54199159268853
  H   1.77003044518517      0.30129257188173     -0.55884206135003
  H   2.46066270807694     -0.80609094791640      0.65130724126137
  N   -1.49663203303290     -0.68507626870153     -0.50211575528202
  H   -0.87795575241631     -0.90045104822950     -1.27443062943146
  H   -1.73465361411424     -1.53989462530476     -0.01460691645527
  N   -0.54703571707823      1.44108951348300     -0.41440574840917
  H   -1.41323959303042      1.80495666315872     -0.79258003792212
  H   -0.13149308107767      2.15008637566488      0.17752650959386
