15
Coordinates from ORCA-job run
  C   0.45053964419142     -0.23722715504717      1.03832158048409
  C   -0.86202894954351      0.20561879333619      0.38915836110272
  F   0.79149500340370      0.75807463387923      1.96610536452405
  H   -1.55799455069754      0.40778836020341      1.21882794361468
  H   0.27491074451067     -1.15061097061172      1.62082064446539
  C   1.60421701486473     -0.42766534186416      0.08602194448206
  H   1.33918064982158     -1.15649763328023     -0.68021865587921
  H   1.85731804933793      0.51830840040450     -0.39534206575727
  H   2.48565063146747     -0.77477883477410      0.62762363660789
  N   -1.31034827900752     -0.84119325513632     -0.51565102712511
  H   -1.54112330213056     -1.68211480105403      0.00065988005954
  H   -2.15340881223035     -0.51487623103266     -0.97351726102577
  N   -0.78845379083713      1.42686469106454     -0.38770415398828
  H   -0.43264526475541      2.17898584457274      0.18942096068482
  H   -0.15830878839545      1.29032349933979     -1.16952715224960
