15
Coordinates from ORCA-job run
  C   0.54888682802815     -0.29711479913975      1.08518643589938
  C   -0.78010518714852      0.22408223429781      0.54659550641482
  F   1.00760858084051      0.58967181299900      2.05652860576081
  H   -1.38358584219473      0.46444429369220      1.42696765366862
  H   0.35194191969548     -1.24804398966454      1.58667984172820
  C   1.63420955946758     -0.44674499481180      0.04249595279887
  H   1.33682137118946     -1.13646373352410     -0.75178810389421
  H   2.53850788758263     -0.84311837498853      0.50654001928265
  H   1.87242886065992      0.52849830189491     -0.38416961676783
  N   -1.45246356450294     -0.87687079986775     -0.14365558049771
  H   -0.99845673921204     -1.05506061986501     -1.03291523939729
  H   -2.41041441999116     -0.61735343900473     -0.34656571256723
  N   -0.57943984626817      1.47003652181380     -0.18126040099887
  H   -1.45850286236181      1.96216807017078     -0.28121519173354
  H   -0.22643654578436      1.28186951599771     -1.11242416969667
