17

C	-0.662461	-0.036832	-1.374167
C	0.0	0.0	0.0
F	-2.020585	0.221901	-1.170695
H	1.089221	0.0	0.0
N	-0.182993	1.059654	-2.328041
O	-1.044898	1.690146	-2.933797
O	1.024712	1.153453	-2.455621
N	-0.427876	-1.257138	-2.005648
H	-1.047067	-1.394119	-2.792968
H	-0.488306	-2.002306	-1.323399
N	-0.422916	-1.149929	0.736177
H	0.280469	-1.364995	1.430948
H	-1.30555	-0.977048	1.199999
N	-0.425752	1.302551	0.662723
O	-0.228236	2.332146	0.027589
O	-0.922983	1.244001	1.786013
Br	3.418312	0.0	0.0
