17

C	-0.68398	-0.048325	-1.362237
C	0.0	0.0	0.0
F	-2.040462	0.200521	-1.13463
H	1.089173	0.0	0.0
N	-0.232083	1.046823	-2.329653
O	-1.11023	1.66448	-2.92463
O	0.972077	1.152372	-2.477997
N	-0.453001	-1.270472	-1.992024
H	-1.091198	-1.416551	-2.762525
H	-0.495482	-2.01077	-1.302808
N	-0.408084	-1.148564	0.749069
H	0.313073	-1.362767	1.425202
H	-1.277432	-0.973907	1.235514
N	-0.419969	1.303046	0.663912
O	-0.876895	1.249395	1.804208
O	-0.25511	2.329234	0.013953
Br	3.409194	0.0	0.0
