17

C	-0.28432	-0.0952	-1.511624
C	0.0	0.0	0.0
F	-0.225303	-1.46186	-1.841922
H	1.091926	0.0	0.0
N	-1.738719	0.207585	-1.893204
O	-2.600471	-0.258109	-1.149948
O	-1.950255	0.822243	-2.933391
N	0.569524	0.710549	-2.227781
H	1.521283	0.668786	-1.866395
H	0.508071	0.581929	-3.226497
N	-0.500144	-1.018861	0.846068
H	0.137711	-1.801897	0.829799
H	-1.431721	-1.304454	0.581078
N	-0.469886	1.355697	0.474759
O	0.233925	2.323614	0.20201
O	-1.537076	1.397785	1.085826
Br	3.440055	0.0	0.0
