17

C	-0.273211	0.005218	-1.507713
C	0.0	0.0	0.0
F	-0.000422	-1.285054	-1.967623
H	1.092115	0.0	0.0
N	-1.750824	0.147187	-1.887969
O	-2.074964	1.039832	-2.662544
O	-2.505219	-0.698094	-1.415418
N	0.472938	1.012485	-2.095374
H	1.444604	0.962003	-1.787862
H	0.385904	1.046745	-3.100453
N	-0.525045	-1.059183	0.786142
H	-1.386729	-1.420457	0.401695
H	0.170139	-1.787312	0.866389
N	-0.493829	1.315608	0.539739
O	0.32018	2.115492	0.985113
O	-1.716741	1.476255	0.513573
Br	3.448594	0.0	0.0
