17

C	-0.515498	-0.000802	-1.43802
C	0.0	0.0	0.0
F	0.017127	1.06164	-2.104488
H	1.088613	0.0	0.0
N	0.092185	-1.26974	-2.073269
O	-0.662691	-2.164594	-2.436695
O	1.313594	-1.277476	-2.133628
N	-1.902945	-0.026981	-1.688646
H	-2.350067	0.797262	-1.311874
H	-2.328346	-0.87114	-1.336921
N	-0.559371	-1.121806	0.675405
H	-1.473766	-0.900232	1.052137
H	0.046273	-1.416949	1.433279
N	-0.420905	1.334432	0.57356
O	-1.517078	1.386591	1.153696
O	0.36676	2.270566	0.473329
Br	2.751052	0.0	0.0
