17

C	-0.525002	-0.003036	-1.440441
C	0.0	0.0	0.0
F	-1.748525	0.641896	-1.519504
H	1.089859	0.0	0.0
N	0.397419	0.814205	-2.384753
O	1.538693	0.383951	-2.47254
O	-0.074524	1.800684	-2.976174
N	-0.669788	-1.314639	-1.926327
H	-0.003015	-1.938006	-1.489864
H	-0.616561	-1.350471	-2.935449
N	-0.516565	-1.107745	0.720746
H	-1.526023	-1.069887	0.792855
H	-0.112819	-1.11242	1.648279
N	-0.422353	1.34563	0.523473
O	-1.073286	1.394975	1.582304
O	0.148031	2.315247	0.036331
Br	3.175454	0.0	0.0
