14

C	0.0	0.0	0.0
C	-0.383354	0.626795	-1.348927
F	1.386286	0.0	0.0
H	0.566253	0.703498	-1.891567
H	-0.355275	0.60665	0.83146
H	-0.365176	-1.018151	0.091854
C	-1.02769	1.995385	-1.275758
H	-0.382437	2.641335	-0.672021
H	-2.008749	1.907042	-0.810356
H	-1.129467	2.431393	-2.269208
N	-1.146038	-0.318362	-2.249968
O	-1.801688	0.183563	-3.15607
O	-0.934251	-1.519728	-2.119239
Br	-3.569223	0.0	0.0
