14

C	0.0	0.0	0.0
C	-0.387056	0.817197	-1.240551
F	1.386435	0.0	0.0
H	0.563591	0.991631	-1.757782
H	-0.364834	-1.020644	-0.057934
H	-0.354312	0.477321	0.912305
C	-1.056983	2.148787	-0.970764
H	-1.152963	2.727778	-1.88901
H	-0.431859	2.705896	-0.266109
H	-2.042574	1.976536	-0.539268
N	-1.129184	0.005076	-2.278237
O	-0.911621	-1.201826	-2.319424
O	-1.779035	0.628924	-3.109583
Br	-3.621909	0.0	0.0
