14

C	0.0	0.0	0.0
C	-0.50532	-0.005845	-1.424155
F	1.385077	0.0	0.0
H	-1.585013	0.188946	-1.359857
H	-0.364127	-0.887881	0.516895
H	-0.345143	0.891292	0.519523
C	-0.216486	-1.29064	-2.166363
H	-0.554539	-1.233449	-3.20009
H	0.850057	-1.522299	-2.159592
H	-0.768775	-2.090114	-1.667751
N	0.096661	1.179552	-2.127204
O	0.634631	1.010087	-3.222515
O	-0.002684	2.269625	-1.567119
Br	-3.63725	0.0	0.0
