18
Coordinates from ORCA-job run
  C   -0.67300179099318      0.38530717455981     -0.06113298630341
  C   0.67192085447373     -0.36566510315326      0.00551748514114
  Br  -0.42856183400300      2.23047259093438     -0.57337105621498
  H   0.42502798385467     -1.40904869466437      0.21132433058041
  C   -1.72211299689793     -0.25565327207866     -0.95260390073999
  H   -2.67511831460395      0.25897731587840     -0.81619939366257
  H   -1.83474470748917     -1.30838661849104     -0.69205802733879
  H   -1.42797637808168     -0.17769382436625     -1.99723168478366
  N   -1.20410779255897      0.30814066240508      1.38099148507870
  O   -1.39806068105618     -0.84278231899884      1.76595989972024
  O   -1.38369152740292      1.32652531830217      2.02910889268288
  C   1.65747172277309      0.17387334234917      1.01903996155853
  H   1.25434615465961      0.05474598268088      2.02632437281731
  H   2.58789903608300     -0.39277549261998      0.96068771150642
  H   1.88178819295642      1.22327439437192      0.83887816037698
  N   1.27752143004595     -0.39058718826229     -1.37086471904531
  O   0.81262395525345     -1.22130108767935     -2.15164144633685
  O   2.17777669298707      0.40457681883224     -1.62172908503705
