18
Coordinates from ORCA-job run
  C   -0.77572091437546      0.20885084604347     -0.31624154254630
  C   0.73123137458521      0.00916368185958     -0.49845379188636
  Br  -1.61470726823478     -0.34073056913308     -1.99835253144195
  H   1.03538706402042      0.45966369173911     -1.44200690770935
  C   -1.44051301908328     -0.52382524544271      0.82355187710111
  H   -1.30498052045626     -1.59778820265659      0.69534021437621
  H   -2.50653197242943     -0.30672564586827      0.83055128161719
  H   -1.00693668529227     -0.20367645336416      1.77001687457450
  N   -1.04965510551598      1.71304950209272     -0.22990882692008
  O   -2.00932705381017      2.07107005933324      0.43809997495368
  O   -0.29819503647642      2.43876712891288     -0.87059963778786
  C   1.18532532105101     -1.43919596897067     -0.40781276014243
  H   0.62859472182632     -2.05694326320749     -1.11257087669371
  H   1.04358468734851     -1.83071853294012      0.60102819274998
  H   2.24499569465637     -1.49479382162446     -0.65737538896347
  N   1.50951081730990      0.78548542199137      0.53615001854672
  O   2.69571334781725      0.95486919609173      0.28127284404234
  O   0.93222454705905      1.15447817514345      1.55631098612977
