18
Coordinates from ORCA-job run
  C   -0.72000988226611      0.36319726110878     -0.30782843043154
  C   0.78139336048042      0.08106239573224     -0.40793235866359
  Br  -1.40017066121220      0.39637837001125     -2.14450485232411
  H   1.21791220344576      0.74989176348962     -1.14810196601144
  C   -1.55458188922308     -0.59715574825109      0.50421773627496
  H   -1.20941073471534     -0.60283523898110      1.53722741133729
  H   -1.47663191625099     -1.59787983276875      0.07928160691280
  H   -2.59801293268757     -0.29009345934796      0.48078083841313
  N   -0.90331793365353      1.79938017141985      0.18961685277864
  O   -1.90858452129640      2.04297240684218      0.84193874634106
  O   -0.03738769787961      2.60179029086620     -0.13936018446930
  C   1.12624561153876     -1.36995221165504     -0.70432937419071
  H   2.20110675299183     -1.45334506125095     -0.86553601689698
  H   0.84772125308686     -2.01551389984929      0.13043507082156
  H   0.61171429867235     -1.70717315216066     -1.60419370452006
  N   1.48889552382604      0.45409736181999      0.87255772273274
  O   2.70437639406594      0.57736849930355      0.78328963117493
  O   0.82674277107688      0.56881008367117      1.90144127072063
