18
Coordinates from ORCA-job run
  C   -0.71480506420641      0.35071145757448     -0.39061937649046
  C   0.67187105074932     -0.30790791459913     -0.43378124197539
  Br  -1.04288629284312      1.18937687201903     -2.10885953236007
  H   0.64599515739740     -1.00869722507557     -1.27048278703337
  C   -1.81054421816270     -0.66856989526774     -0.12447632240633
  H   -2.78414252208581     -0.17728127875679     -0.15711504624856
  H   -1.67730742290983     -1.11870306463941      0.85817600654465
  H   -1.78780185459466     -1.44133252106195     -0.89420531308839
  N   -0.79771578216793      1.40759345135915      0.71984182596430
  O   -0.74230380022848      0.92858570196752      1.85007353734854
  O   -0.92999962675876      2.58592045873426      0.43994522810467
  C   1.15860988174698     -1.00404766997962      0.82860766464973
  H   2.11842648856998     -1.47636366970992      0.60575825362129
  H   1.28623348156596     -0.29827122299213      1.64592556944128
  H   0.46171076358185     -1.78263025341678      1.13775880393103
  N   1.71648296499703      0.69833630639429     -0.81872597555877
  O   1.81468877391774      1.68530264252295     -0.09392689051591
  O   2.41448802143145      0.43797782492737     -1.79389440392825
