18
Coordinates from ORCA-job run
  C   -0.68203206381253      0.32121405290471     -0.43357524790725
  C   0.83507042608295      0.16380094019901     -0.25345163487972
  Br  -1.03529007505913      0.39684124835030     -2.35175069710676
  H   1.32418934992364      0.96598144729601     -0.80420994989850
  C   -1.56093153023839     -0.73126404993874      0.19479499730415
  H   -1.33760755418994     -1.70093849767188     -0.25030384358300
  H   -1.38770653546828     -0.77736231023078      1.26856697024273
  H   -2.60800127426628     -0.49556099053816      0.01193512504893
  N   -1.03455150932804      1.71538310239979      0.10612568693854
  O   -0.37998044887875      2.65257445795977     -0.33264803503125
  O   -1.92315174968695      1.77913624774274      0.94970698638051
  C   1.37766474874867     -1.20424585236765     -0.61758616026499
  H   1.13954746066692     -1.44226860601476     -1.65420552850724
  H   2.46408619352177     -1.20006112320913     -0.50766256016928
  H   0.96845042089472     -1.97174303557289      0.03807662135917
  N   1.18640103055672      0.44328782493655      1.18998127532402
  O   1.83344106198088      1.46351150440059      1.41510142171333
  O   0.82040204855202     -0.37728636064550      2.03010457303661
