18
Coordinates from ORCA-job run
  C   -0.68617201648927      0.36174506448479     -0.04473448397519
  C   0.68445772354203     -0.34297980339780     -0.00820195779874
  Br  -0.52158160757605      2.20152249141203     -0.60594628782556
  H   0.48037352037199     -1.38741439518610      0.23510679837132
  C   -1.74296965654181     -0.33418188147450     -0.88478256667820
  H   -2.70717008817133      0.15280297044633     -0.72718682377183
  H   -1.48726372920024     -0.27233421053467     -1.94050358938454
  H   -1.81145057742191     -1.38328225252166     -0.59544865082968
  N   -1.16838969241166      0.30110612825655      1.41577349456245
  O   -1.29684050417212     -0.84609990903842      1.83738065568380
  O   -1.37965346048128      1.32810519157022      2.04014620963520
  C   1.68780276528521      0.25671582344457      0.95249468108009
  H   1.87589128464551      1.30537444629211      0.73148877796934
  H   2.63155752258855     -0.28588231863437      0.88043160589478
  H   1.32118673807433      0.15946517536255      1.97594657269289
  N   1.23952779197175     -0.38784265808842     -1.40553926427825
  O   0.77921960788345     -1.25945429111554     -2.14311787903305
  O   2.09847437810285      0.43263442872233     -1.71330729231483
