18
Coordinates from ORCA-job run
  C   -0.71935329548091      0.34228047404766     -0.39034672590200
  C   0.67318281423740     -0.30356969426550     -0.43420573969368
  Br  -1.05960032688548      1.16965111296943     -2.11159977885820
  H   0.65148969539256     -1.00902157735036     -1.26706163350748
  C   -1.80461151979973     -0.68611000699036     -0.11640766847132
  H   -2.78302253894596     -0.20459945272967     -0.15035804664838
  H   -1.77541704162041     -1.46336362650269     -0.88138834858570
  H   -1.66526440342890     -1.12906093999188      0.86866777999240
  N   -0.80916318181862      1.40361874822172      0.71544592807110
  O   -0.74637466460963      0.93062521471837      1.84784843797297
  O   -0.95289932276278      2.57932524542153      0.43016433252691
  C   1.16977464560109     -0.98853041655489      0.83049948579216
  H   2.13391533098038     -1.45212324319441      0.60798436164006
  H   1.29182560965765     -0.27779917000613      1.64437612769254
  H   0.48152036166027     -1.77292296277804      1.14441231279177
  N   1.70784751926681      0.70987577284798     -0.82723566486930
  O   2.40703192873641      0.44918162218687     -1.80150949519536
  O   1.79811838981986      1.70254289995038     -0.10928566474848
