18
Coordinates from ORCA-job run
  C   -0.72531781161635      0.35158797837746     -0.37132476468554
  C   0.66621903257281     -0.29295426087744     -0.45203201481212
  Br  -1.09267872110550      1.21697352466013     -2.06815515997890
  H   0.63154387467079     -0.97769232237225     -1.30153888679055
  C   -1.80588273675492     -0.68311704286642     -0.10289164198101
  H   -1.65244361577636     -1.14536087009554      0.87117136548305
  H   -2.78511480529308     -0.20219632896290     -0.11361968658193
  H   -1.78667752389431     -1.44498021215446     -0.88353531076677
  N   -0.79714567959217      1.38817382805653      0.75909410969261
  O   -0.71593055784373      0.89061475662005      1.87967930368524
  O   -0.94458791494238      2.56988201545052      0.50188343823479
  C   1.18084324094415     -1.00918138877976      0.78792841678189
  H   1.31196514804013     -0.31951999925005      1.61835291033603
  H   2.14305473199190     -1.46436956901282      0.54102840100233
  H   0.49849796848909     -1.80335446476597      1.08998925208716
  N   1.69544676633309      0.72957623453553     -0.83528768215972
  O   2.38072717418333      0.49178196519850     -1.82523125222281
  O   1.79748142959347      1.70413615623888     -0.09451079732375
