18
Coordinates from ORCA-job run
  C   -0.65594794187724      0.41304382809924     -0.05273929338219
  C   0.65708087002631     -0.39244148343580      0.00008187869468
  Br  -0.33575128762583      2.25578271485770     -0.53136986518290
  H   0.36980620271842     -1.42796134360431      0.19249662722925
  C   -1.73102426373682     -0.16819405131727     -0.95439500169144
  H   -1.88669330702503     -1.21955896604538     -0.71078586321227
  H   -2.66156599952982      0.38323940556189     -0.80731464187854
  H   -1.43456021202406     -0.08499381451555     -1.99790911171139
  N   -1.19270230759971      0.33204340290498      1.38741445137994
  O   -1.34518795435842      1.34651586728112      2.04886097661937
  O   -1.42336817993979     -0.81743790865318      1.75652375028914
  C   1.66663515988429      0.09302674742755      1.01711175770105
  H   1.94230451144087      1.13095169063599      0.84247388753976
  H   1.25714923912964     -0.01157161276718      2.02345251505508
  H   2.56824686841147     -0.51830145505438      0.95633110070509
  N   1.25751059801469     -0.42382751083864     -1.37907968709981
  O   2.18888087810791      0.33686015671988     -1.62264246713315
  O   0.75718712598306     -1.22517566725671     -2.16851101392166
