18
Coordinates from ORCA-job run
  C   -0.65944230097052      0.38181806338493      0.06538892615350
  C   0.68382603114558     -0.36611249508533      0.08290075750315
  Br  -0.43492450818914      2.30163382943605     -0.10777413081676
  H   0.46552818161237     -1.38234097766402      0.41015603364546
  C   -1.62232585429716     -0.11284678730423     -0.99842702961778
  H   -1.75354462332166     -1.19445994623307     -0.90392495029865
  H   -1.23419937881686      0.10991407734638     -1.99188221400436
  H   -2.58214614665510      0.38670798522307     -0.87598483829575
  N   -1.35701263965092      0.14353237631144      1.42013576129430
  O   -2.42801217696597      0.70762176503290      1.58528293159400
  O   -0.81956221353958     -0.62798560492350      2.21043427714903
  C   1.80401977706793      0.24156315622157      0.89978540827659
  H   1.47468946671393      0.39182643359693      1.92696093814105
  H   2.65400081559082     -0.44435155726937      0.90835420077857
  H   2.12403701483139      1.18973847206914      0.47422567378345
  N   1.12605377485265     -0.53176835877443     -1.34484541723735
  O   1.69979576821776      0.41326075136218     -1.87946596147007
  O   0.85821901237449     -1.60675118273061     -1.88132036657840
