18
Coordinates from ORCA-job run
  C   -0.71887970986094      0.33274896694592     -0.39961722942323
  C   0.67879368073340     -0.30282014311020     -0.42593025032675
  Br  -1.05206657705921      1.13892134219000     -2.13223386266608
  H   0.66935246385855     -1.01653815325573     -1.25192510642307
  C   -1.79840576634105     -0.70098486065686     -0.12294085056516
  H   -1.75700576814876     -1.48630786552521     -0.87907500492661
  H   -2.78024929339421     -0.22763122616402     -0.17004995279515
  H   -1.66376848310468     -1.13188179322241      0.86809734060774
  N   -0.82490908045553      1.40503955244238      0.69402339644969
  O   -0.76703137387163      0.94463271030871      1.83183785949976
  O   -0.97408879563007      2.57668965575557      0.39511388240235
  C   1.16987929792286     -0.97174762007341      0.84953694187413
  H   0.48492089665786     -1.75801713421844      1.16588154985327
  H   2.13927168713264     -1.43012923862269      0.63940140857675
  H   1.27995552441619     -0.25195374224724      1.65718195152981
  N   1.70900232783664      0.71457707371348     -0.82012255684161
  O   2.41751654424842      0.45018486747276     -1.78671789868164
  O   1.78671242505950      1.71421760826737     -0.11046161814419
