14

C	-0.494826	0.014711	-1.450897
C	0.0	0.0	0.0
Cl	0.257308	-1.283524	-2.412823
H	1.098713	0.0	0.0
H	-0.204408	0.955554	-1.924662
C	-1.950536	-0.120926	-1.508351
N	-3.118982	-0.236154	-1.537212
N	-0.475437	-1.181482	0.668408
H	0.176706	-1.456426	1.389436
H	-1.392616	-1.015733	1.066045
N	-0.53344	1.232724	0.615664
H	-0.29252	1.1803	1.601109
H	0.005739	2.014982	0.253376
Cl	3.419634	0.0	0.0
