14

C	-0.585817	-0.011726	-1.418599
C	0.0	0.0	0.0
Cl	0.121547	1.271703	-2.42926
H	1.099131	0.0	0.0
H	-1.65287	0.206464	-1.326291
C	-0.437024	-1.299571	-2.093763
N	-0.3175	-2.339174	-2.626594
N	-0.543616	-1.182731	0.693232
H	-0.152271	-2.016426	0.262681
H	-0.138801	-1.157999	1.625082
N	-0.45364	1.210846	0.653618
H	-1.254426	0.993241	1.234437
H	0.293146	1.58554	1.222923
Cl	3.431104	0.0	0.0
