14

C	-0.433985	0.046937	-1.463157
C	0.0	0.0	0.0
Cl	-2.202071	-0.238643	-1.66213
H	1.108192	0.0	0.0
H	0.069363	-0.772396	-1.97606
C	-0.107119	1.315852	-2.108375
N	0.12641	2.354736	-2.604139
N	-0.414525	-1.266432	0.561488
H	0.260642	-1.549329	1.259284
H	-1.324255	-1.152969	0.993239
N	-0.565935	1.135902	0.737155
H	-0.124521	1.117711	1.652405
H	-0.24274	1.998457	0.304047
Cl	3.403305	0.0	0.0
