14

C	-0.428162	-0.07981	-1.461656
C	0.0	0.0	0.0
Cl	-2.207266	-0.335442	-1.638704
H	1.106966	0.0	0.0
H	0.04963	-0.93739	-1.942262
C	-0.071162	1.129299	-2.196214
N	0.196961	2.07145	-2.84259
N	-0.495552	-1.187992	0.717402
H	-0.255062	-2.01837	0.181774
H	0.068412	-1.246476	1.56108
N	-0.483947	1.217254	0.602966
H	0.20592	1.572323	1.25108
H	-1.348218	1.021389	1.093269
Cl	3.388904	0.0	0.0
