14

C	-0.590526	-0.001209	-1.412063
C	0.0	0.0	0.0
Cl	-0.11627	1.441107	-2.374396
H	1.099865	0.0	0.0
H	-1.677454	0.047979	-1.303147
C	-0.249176	-1.209322	-2.155563
N	0.013162	-2.176981	-2.764816
N	-0.469727	-1.223587	0.626426
H	-1.216744	-0.997086	1.270288
H	0.294375	-1.664184	1.121835
N	-0.538459	1.166356	0.716507
H	-0.285587	2.001322	0.196116
H	-0.004349	1.226594	1.579087
Cl	3.421491	0.0	0.0
