14

C	-0.48653	-6.4e-05	-1.45
C	0.0	0.0	0.0
Cl	-0.029826	-1.49001	-2.339554
H	1.100382	0.0	0.0
H	0.009865	0.829429	-1.953202
C	-1.936941	0.176822	-1.529264
N	-3.09914	0.334545	-1.588793
N	-0.578453	-1.136907	0.721024
H	-0.26234	-1.992811	0.274563
H	-0.145681	-1.137024	1.640514
N	-0.439695	1.261837	0.563044
H	-1.330872	1.124523	1.028254
H	0.247448	1.590562	1.229852
Cl	3.439074	0.0	0.0
