14

C	-0.598472	-0.015592	-1.413595
C	0.0	0.0	0.0
Cl	-0.045658	1.360705	-2.408147
H	1.093713	0.0	0.0
H	-1.685484	0.092974	-1.319837
C	-0.331876	-1.261122	-2.129455
N	-0.133679	-2.235242	-2.753858
N	-0.424897	-1.254499	0.624093
H	-1.235145	-1.113677	1.216547
H	0.333591	-1.60973	1.192283
N	-0.416806	1.229049	0.661076
H	-1.25358	1.082897	1.213296
H	0.328754	1.536305	1.272763
Cl	3.382912	0.0	0.0
