14

C	-0.370459	0.002723	-1.498679
C	0.0	0.0	0.0
Cl	-2.119633	-0.3353	-1.791523
H	1.103881	0.0	0.0
H	0.182159	-0.8013	-1.989039
C	-0.04583	1.268339	-2.147641
N	0.214266	2.290798	-2.662774
N	-0.421796	-1.184789	0.706592
H	-1.378506	-1.428338	0.469156
H	0.200163	-1.956407	0.489939
N	-0.608073	1.156245	0.644897
H	-0.447714	1.023173	1.636993
H	-0.085606	1.98526	0.376374
Cl	3.425106	0.0	0.0
