12

C	-0.364794	-0.046526	-1.457601
C	0.0	0.0	0.0
Br	-2.303995	-0.159659	-1.788893
H	1.097082	0.0	0.0
H	0.066742	-0.947602	-1.888903
H	-0.015715	0.839969	-1.986378
N	-0.38575	-1.220411	0.697236
H	0.318845	-1.399404	1.405367
H	-1.289137	-1.122987	1.143319
C	-0.468712	1.225507	0.647539
N	-0.829089	2.202616	1.194891
H	2.713007	0.0	0.0
