12

C	-0.381684	-0.037511	-1.453203
C	0.0	0.0	0.0
Br	-2.324922	-0.137112	-1.761152
H	1.097062	0.0	0.0
H	0.039728	-0.938226	-1.894901
H	-0.03564	0.849634	-1.981881
N	-0.376995	-1.224491	0.695226
H	0.343064	-1.412724	1.384318
H	-1.268981	-1.126133	1.161201
C	-0.464004	1.219466	0.662387
N	-0.832708	2.180507	1.232002
H	2.711197	0.0	0.0
