13

C	-0.34322	-0.032428	-1.469942
C	0.0	0.0	0.0
Cl	-2.11486	-0.284396	-1.797288
H	1.099278	0.0	0.0
H	0.163202	-0.905669	-1.883519
C	0.080627	1.171251	-2.178748
N	0.392097	2.140881	-2.762652
N	-0.358342	-1.272876	0.617036
H	-1.247397	-1.22443	1.100234
H	0.373132	-1.490696	1.2837
C	-0.547524	1.166623	0.676085
N	-0.989407	2.078472	1.274725
F	2.514179	0.0	0.0
