13

C	-0.417267	-0.095974	-1.474485
C	0.0	0.0	0.0
Cl	0.014769	1.3716	-2.403499
H	1.095201	0.0	0.0
H	-1.503657	-0.202623	-1.577506
C	0.205492	-1.268097	-2.091994
N	0.631642	-2.233922	-2.605618
N	-0.359989	-1.206837	0.734952
H	-1.193487	-1.663583	0.383456
H	0.42807	-1.839571	0.669864
C	-0.607903	1.174812	0.608421
N	-1.108108	2.118501	1.100727
F	2.522	0.0	0.0
