13

C	-0.461619	0.119232	-1.452915
C	0.0	0.0	0.0
Cl	0.300686	-1.140237	-2.461928
H	1.101189	0.0	0.0
H	-0.128626	1.079389	-1.853268
C	-1.914565	0.012247	-1.590092
N	-3.083399	-0.068344	-1.674873
N	-0.426952	-1.259603	0.590178
H	-1.220981	-1.153298	1.207636
H	0.360601	-1.62759	1.109944
C	-0.473118	1.172241	0.727888
N	-0.862191	2.101851	1.336678
F	2.529245	0.0	0.0
