13

C	-0.45697	0.140589	-1.45188
C	0.0	0.0	0.0
Cl	0.299274	-1.109799	-2.477326
H	1.101203	0.0	0.0
H	-0.116677	1.103878	-1.838522
C	-1.910741	0.045464	-1.593923
N	-3.080431	-0.021461	-1.681258
N	-0.430704	-1.267827	0.571358
H	0.356371	-1.644874	1.08355
H	-1.220747	-1.167051	1.194287
C	-0.473443	1.16252	0.742573
N	-0.865892	2.084959	1.359973
F	2.529923	0.0	0.0
