13

C	-0.451368	-0.072135	-1.460018
C	0.0	0.0	0.0
Cl	0.296107	-1.466921	-2.283699
H	1.094071	0.0	0.0
H	-0.099187	0.820334	-1.982235
C	-1.905532	-0.17409	-1.592102
N	-3.07593	-0.248827	-1.661818
N	-0.43407	-1.169051	0.748931
H	0.349855	-1.470517	1.313204
H	-1.229243	-0.981331	1.345537
C	-0.474063	1.260433	0.561659
N	-0.870715	2.264469	1.031305
F	2.530622	0.0	0.0
