12

C	0.0	0.0	0.0
C	-0.26148	0.05868	-1.517996
Br	1.946417	0.0	0.0
H	-1.32284	-0.022227	-1.727931
H	0.283462	-0.753052	-1.996546
H	0.127366	1.013403	-1.880896
C	-0.577086	1.100449	0.748574
N	-0.629114	2.126609	1.340338
N	-0.420885	-1.306649	0.606482
O	-0.47651	-1.35705	1.836503
O	-0.433277	-2.287956	-0.143073
H	-2.052787	0.0	0.0
