12

C	0.0	0.0	0.0
C	-0.25892	0.00968	-1.519736
Br	1.945732	0.0	0.0
H	-1.320066	-0.074137	-1.730206
H	0.281631	-0.819286	-1.973158
H	0.135507	0.951057	-1.911769
C	-0.639973	1.100012	0.702962
N	-0.709642	2.141921	1.268079
N	-0.405645	-1.302085	0.640591
O	-0.421446	-2.301124	-0.083552
O	-0.46607	-1.320595	1.870447
H	-2.044749	0.0	0.0
