12

C	0.0	0.0	0.0
C	-0.413371	-0.000518	-1.524883
Br	1.946028	0.0	0.0
H	-1.510022	-0.070681	-1.62233
H	-0.121255	0.947173	-1.973715
H	-0.003416	-0.877329	-2.012908
C	-0.457173	1.152114	0.753724
N	-0.831263	2.117943	1.341477
N	-0.48464	-1.219262	0.697036
O	-0.544797	-1.201511	1.946701
O	-0.526134	-2.262325	-0.000397
H	-1.718844	0.0	0.0
