14
Coordinates from ORCA-job run
  C   1.14400107484020      0.13321602410002     -0.33937281227629
  C   -0.13562984672748     -0.13437603515346      0.44831865941245
  Br  2.64589159102775      0.44059913681533      0.86514443574684
  H   0.02303755400162     -0.93412055035578      1.17270680186642
  H   1.02796678019129      1.05119507956725     -0.91898489354806
  C   1.44583491974323     -0.98682629820106     -1.21723696339847
  N   1.65407674793557     -1.90095127484582     -1.92559328974414
  C   -1.32887329559643     -0.40689667817400     -0.45412964478141
  H   -2.23029577490561     -0.51197424028941      0.15287572607497
  H   -1.47138137128145      0.41592694634867     -1.15717570677145
  H   -1.17832683675416     -1.33300840344112     -1.01023229847891
  N   -0.44179464878865      1.08879837582015      1.26455269201238
  O   -0.41965620441782      2.16524617315804      0.67324072576376
  O   -0.73385068926806      0.91317174465119      2.44288656812193
