14
Coordinates from ORCA-job run
  C   0.91019848902122     -0.36174892054307     -0.65212345475860
  C   -0.30014623368321     -0.21202503001860      0.28005844151050
  Br  1.25160216378533      1.26313857034017     -1.67712613430159
  H   -0.29626102370710     -1.08042865831300      0.94610378039081
  H   0.66221138406254     -1.12496879608408     -1.39420130903803
  C   2.13024763967146     -0.76894077016680      0.03230843505221
  N   3.10289379762351     -1.15733854638068      0.56472077898933
  C   -1.61449536673697     -0.09130977653568     -0.45771593710474
  H   -1.78559008599525     -1.00082493134991     -1.03871492304762
  H   -1.61767525300476      0.76915773861034     -1.12424633059321
  H   -2.43448765749945      0.02326677511071      0.25127904880009
  N   -0.06958125212894      0.96128181513298      1.19805309474894
  O   -0.76700959798907      1.95884949493107      1.04484383348554
  O   0.82609299658068      0.82189103526655      2.02676067586638
