14
Coordinates from ORCA-job run
  C   1.08195943914795      0.08232603523279     -0.51320243876941
  C   -0.07158087745724     -0.00513852235379      0.48235034026545
  Br  2.68260356065886      0.79354353956418      0.34339663316378
  H   0.23492066307669     -0.55335235312473      1.37398644483563
  H   0.82398327447075      0.78779358698158     -1.30561160811754
  C   1.37220756553218     -1.22794372656062     -1.07439466035830
  N   1.57203502805436     -2.29689797525585     -1.51958364811960
  C   -1.33421025789384     -0.58158202310291     -0.13875430522660
  H   -1.17268201399281     -1.62117981653330     -0.42640612476156
  H   -1.62408124297638     -0.00540765641835     -1.01941517302206
  H   -2.14815314757990     -0.54775574415011      0.58815989006508
  N   -0.38115804533818      1.38641251375367      0.95605751249068
  O   -0.51960616174218      1.54526287271268      2.16439083945522
  O   -0.51623778396027      2.24591926925477      0.08902629809921
