14
Coordinates from ORCA-job run
  C   0.90995031963053     -0.36869340232656     -0.72888062692056
  C   -0.28154003429708     -0.29328700059999      0.23364526207936
  Br  0.98871410870027      1.02182326289564     -2.09245478510559
  H   -0.30071335072268     -1.24256393175604      0.77535963318797
  H   0.79904257982858     -1.29791911485956     -1.29393677046724
  C   2.17249426120662     -0.41559071727742     -0.00253351610041
  N   3.17541675690885     -0.47846256392869      0.60632750642940
  C   -1.61714295586118     -0.01811665011451     -0.42885495834289
  H   -1.63233870342927      0.98401983127945     -0.85541795693465
  H   -2.41572568635053     -0.10733110942969      0.31005603702190
  H   -1.79722480431861     -0.74330585733675     -1.22523683453388
  N   -0.04588384186407      0.73320963795922      1.30324551996734
  O   0.25767010961283      1.86350715396600      0.93535052489630
  O   -0.21171875904425      0.36371046152890      2.46333096482297
