14
Coordinates from ORCA-job run
  C   1.00495449778372     -0.70765551551999     -0.27353798998496
  C   -0.39553528491611     -0.40206736794642      0.27284092933348
  Br  0.89154519994483     -1.97349205890706     -1.75143830463033
  H   -0.84626432962750     -1.35137770814714      0.57281461137040
  H   1.59059134135863     -1.20665407060658      0.49933655726878
  C   1.68535152934163      0.50496888253506     -0.70621078393985
  N   2.21254769514642      1.50198166732374     -1.03588550356989
  C   -1.29035400970229      0.38830724669751     -0.65101092637459
  H   -1.46948242884739     -0.18592946273644     -1.56068890794338
  H   -0.83960199396364      1.34568248243388     -0.91258059354478
  H   -2.24799877445190      0.58308959358415     -0.16842183606621
  N   -0.16370353451744      0.33032417978308      1.58181242495850
  O   -0.58525546941579      1.47611926271249      1.69580840825342
  O   0.45220556186683     -0.30129713120627      2.43816191486939
