14
Coordinates from ORCA-job run
  C   0.99009797601257     -0.73393061072654     -0.31737593566954
  C   -0.38987645649941     -0.40348414020829      0.25981169973531
  Br  0.79613744151859     -1.92288229873471     -1.85323239398313
  H   -0.88957592298606     -1.34718908843900      0.50158492526809
  H   1.57716635597047     -1.28905467683893      0.41162425941617
  C   1.70773990775087      0.47122647989393     -0.70790857867144
  N   2.26057570683391      1.46322049004838     -1.00930056509871
  C   -1.25534923172402      0.47146951985173     -0.62092899107022
  H   -2.22680106429645      0.62824764346413     -0.15707327093045
  H   -1.40010910476893     -0.01170218264176     -1.58731774254781
  H   -0.78607400230509      1.44428835843641     -0.77768354712814
  N   -0.17347903769086      0.26093676252712      1.61247537904256
  O   0.84748332210624     -0.03874740258841      2.22763157361016
  O   -1.05693588992181      1.00660114595595      2.01669318802715
