14
Coordinates from ORCA-job run
  C   0.92930601711697     -0.35995408015983     -0.62267384399132
  C   -0.30468376066601     -0.21198368990127      0.27824405135158
  Br  1.27303522438388      1.25400324756674     -1.66389759359772
  H   -0.30522085432565     -1.06847324187289      0.95960557172279
  H   0.70901275599734     -1.13729573186662     -1.35884199250186
  C   2.13892777238907     -0.74036721221158      0.09536476676135
  N   3.11698223108207     -1.10230621706361      0.63639841857191
  C   -1.60270661756443     -0.12184991926074     -0.49195588226357
  H   -1.74534626703607     -1.04169882915890     -1.06428843909859
  H   -1.60300160047873      0.72910949822534     -1.17062058529218
  H   -2.44149226806514     -0.01066670220299      0.19515888747467
  N   -0.11094658096398      0.97966394809804      1.18129952090865
  O   0.77493806685583      0.87025529586128      2.02485264629051
  O   -0.82580411872516      1.96056363394704      1.00335447366377
