14
Coordinates from ORCA-job run
  C   1.09822668573892      0.04091187054708     -0.48319153394706
  C   -0.08400479021915     -0.01778605304611      0.48039205248409
  Br  2.71143043472358      0.63294247079786      0.43881953533458
  H   0.17068335697375     -0.61039235904788      1.35976649188823
  H   0.90027657308151      0.78705246352564     -1.25535278124889
  C   1.33233202538587     -1.26287137324672     -1.08431842283269
  N   1.48612828652125     -2.32520832481603     -1.56233215597340
  C   -1.35868507745435     -0.50473446673610     -0.19076908865432
  H   -1.24582257670436     -1.54170707453836     -0.50929663412002
  H   -1.59315805923494      0.11447084471982     -1.05861403049175
  H   -2.18884726817359     -0.44945317399982      0.51611044164939
  N   -0.33302919903615      1.37180411426481      0.99357650299156
  O   -0.40138773408671      2.26508057584120      0.15336984290797
  O   -0.49514265751562      1.49789048573457      2.20283978001233
