14
Coordinates from ORCA-job run
  C   1.05721056727021     -0.59286829243373     -0.40594762634706
  C   -0.30680285591595     -0.46282060762107      0.27577996964309
  Br  0.89198374922207     -1.82396340926106     -1.91507736769468
  H   -0.69485496691737     -1.46444167551995      0.47853020245913
  H   1.77895701935822     -1.04992219965364      0.27015581584346
  C   1.57177791769131      0.68538288559768     -0.87581671197676
  N   1.96325334930122      1.72282658134659     -1.26370637111191
  C   -1.32251536408763      0.36787772463449     -0.48618229288799
  H   -0.97186836579313      1.39597233199982     -0.59697683826567
  H   -1.48247783067784     -0.05772731463941     -1.47721338748564
  H   -2.26914911240468      0.37215468708921      0.05229493615906
  N   -0.11283912689765      0.15301248225373      1.64393961921271
  O   1.01382591657761      0.53260442232911      1.95777368377818
  O   -1.11650089672639      0.22191238387824      2.34344636867407
