14
Coordinates from ORCA-job run
  C   1.13431456474467      0.03219911844135     -0.39021657248091
  C   -0.12931479036922     -0.14739373131247      0.44658767509203
  Br  2.71460911502700      0.10031251821883      0.75082340464235
  H   -0.02546358610546     -1.00343572170966      1.11431269858789
  H   1.09380110885184      0.99287456813905     -0.90732015183240
  C   1.27254947354557     -1.05485185961703     -1.34663269441634
  N   1.34812337672975     -1.93907367346400     -2.11678634107373
  C   -1.38507810152403     -0.23426743094358     -0.40667062047240
  H   -2.26409963051265     -0.27903848630647      0.23937213950146
  H   -1.46762475328278      0.64068111165001     -1.05430377976581
  H   -1.36252417337947     -1.13527640480125     -1.02098378455561
  N   -0.26236375501060      1.04755983991733      1.34708397836948
  O   -0.51926330219736      0.82993363625960      2.52661924205481
  O   -0.14766554651726      2.15077651552828      0.81911480634916
