14
Coordinates from ORCA-job run
  C   0.92162543730389     -0.37849848857584     -0.62296606933906
  C   -0.31065193148668     -0.20649629282781      0.27552130457790
  Br  1.30578181337071      1.23345345014867     -1.65338080287823
  H   -0.33399479839390     -1.06733120273469      0.95105681745105
  H   0.68485714161564     -1.14573743257488     -1.36452067078815
  C   2.12023509731269     -0.79191065153956      0.09509094635428
  N   3.08844029436988     -1.18109297437840      0.63494640028233
  C   -1.60430077782015     -0.07928634297015     -0.49685548513194
  H   -1.58270520558270      0.77700896920786     -1.16845326457302
  H   -1.76786031504438     -0.99099689727327     -1.07668185893638
  H   -2.44170144139863      0.04641223523545      0.18956616116323
  N   -0.09058770637990      0.97393446362586      1.18774672699652
  O   0.79241830153164      0.83829376990802      2.03049144851222
  O   -0.78455590939812      1.97124739474873      1.01843834630926
