14
Coordinates from ORCA-job run
  C   0.92897312308608     -0.35230229158234     -0.62816292596484
  C   -0.30278104521733     -0.21474982154284      0.27698345824496
  Br  1.26396922239300      1.26968564218204     -1.65973820604497
  H   -0.29817430801777     -1.07554950282091      0.95292351386287
  H   0.70901301877188     -1.12560643999953     -1.36866386307068
  C   2.14200691930073     -0.73307253373145      0.08377553626102
  N   3.12304962861385     -1.09386673930166      0.62012443570273
  C   -1.60368100231515     -0.12476864533043     -0.48841262617876
  H   -1.74734383218849     -1.04324406816115     -1.06263426392718
  H   -2.44000945563298     -0.01675073851950      0.20221601437025
  H   -1.60808228570078      0.72836450304285     -1.16433181701373
  N   -0.11179627025089      0.97194719073145      1.18756307542848
  O   -0.83140653579245      1.95084188004303      1.01789315469049
  O   0.77526282295033      0.86007156499045      2.02946451363936
