12

C	-0.519833	-0.009739	-1.424494
C	0.0	0.0	0.0
F	-1.936386	-0.161191	-1.376907
H	1.091858	0.0	0.0
H	-0.157627	-0.884412	-1.967377
H	-0.335326	0.916042	0.498868
N	-0.144684	1.164727	-2.111255
H	-0.443734	1.993245	-1.61511
H	-0.516009	1.173284	-3.05052
C	-0.506582	-1.142948	0.753796
N	-0.926311	-2.058932	1.35493
Br	3.570682	0.0	0.0
