12

C	-0.494238	0.063587	-1.435545
C	0.0	0.0	0.0
F	-0.057541	-1.122358	-2.055732
H	1.092089	0.0	0.0
H	-0.012156	0.879479	-1.977186
H	-0.33119	-0.945738	0.442352
N	-1.906729	0.202487	-1.523213
H	-2.200428	0.189184	-2.491652
H	-2.360016	-0.560888	-1.03596
C	-0.505238	1.111536	0.798132
N	-0.918562	1.995092	1.450677
Br	3.567656	0.0	0.0
