12

C	-0.395225	-0.131153	-1.467975
C	0.0	0.0	0.0
F	-0.238817	1.16192	-2.03739
H	1.094508	0.0	0.0
H	-1.453138	-0.363656	-1.620598
H	-0.359194	0.949138	0.402867
N	0.416392	-1.106715	-2.076278
H	0.274816	-1.138567	-3.075431
H	1.39701	-0.949749	-1.857096
C	-0.524256	-1.106784	0.789192
N	-0.989508	-1.976219	1.426155
Br	3.534714	0.0	0.0
