12

C	-0.521277	-0.011586	-1.423825
C	0.0	0.0	0.0
F	-1.938413	-0.155813	-1.373634
H	1.091834	0.0	0.0
H	-0.164586	-0.889844	-1.964337
H	-0.334973	0.916913	0.497575
N	-0.141064	1.158552	-2.115086
H	-0.431471	1.990424	-1.619605
H	-0.516764	1.167538	-3.052657
C	-0.50692	-1.141552	0.755594
N	-0.926771	-2.056505	1.35813
Br	3.570626	0.0	0.0
