12

C	-0.415842	0.070719	-1.473905
C	0.0	0.0	0.0
F	-0.40308	1.407109	-1.85368
H	1.092231	0.0	0.0
H	-1.441546	-0.282483	-1.628531
H	-0.298553	-0.976986	0.393506
N	0.466912	-0.658565	-2.326456
H	0.203579	-1.632138	-2.375261
H	1.423767	-0.590552	-1.982793
C	-0.579187	1.041391	0.8339
N	-1.081883	1.860562	1.507467
Br	3.533618	0.0	0.0
