12

C	-0.415222	0.06782	-1.477666
C	0.0	0.0	0.0
F	-0.350664	1.411952	-1.837186
H	1.09246	0.0	0.0
H	-1.455678	-0.245197	-1.624359
H	-0.37762	0.856388	0.561802
N	0.427477	-0.682344	-2.351445
H	0.147589	-1.653966	-2.37497
H	1.394657	-0.624225	-2.037073
C	-0.489424	-1.240491	0.586623
N	-0.937963	-2.236911	1.015702
Br	3.53471	0.0	0.0
