12

C	-0.460051	-0.025741	-1.454281
C	0.0	0.0	0.0
F	-0.168763	1.211896	-2.009587
H	1.094933	0.0	0.0
H	-1.547328	-0.14907	-1.532919
H	-0.317358	-0.929152	0.484933
N	0.181324	-1.04332	-2.230007
H	1.134262	-1.182257	-1.911864
H	-0.330145	-1.90944	-2.17133
C	-0.540999	1.129067	0.747959
N	-1.009151	2.021193	1.351175
Br	3.527571	0.0	0.0
