14

C	0.0	0.0	0.0
C	-0.575978	-0.689351	-1.23723
F	1.345657	0.0	0.0
H	-1.438278	-1.280742	-0.916123
H	-0.392561	1.007186	0.114079
N	-0.352108	-0.746714	1.260198
O	-0.341843	-1.973683	1.198133
O	-0.510751	-0.070657	2.271553
C	0.412104	-1.584792	-1.844727
N	1.154622	-2.31898	-2.380435
N	-0.957319	0.368886	-2.18162
H	-1.148872	-0.061905	-3.080268
H	-1.859467	0.68777	-1.819784
Cl	-3.371653	0.0	0.0
