18

C	0.0	0.0	0.0
C	-0.546605	0.088544	-1.431586
Br	1.976337	0.0	0.0
H	-1.633387	0.167749	-1.192928
C	-0.491099	1.162152	0.849563
H	-1.587553	1.046945	0.803924
H	-0.160619	2.093627	0.39005
H	-0.109502	1.085414	1.870678
C	-0.374242	-1.274074	0.61949
N	-0.571136	-2.316464	1.125777
C	-0.283436	-1.162405	-2.25949
H	-0.718082	-1.02879	-3.255571
H	0.79074	-1.35042	-2.378002
H	-0.746895	-2.041683	-1.806477
N	-0.06474	1.321838	-2.052979
H	-0.73995	1.609795	-2.750424
H	0.816447	1.145799	-2.525989
F	-2.872594	0.0	0.0
