18

C	0.0	0.0	0.0
C	-0.566704	-0.013898	-1.427086
Br	1.96446	0.0	0.0
H	-1.654452	0.033106	-1.173593
C	-0.498966	1.212742	0.772224
H	-0.119362	1.20299	1.796997
H	-1.595108	1.092753	0.732718
H	-0.170645	2.113925	0.254586
C	-0.375142	-1.229583	0.705679
N	-0.577186	-2.233269	1.283133
C	-0.25179	-1.289126	-2.19644
H	0.825435	-1.394979	-2.375092
H	-0.756954	-1.253608	-3.166986
H	-0.605958	-2.176043	-1.666054
N	-0.154792	1.204579	-2.122376
H	-0.900519	1.485511	-2.745912
H	0.672659	1.024358	-2.680954
F	-2.897031	0.0	0.0
