18

C	0.0	0.0	0.0
C	-0.483109	0.050824	-1.494578
Br	1.970993	0.0	0.0
H	0.403779	-0.112687	-2.11699
C	-0.531634	1.089503	0.921402
H	-1.624929	0.95804	0.883208
H	-0.150155	0.935906	1.932545
H	-0.228236	2.078297	0.572721
C	-0.3308	-1.298163	0.608135
N	-0.478659	-2.30107	1.203219
C	-1.10031	1.40811	-1.843815
H	-0.436674	2.25627	-1.64836
H	-2.02752	1.482436	-1.274693
H	-1.338542	1.40988	-2.913374
N	-1.39047	-1.066837	-1.719553
H	-1.63302	-1.080979	-2.704633
H	-2.234191	-0.829648	-1.150217
F	-3.022322	0.0	0.0
