18

C	0.0	0.0	0.0
C	-0.237937	0.135344	-1.557709
Br	1.980699	0.0	0.0
H	0.242341	1.101549	-1.783203
C	-0.650202	1.101117	0.792065
H	-1.741937	0.88771	0.682104
H	-0.348792	1.065934	1.840902
H	-0.381155	2.074857	0.368038
C	-0.394101	-1.321388	0.485348
N	-0.636147	-2.377768	0.938553
C	-1.669486	0.189239	-2.067864
H	-1.629861	0.655204	-3.061265
H	-2.051787	-0.828365	-2.155206
H	-2.386819	0.643438	-1.376358
N	0.426349	-0.975925	-2.253069
H	-0.067095	-1.152733	-3.117123
H	1.39204	-0.768266	-2.469006
F	-3.19557	0.0	0.0
