18

C	0.0	0.0	0.0
C	-0.555608	0.039035	-1.430504
Br	1.974849	0.0	0.0
H	-1.642699	0.112593	-1.188901
C	-0.497903	1.184353	0.8126
H	-0.117343	1.141842	1.836137
H	-1.593928	1.060519	0.768366
H	-0.17307	2.103405	0.325082
C	-0.3692	-1.255567	0.660024
N	-0.579985	-2.283095	1.190299
C	-0.281827	-1.230573	-2.225669
H	-0.739725	-1.135513	-3.215624
H	-0.716929	-2.105508	-1.738058
H	0.793317	-1.399584	-2.36116
N	-0.095419	1.260679	-2.09049
H	0.771209	1.078342	-2.58674
H	-0.792036	1.53366	-2.771855
F	-2.88571	0.0	0.0
