18

C	0.0	0.0	0.0
C	-0.240325	0.120498	-1.563259
Br	1.980572	0.0	0.0
H	0.194745	1.10873	-1.787111
C	-0.668501	1.09876	0.781439
H	-0.404817	2.07372	0.360458
H	-1.755946	0.878921	0.655897
H	-0.382958	1.066856	1.836103
C	-0.38713	-1.321362	0.49063
N	-0.630808	-2.374331	0.951621
C	-1.676235	0.100719	-2.061378
H	-2.420506	0.499175	-1.352593
H	-1.682382	0.584944	-3.046875
H	-1.994318	-0.93912	-2.17358
N	0.471272	-0.958075	-2.26188
H	-0.014878	-1.144209	-3.128377
H	1.426871	-0.705794	-2.473669
F	-3.249623	0.0	0.0
