18

C	0.0	0.0	0.0
C	-0.551877	0.018295	-1.446967
Br	1.972546	0.0	0.0
H	-1.63707	-0.061967	-1.211818
C	-0.509072	1.172457	0.823301
H	-0.135331	2.111689	0.409931
H	-1.607711	1.068611	0.731442
H	-0.178508	1.088186	1.860996
C	-0.369444	-1.258663	0.653992
N	-0.569316	-2.285249	1.190927
C	-0.070936	-1.146304	-2.294619
H	-0.638099	-1.144223	-3.228284
H	0.992594	-1.054808	-2.542373
H	-0.230084	-2.103597	-1.79069
N	-0.314701	1.273051	-2.148822
H	-0.907996	1.988439	-1.746116
H	0.653402	1.562512	-2.036888
F	-2.873416	0.0	0.0
