18

C	0.0	0.0	0.0
C	-0.476782	-0.022018	-1.500377
Br	1.965632	0.0	0.0
H	0.412725	-0.215728	-2.107176
C	-0.535267	1.134005	0.861709
H	-0.158824	1.033544	1.882234
H	-0.232377	2.103608	0.46419
H	-1.628679	0.996981	0.824775
C	-0.330087	-1.266996	0.670276
N	-0.493189	-2.241798	1.306294
C	-1.086202	1.316906	-1.920902
H	-0.415948	2.171659	-1.775388
H	-2.012989	1.434562	-1.357059
H	-1.325426	1.261289	-2.98904
N	-1.38585	-1.146675	-1.678252
H	-1.671576	-1.154883	-2.653012
H	-2.21458	-0.89374	-1.090411
F	-3.006937	0.0	0.0
