14

C	0.0	0.0	0.0
C	-0.469834	0.232904	-1.43512
Br	2.022403	0.0	0.0
H	-0.100605	-0.574852	-2.068539
H	-1.570333	0.196136	-1.378114
N	-0.438212	1.065907	0.821006
H	-0.057281	1.962759	0.548218
H	-0.264807	0.890891	1.800728
N	-0.457884	-1.289197	0.410082
H	-0.160292	-1.472025	1.362395
H	-1.484184	-1.222042	0.401514
C	-0.055531	1.524152	-1.966444
N	0.262541	2.574566	-2.383415
Br	-3.800918	0.0	0.0
