14

C	0.0	0.0	0.0
C	-0.50028	0.009998	-1.44312
Br	2.026303	0.0	0.0
H	-0.135386	-0.867395	-1.984102
H	-1.59837	-0.035612	-1.332251
N	-0.475156	1.136717	0.67071
H	-0.490665	1.052527	1.674968
H	-0.041507	1.995162	0.368935
N	-0.457833	-1.181025	0.617221
H	-0.241246	-1.221517	1.602725
H	-0.117432	-2.008659	0.151929
C	-0.113229	1.212078	-2.169232
N	0.186532	2.173954	-2.772113
Br	-4.03152	0.0	0.0
