14

C	0.0	0.0	0.0
C	-0.396341	-0.679292	-1.303774
Br	2.138111	0.0	0.0
H	0.042037	-0.135577	-2.141142
H	-1.495915	-0.605813	-1.336342
N	-0.431105	1.352068	-0.023559
H	-1.458521	1.299656	-0.071168
H	-0.179933	1.80748	0.846455
N	-0.408373	-0.74563	1.101636
H	-0.028945	-1.681691	1.142638
H	-0.322748	-0.260369	1.983168
C	-0.009065	-2.081918	-1.345221
N	0.284651	-3.218343	-1.354408
Br	-3.723469	0.0	0.0
