14

C	0.0	0.0	0.0
C	-0.439621	-0.170473	-1.460882
Br	2.038777	0.0	0.0
H	-0.046753	0.650709	-2.064506
H	-1.539681	-0.11439	-1.419422
N	-0.440208	1.215888	0.604417
H	-1.465418	1.157015	0.625385
H	-0.158951	2.013388	0.046952
N	-0.487906	-1.054439	0.767366
H	-0.326631	-0.91917	1.753434
H	-0.235374	-1.975333	0.443711
C	-0.032146	-1.44115	-2.046486
N	0.28395	-2.477493	-2.500064
Br	-3.777367	0.0	0.0
