14

C	0.0	0.0	0.0
C	-0.441008	-0.164651	-1.462746
Br	2.032872	0.0	0.0
H	-1.541866	-0.124986	-1.417162
H	-0.073593	0.660342	-2.080002
N	-0.473117	1.230056	0.47455
H	-0.318739	1.3234	1.467833
H	-0.131682	2.027075	-0.040347
N	-0.448364	-1.014934	0.895237
H	-1.473601	-0.94574	0.889482
H	-0.170473	-1.930738	0.562767
C	-0.008331	-1.430201	-2.0396
N	0.322627	-2.458124	-2.500447
Br	-3.790892	0.0	0.0
