8
Coordinates from ORCA-job run
  C   0.65380291521829     -0.26432699380649      0.13363675910938
  C   -0.79841226194824      0.09092652596619     -0.10906633983609
  Br  1.81272998090541      1.28528229463423     -0.10305747841577
  H   -1.41926840024553     -0.79888329827318      0.03171348706156
  H   0.82347248533464     -0.61408806616051      1.15078558367679
  H   1.01185952855461     -1.01731620907437     -0.56673111785313
  H   -1.13547778781104      0.86011042544313      0.58672046509022
  H   -0.94770646000814      0.45829532127101     -1.12500135883297
