13

C	-0.450865	0.054072	-1.44868
C	0.0	0.0	0.0
F	-1.836743	0.069382	-1.525026
H	1.09283	0.0	0.0
H	-0.098563	-0.870895	-1.91738
C	0.075951	1.182112	-2.228861
N	0.436217	2.015605	-2.972197
C	-0.504899	-1.211375	0.630753
N	-0.890543	-2.222925	1.08635
N	-0.442588	1.199192	0.787499
O	-0.619098	1.03873	1.988809
O	-0.538831	2.25753	0.17807
Br	3.261246	0.0	0.0
