13

C	-0.45416	-0.091949	-1.444412
C	0.0	0.0	0.0
F	-1.838368	-0.116736	-1.521593
H	1.095435	0.0	0.0
H	-0.079694	-1.047089	-1.825999
C	0.050279	0.97109	-2.323921
N	0.404046	1.746293	-3.130324
C	-0.495989	-1.144377	0.750791
N	-0.891089	-2.105007	1.298331
N	-0.444556	1.263805	0.675822
O	-0.474881	1.246895	1.90051
O	-0.692687	2.227805	-0.040722
Br	3.263592	0.0	0.0
