13

C	-0.417657	0.065834	-1.472252
C	0.0	0.0	0.0
F	-0.129976	-1.153704	-2.044864
H	1.093171	0.0	0.0
H	0.174882	0.833889	-1.969676
C	-1.854626	0.338112	-1.644388
N	-3.000707	0.54267	-1.795381
C	-0.559188	-1.150231	0.684504
N	-0.998286	-2.101962	1.214384
N	-0.387867	1.268174	0.691902
O	-0.433918	2.273512	-0.016905
O	-0.557218	1.232279	1.903319
Br	3.270455	0.0	0.0
