13

C	-0.445037	-0.062481	-1.449258
C	0.0	0.0	0.0
F	-1.828545	-0.097941	-1.541509
H	1.095594	0.0	0.0
H	-0.057654	-1.004916	-1.850018
C	0.061182	1.02466	-2.296729
N	0.427436	1.810588	-3.086132
C	-0.495428	-1.16013	0.72527
N	-0.890687	-2.126646	1.262402
N	-0.450132	1.249304	0.701696
O	-0.466214	1.213273	1.924605
O	-0.718568	2.21975	0.003382
Br	3.263985	0.0	0.0
