16

C	-0.46818	0.103393	-1.448677
C	0.0	0.0	0.0
Br	-2.323048	0.74624	-1.509602
H	1.094615	0.0	0.0
H	-0.300493	0.931458	0.494125
C	0.421367	1.013045	-2.269214
H	0.102795	1.042389	-3.313227
H	1.449001	0.651111	-2.183814
H	0.378203	2.022212	-1.856576
N	-0.423186	-1.298607	-2.045872
O	-1.451288	-1.873334	-2.378128
O	0.712993	-1.753399	-2.126051
N	-0.516165	-1.195659	0.646816
H	0.237908	-1.639384	1.154183
H	-1.260776	-0.974625	1.293493
Br	3.617775	0.0	0.0
