16

C	-0.425184	0.066933	-1.454081
C	0.0	0.0	0.0
Br	0.022791	1.805238	-2.197744
H	1.091907	0.0	0.0
H	-0.337169	-0.971437	0.369505
C	0.253647	-1.013987	-2.273846
H	-0.034777	-1.991123	-1.880531
H	1.33346	-0.891944	-2.166483
H	-0.027463	-0.943438	-3.326401
N	-1.939238	-0.142294	-1.543956
O	-2.64989	0.63934	-2.159375
O	-2.333914	-1.169729	-0.994198
N	-0.630206	1.053335	0.794243
H	-0.61242	0.76364	1.764393
H	-0.045967	1.879491	0.735003
Br	3.631664	0.0	0.0
