16

C	-0.406922	-0.004813	-1.462112
C	0.0	0.0	0.0
Br	-0.088813	1.731614	-2.279123
H	1.093275	0.0	0.0
H	-0.307795	-0.976652	0.398589
C	0.338358	-1.071959	-2.236595
H	0.086811	-2.055113	-1.824465
H	1.409115	-0.902581	-2.101302
H	0.072986	-1.04652	-3.292324
N	-1.905709	-0.266012	-1.612158
O	-2.573692	-0.370307	-0.583107
O	-2.351567	-0.395815	-2.74862
N	-0.518283	1.12072	0.760424
H	0.211669	1.46707	1.367435
H	-1.314517	0.840196	1.313479
Br	3.610214	0.0	0.0
