18

C	0.0	0.0	0.0
C	-0.121173	0.044738	-1.569349
Br	2.147228	0.0	0.0
H	0.406907	-0.836424	-1.929063
N	-0.470272	1.076017	0.769858
H	-1.501164	0.922631	0.717232
H	-0.230213	1.954757	0.326732
N	-0.511795	-1.254782	0.416182
H	-1.542448	-1.06988	0.307986
H	-0.33754	-1.310396	1.416158
N	0.627316	1.194963	-2.179305
O	1.332309	0.95331	-3.157535
O	0.428894	2.326592	-1.735452
C	-1.498875	0.127098	-2.21454
H	-1.985795	1.067598	-1.968751
H	-1.350268	0.042218	-3.296962
H	-2.155434	-0.64788	-1.839111
F	-2.845721	0.0	0.0
