18

C	0.0	0.0	0.0
C	-0.172656	-0.105183	-1.570387
Br	2.054176	0.0	0.0
H	0.185721	-1.0996	-1.846761
N	-0.435255	1.235714	0.482534
H	-0.594266	1.215464	1.476354
H	0.096107	2.024473	0.154311
N	-0.689116	-1.009967	0.69027
H	-1.717955	-0.711235	0.541746
H	-0.522874	-1.911285	0.257376
N	0.724664	0.815466	-2.35801
O	0.720873	2.013912	-2.076023
O	1.33909	0.330733	-3.307725
C	-1.558185	0.159233	-2.130483
H	-2.33467	-0.286936	-1.493786
H	-1.764878	1.228967	-2.075439
H	-1.57512	-0.168856	-3.177413
F	-3.072522	0.0	0.0
