18

C	0.0	0.0	0.0
C	-0.507605	0.001567	-1.459907
Br	1.975092	0.0	0.0
H	-1.598978	0.023129	-1.313807
N	-0.466324	1.250003	0.565474
H	-1.494255	1.08796	0.543704
H	-0.167556	1.282007	1.536233
N	-0.470344	-1.217625	0.606712
H	-1.49994	-1.085061	0.529125
H	-0.22032	-1.199337	1.591258
N	-0.227909	-1.303509	-2.137712
O	0.905918	-1.503952	-2.578443
O	-1.166458	-2.090389	-2.265652
C	-0.000107	1.133706	-2.325022
H	1.069367	1.041092	-2.512632
H	-0.529387	1.130297	-3.282733
H	-0.198389	2.072563	-1.809606
F	-2.830269	0.0	0.0
