18

C	0.0	0.0	0.0
C	-0.265103	0.141991	-1.567967
Br	1.978854	0.0	0.0
H	0.619927	-0.243269	-2.06632
N	-0.505047	1.146946	0.691914
H	-1.533159	1.014987	0.555855
H	-0.302706	1.029432	1.681079
N	-0.489666	-1.298817	0.38535
H	-1.517795	-1.11794	0.357023
H	-0.223655	-1.460092	1.353465
N	-0.253379	1.599404	-1.932067
O	-1.311297	2.219191	-1.892489
O	0.82903	2.086554	-2.271443
C	-1.475407	-0.522609	-2.198546
H	-1.387624	-1.597585	-2.027508
H	-1.436155	-0.334982	-3.277548
H	-2.392864	-0.169018	-1.732352
F	-2.855022	0.0	0.0
