16

C	-0.451838	-0.028688	-1.458331
C	0.0	0.0	0.0
F	-0.106932	1.24489	-1.959368
H	1.088046	0.0	0.0
C	0.348389	-0.984952	-2.251108
N	0.897193	-1.689784	-3.012595
N	-1.824426	-0.320554	-1.640802
H	-2.060357	-0.330164	-2.624825
H	-2.372254	0.370442	-1.143854
N	-0.476099	-1.193394	0.718724
O	-0.243427	-2.267938	0.172636
O	-1.020798	-1.05209	1.814125
N	-0.529044	1.192338	0.708838
O	-1.63801	1.635658	0.387543
O	0.170862	1.656777	1.600553
F	2.446626	0.0	0.0
