16

C	-0.501133	-0.033624	-1.441164
C	0.0	0.0	0.0
F	-0.154562	1.220265	-1.98326
H	1.088066	0.0	0.0
C	0.260179	-1.014777	-2.24218
N	0.784177	-1.737871	-3.003801
N	-1.888915	-0.30452	-1.553519
H	-2.175788	-0.329373	-2.523295
H	-2.396348	0.411083	-1.046853
N	-0.476152	-1.197829	0.723052
O	-1.118419	-1.056631	1.762051
O	-0.165348	-2.271011	0.218677
N	-0.502977	1.188324	0.733957
O	-1.549039	1.734283	0.366097
O	0.164838	1.547737	1.695898
F	2.446591	0.0	0.0
