16

C	-0.168792	0.094637	-1.520607
C	0.0	0.0	0.0
F	0.140526	-1.187984	-2.019381
H	1.087848	0.0	0.0
C	-1.526138	0.394649	-2.022905
N	-2.583613	0.660747	-2.4583
N	0.76194	1.071493	-1.915677
H	1.655883	0.864725	-1.4323
H	0.861355	1.101081	-2.921299
N	-0.660659	-1.154943	0.630716
O	-0.323307	-1.381169	1.791718
O	-1.500671	-1.789013	-0.005471
N	-0.540494	1.21458	0.663885
O	-1.744778	1.20857	0.93958
O	0.236688	2.139283	0.875223
F	2.541669	0.0	0.0
