16

C	-0.195027	-0.058046	-1.532142
C	0.0	0.0	0.0
F	-0.141922	-1.420441	-1.82194
H	1.089486	0.0	0.0
C	-1.498974	0.437373	-2.018909
N	-2.52276	0.833269	-2.435234
N	0.88184	0.580453	-2.206806
H	0.696164	1.572081	-2.277666
H	1.724749	0.439238	-1.619443
N	-0.671249	-1.108522	0.705938
O	-0.00042	-1.799504	1.466027
O	-1.873498	-1.251845	0.474659
N	-0.480047	1.262728	0.583622
O	-0.86207	1.247365	1.750829
O	-0.400089	2.268911	-0.122724
F	2.529826	0.0	0.0
