16

C	-0.529395	0.001236	-1.430912
C	0.0	0.0	0.0
F	0.111757	0.996893	-2.135815
H	1.088733	0.0	0.0
C	-0.148225	-1.270236	-2.108288
N	0.041653	-2.262008	-2.708694
N	-1.93265	0.292891	-1.500706
H	-2.240251	0.252704	-2.465505
H	-2.435282	-0.400513	-0.960405
N	-0.480036	-1.167935	0.768803
O	0.065043	-1.36658	1.847808
O	-1.383301	-1.87378	0.296567
N	-0.502052	1.214986	0.695221
O	-1.345237	1.084778	1.583658
O	-0.033617	2.278255	0.3081
F	2.446099	0.0	0.0
