16

C	-0.498868	-0.031534	-1.440918
C	0.0	0.0	0.0
F	0.020775	1.065822	-2.094988
H	1.088783	0.0	0.0
C	0.066815	-1.215441	-2.143191
N	0.407489	-2.143103	-2.77764
N	-1.924844	0.076312	-1.541551
H	-2.345144	-0.679596	-1.015451
H	-2.201482	-0.004143	-2.513081
N	-0.437068	-1.176143	0.775687
O	-0.032262	-1.241706	1.929679
O	-1.140097	-2.035586	0.22796
N	-0.550739	1.20552	0.670402
O	-0.011219	2.269586	0.389941
O	-1.512449	1.069381	1.427456
F	2.442907	0.0	0.0
