16

C	-0.530085	0.005125	-1.43189
C	0.0	0.0	0.0
F	0.12444	0.990902	-2.138978
H	1.088805	0.0	0.0
C	-0.167938	-1.273251	-2.106695
N	0.006357	-2.269382	-2.705572
N	-1.931413	0.315662	-1.502667
H	-2.442044	-0.366696	-0.952845
H	-2.244962	0.266486	-2.464982
N	-0.493052	-1.157903	0.774252
O	-1.426405	-1.835477	0.322006
O	0.064649	-1.37186	1.841981
N	-0.492479	1.217761	0.697908
O	-1.337437	1.091271	1.588764
O	-0.011476	2.278026	0.315691
F	2.442735	0.0	0.0
