16

C	-0.253068	0.056479	0.065974
C	-0.412618	0.135256	-1.457483
Cl	1.033632	-1.092407	0.53307
H	0.5633	0.378337	-1.896344
H	-1.227341	-0.280716	0.470978
N	0.127285	1.39553	0.612061
O	-0.687392	1.954225	1.346973
O	1.188244	1.894562	0.234552
C	-1.445666	1.215885	-1.762423
H	-2.360752	0.915214	-1.246476
H	-1.621168	1.227661	-2.840217
H	-1.129209	2.212524	-1.443304
N	-0.919538	-1.120934	-1.987893
H	-1.762963	-1.292651	-1.401029
H	-0.251222	-1.854525	-1.775362
F	-2.761074	-0.93052	-0.0578
