16

C	-0.248721	0.069129	0.055319
C	-0.412127	-0.056516	-1.464382
Cl	1.0415	-1.00427	0.669757
H	0.56064	0.134549	-1.934675
H	-1.220584	-0.211349	0.505672
N	0.130942	1.46961	0.416985
O	-0.676795	2.11549	1.085212
O	1.188846	1.916548	-0.027894
C	-1.456071	0.964841	-1.905611
H	-1.150036	1.997942	-1.720109
H	-1.633295	0.833786	-2.975132
H	-2.366793	0.725622	-1.351021
N	-0.908276	-1.376382	-1.822902
H	-1.745992	-1.479925	-1.211957
H	-0.229254	-2.06876	-1.523854
F	-2.746492	-0.953352	0.070425
