16

C	-0.219804	0.051383	0.048535
C	-0.415341	0.018896	-1.459501
Cl	1.129516	-0.972518	0.591143
H	0.538848	0.26054	-1.9441
H	-1.16967	-0.282253	0.503604
N	0.091053	1.452229	0.48309
O	-0.67721	1.976009	1.28879
O	1.069936	2.007251	-0.015091
C	-1.497299	1.047568	-1.814969
H	-1.212922	2.080481	-1.588893
H	-2.385743	0.747014	-1.25246
H	-1.704359	0.985833	-2.888762
N	-0.820648	-1.347777	-1.7762
H	-1.683526	-1.468314	-1.205677
H	-1.086208	-1.367715	-2.755773
F	-2.759665	-0.943745	0.017666
