16

C	0.0	0.0	0.0
C	-0.550979	0.063702	-1.435124
Cl	1.785675	0.0	0.0
H	-1.662375	0.034435	-1.252037
N	-0.462299	1.197261	0.655046
H	-1.493517	1.10482	0.609737
H	-0.191324	1.141505	1.63234
N	-0.467458	-1.272291	0.490397
H	-1.497197	-1.152196	0.50693
H	-0.146049	-1.38865	1.446927
C	-0.090425	-1.031	-2.270308
N	0.235042	-1.911446	-2.977046
N	-0.23665	1.366796	-2.103091
O	0.852817	1.471718	-2.667199
O	-1.095555	2.241163	-2.045044
H	-2.924465	0.0	0.0
