17

C	0.0	0.0	0.0
C	-0.529428	-0.112599	-1.449259
F	1.366155	0.0	0.0
H	-0.796772	0.896203	-1.761617
C	-0.369891	1.286514	0.700632
H	-1.452295	1.353091	0.736372
H	0.085564	2.100769	0.128489
H	0.071403	1.269692	1.697334
N	-0.367563	-1.22984	0.80293
O	-0.522744	-1.098831	2.00993
O	-0.336528	-2.294757	0.194373
C	-1.644277	-1.003352	-1.760063
N	-2.347069	-1.716442	-2.381966
N	0.651107	-0.483424	-2.343423
O	1.291453	0.462152	-2.803369
O	0.902143	-1.668932	-2.522413
F	-2.469797	0.0	0.0
