17

C	-0.539614	-0.035096	-1.410811
C	0.0	0.0	0.0
Cl	0.218043	-1.391532	-2.288422
H	1.090398	0.0	0.0
C	-1.99117	-0.194659	-1.491285
N	-3.143094	-0.42539	-1.520977
N	-0.15451	1.219515	-2.222427
O	0.867652	1.791924	-1.903575
O	-0.886038	1.479645	-3.169424
C	-0.380023	-1.226871	0.81535
H	-1.4627	-1.33402	0.943869
H	0.024476	-2.117453	0.335498
H	0.098451	-1.128298	1.787638
N	-0.524394	1.198696	0.673239
O	-1.209167	1.996928	0.019151
O	-0.248037	1.347769	1.860394
F	2.476962	0.0	0.0
