17

C	-0.53797	-0.035127	-1.412999
C	0.0	0.0	0.0
Cl	0.210421	-1.397001	-2.290698
H	1.09001	0.0	0.0
C	-1.990365	-0.18842	-1.489802
N	-3.145081	-0.408072	-1.466243
N	-0.146112	1.210513	-2.233359
O	-0.896844	1.487875	-3.162954
O	0.896609	1.761483	-1.936348
C	-0.37026	-1.2285	0.815696
H	-1.452438	-1.369725	0.921518
H	0.081338	-1.107888	1.798956
H	0.075789	-2.109125	0.355321
N	-0.52189	1.199175	0.674916
O	-0.278608	1.330383	1.872261
O	-1.165674	2.022515	0.007608
F	2.474852	0.0	0.0
