17

C	-0.366862	-0.047989	-1.468669
C	0.0	0.0	0.0
Cl	0.434848	1.224503	-2.392418
H	1.091686	0.0	0.0
C	0.051831	-1.333796	-2.029884
N	0.363354	-2.35358	-2.524324
N	-1.902402	0.001971	-1.742975
O	-2.370083	0.858875	-2.469731
O	-2.521731	-0.895167	-1.176584
C	-0.351442	-1.211035	0.849351
H	-1.421547	-1.317488	1.039223
H	0.022592	-2.112406	0.363098
H	0.189396	-1.098194	1.788214
N	-0.518285	1.214727	0.641187
O	-0.191217	1.405754	1.811803
O	-1.252057	1.972063	-0.005458
F	2.475674	0.0	0.0
