17

C	-0.430291	0.026285	-1.45311
C	0.0	0.0	0.0
Cl	-2.183836	0.311477	-1.686423
H	1.091916	0.0	0.0
C	0.305758	0.964324	-2.297015
N	0.838337	1.675646	-3.065996
N	-0.109904	-1.389343	-2.006877
O	-0.99185	-2.234352	-1.960286
O	1.038749	-1.546534	-2.392698
C	-0.461954	-1.204077	0.785316
H	-1.542687	-1.368202	0.749054
H	0.056926	-2.088116	0.414272
H	-0.15527	-1.059576	1.818906
N	-0.403524	1.266131	0.635012
O	-0.394689	2.283824	-0.062584
O	-0.662736	1.262909	1.839831
F	2.462189	0.0	0.0
