17

C	-0.545078	-0.012185	-1.410708
C	0.0	0.0	0.0
Cl	0.201197	-1.357801	-2.315149
H	1.090425	0.0	0.0
C	-1.997522	-0.167015	-1.483053
N	-3.151226	-0.394027	-1.485966
N	-0.158644	1.248347	-2.210835
O	0.893406	1.783392	-1.919092
O	-0.922307	1.553195	-3.120459
C	-0.369153	-1.239532	0.798924
H	0.064937	-2.114984	0.318421
H	-1.450429	-1.375588	0.915083
H	0.094648	-1.139086	1.778874
N	-0.518017	1.188838	0.695844
O	-0.26503	1.303202	1.893206
O	-1.167788	2.020574	0.044786
F	2.475685	0.0	0.0
