17

C	-0.533032	-0.022667	-1.414855
C	0.0	0.0	0.0
Cl	0.212807	-1.380052	-2.300775
H	1.090272	0.0	0.0
C	-1.985822	-0.16676	-1.502142
N	-3.141383	-0.383082	-1.515656
N	-0.129916	1.228221	-2.223915
O	-0.860655	1.500997	-3.169856
O	0.900944	1.78597	-1.903063
C	-0.386094	-1.228758	0.807798
H	0.02337	-2.117554	0.328656
H	-1.470115	-1.340399	0.931632
H	0.086625	-1.133673	1.783907
N	-0.517611	1.197969	0.681245
O	-0.267845	1.321601	1.87739
O	-1.164093	2.02501	0.020825
F	2.477961	0.0	0.0
