17

C	-0.395306	-0.095262	-1.45836
C	0.0	0.0	0.0
Cl	0.541131	0.993844	-2.483534
H	1.091516	0.0	0.0
C	-0.183789	-1.457055	-1.951545
N	-0.037977	-2.540772	-2.38274
N	-1.921812	0.150174	-1.701635
O	-2.643327	-0.497567	-0.951648
O	-2.282788	0.88962	-2.597388
C	-0.339253	-1.175293	0.900986
H	0.196967	-1.018468	1.835625
H	0.05176	-2.089908	0.454534
H	-1.408113	-1.284624	1.094242
N	-0.483753	1.25437	0.586079
O	-1.02897	2.087968	-0.14769
O	-0.293905	1.420658	1.790739
F	2.472349	0.0	0.0
