17

C	-0.413753	0.017663	-1.460036
C	0.0	0.0	0.0
Cl	-2.158229	0.351142	-1.710327
H	1.091942	0.0	0.0
C	0.351083	0.925836	-2.310256
N	0.920658	1.606519	-3.080933
N	-0.132703	-1.410837	-1.998312
O	1.004036	-1.599958	-2.405238
O	-1.031594	-2.234315	-1.922576
C	-0.489011	-1.18793	0.791457
H	-0.202637	-1.03399	1.829909
H	-1.570158	-1.341161	0.73707
H	0.027497	-2.081851	0.441761
N	-0.408946	1.280323	0.606768
O	-0.279166	2.298131	-0.077316
O	-0.802708	1.283171	1.775286
F	2.464277	0.0	0.0
