15

C	0.0	0.0	0.0
C	-0.365879	-0.244385	-1.460781
Br	2.046431	0.0	0.0
H	0.011971	-1.234028	-1.74197
H	0.186412	0.470951	-2.076562
C	-0.485234	1.321777	0.532227
H	-1.584531	1.17979	0.507505
H	-0.155416	2.141331	-0.108999
H	-0.109065	1.491796	1.545401
N	-0.39728	-1.073511	0.810564
H	-0.295896	-0.885939	1.796764
H	0.038972	-1.946277	0.552679
C	-1.789453	-0.174201	-1.884955
N	-2.527651	-0.170975	-2.811361
F	-2.798347	0.0	0.0
