15

C	0.0	0.0	0.0
C	-0.501364	-0.016128	-1.4542
Br	1.97222	0.0	0.0
H	-0.147804	0.855455	-2.015858
H	-1.602165	0.028605	-1.285665
C	-0.434744	1.306819	0.649798
H	-0.069936	1.329895	1.678537
H	-1.530041	1.276589	0.621387
H	-0.042486	2.169919	0.104489
N	-0.514019	-1.087251	0.780964
H	-1.540614	-0.92349	0.698304
H	-0.290401	-1.968224	0.32382
C	-0.138676	-1.232039	-2.165122
N	0.147638	-2.223652	-2.727411
F	-2.87755	0.0	0.0
