15

C	0.0	0.0	0.0
C	-0.279232	0.053615	-1.522106
Br	1.971176	0.0	0.0
H	0.251301	0.918841	-1.930374
H	0.193944	-0.836196	-1.948438
C	-0.433065	1.270414	0.720157
H	-1.52837	1.233094	0.672057
H	-0.031416	2.169467	0.24327
H	-0.08861	1.241957	1.759019
N	-0.538036	-1.213531	0.532502
H	-0.361634	-1.21994	1.533991
H	-1.567974	-1.004448	0.403889
C	-1.642633	0.10808	-2.07952
N	-2.463278	0.190855	-2.918995
F	-2.791334	0.0	0.0
