15

C	0.0	0.0	0.0
C	-0.5215	-0.074466	-1.437324
Br	1.965179	0.0	0.0
H	-1.622909	-0.038208	-1.272499
H	-0.238729	-1.037496	-1.869839
C	-0.422302	1.317018	0.647509
H	-0.065496	1.351346	1.681264
H	-1.517078	1.288458	0.617311
H	-0.027799	2.185534	0.11363
N	-0.531259	-1.163699	0.663663
H	-1.557946	-0.98519	0.558835
H	-0.3116	-1.085919	1.653175
C	-0.083566	1.009606	-2.301712
N	0.246354	1.882002	-3.016376
F	-2.893753	0.0	0.0
