15

C	0.0	0.0	0.0
C	-0.637271	-0.011568	-1.374926
Br	2.039766	0.0	0.0
H	-0.403657	0.899376	-1.932767
H	-1.75441	-0.028668	-1.023423
C	-0.491827	1.204398	0.768887
H	-1.587361	1.063674	0.742609
H	-0.101433	1.199547	1.790682
H	-0.185648	2.132482	0.280162
N	-0.369028	-1.192658	0.675375
H	-0.116524	-1.158924	1.652153
H	0.024591	-2.016499	0.240859
C	-0.300619	-1.184642	-2.156669
N	-0.037713	-2.154359	-2.768482
F	-2.948664	0.0	0.0
