15

C	0.0	0.0	0.0
C	-0.50547	-0.091501	-1.451305
Br	1.971578	0.0	0.0
H	-0.158655	0.750657	-2.056773
H	-1.606177	-0.039405	-1.28234
C	-0.440384	1.338879	0.576555
H	-1.534911	1.308809	0.540729
H	-0.088049	1.418085	1.605975
H	-0.043527	2.170997	-0.010166
N	-0.518586	-1.045512	0.836021
H	-0.314725	-1.944939	0.408943
H	-1.545043	-0.870644	0.745597
C	-0.146667	-1.341022	-2.104667
N	0.13654	-2.357218	-2.622814
F	-2.88644	0.0	0.0
