17

C	0.0	0.0	0.0
C	-0.533886	-0.050721	-1.448073
Cl	1.802001	0.0	0.0
H	-1.627802	-0.01441	-1.269516
N	-0.53933	1.14781	0.649361
H	-1.574684	0.952942	0.537505
H	-0.300737	1.105056	1.635591
C	-0.36227	-1.286406	0.642613
N	-0.574467	-2.314713	1.17092
C	-0.080746	-1.247752	-2.252435
H	-0.510053	-1.195319	-3.255854
H	-0.446128	-2.158703	-1.775768
H	1.003981	-1.291006	-2.343372
N	-0.15415	1.210529	-2.15535
O	0.92885	1.240004	-2.747116
O	-0.958788	2.139062	-2.134364
F	-2.773224	0.0	0.0
