17

C	0.0	0.0	0.0
C	-0.41744	0.368055	-1.461697
Cl	1.799474	0.0	0.0
H	0.451381	0.160915	-2.093877
N	-0.482341	0.969201	0.937363
H	-0.197813	0.670839	1.867037
H	-1.520429	0.787609	0.82067
C	-0.338803	-1.380997	0.416166
N	-0.470138	-2.42299	0.944977
C	-0.836236	1.812262	-1.598974
H	-0.091697	2.453445	-1.128077
H	-0.936602	2.069012	-2.654751
H	-1.794179	1.920045	-1.098381
N	-1.441544	-0.544924	-2.088473
O	-2.270176	-0.044716	-2.837082
O	-1.238174	-1.749976	-1.983605
F	-2.589555	0.0	0.0
