17

C	0.0	0.0	0.0
C	-0.389251	0.222037	-1.515321
Cl	1.79779	0.0	0.0
H	0.473987	-0.073054	-2.116592
N	-0.467243	0.956457	0.955033
H	-0.206371	1.885519	0.644495
H	-1.506261	0.803394	0.835045
C	-0.374028	-1.330934	0.514909
N	-0.460309	-2.388725	1.018433
C	-0.76636	1.65885	-1.782959
H	-1.690714	1.855801	-1.243389
H	-0.928395	1.815853	-2.849517
H	0.034499	2.32578	-1.454912
N	-1.447095	-0.704319	-2.061785
O	-1.237276	-1.903518	-1.908982
O	-2.329109	-0.232402	-2.766953
F	-2.561562	0.0	0.0
