17

C	0.0	0.0	0.0
C	-0.417411	0.341059	-1.46962
Cl	1.799893	0.0	0.0
H	0.453903	0.13254	-2.097194
N	-0.478836	0.9852	0.923768
H	-0.18892	0.694503	1.852909
H	-1.517979	0.796738	0.809302
C	-0.345773	-1.371146	0.439256
N	-0.468923	-2.397889	0.999412
C	-0.858247	1.776449	-1.633287
H	-0.943169	2.021091	-2.692769
H	-0.135989	2.437552	-1.155394
H	-1.827241	1.873661	-1.149978
N	-1.428307	-0.601482	-2.078156
O	-1.186007	-1.799184	-1.964638
O	-2.300501	-0.129604	-2.794555
F	-2.580354	0.0	0.0
