17

C	0.0	0.0	0.0
C	-0.39466	-0.045762	-1.509154
Cl	1.858764	0.0	0.0
H	0.482345	-0.406513	-2.052706
N	-0.467278	1.185275	0.639672
H	-1.509895	0.977822	0.568231
H	-0.184406	1.141415	1.614033
C	-0.313902	-1.218492	0.773827
N	-0.4172	-2.077416	1.571192
C	-0.832102	1.300643	-2.036604
H	-1.807275	1.513075	-1.606354
H	-0.903205	1.268015	-3.124501
H	-0.11641	2.063059	-1.732972
N	-1.405997	-1.110373	-1.86392
O	-2.276087	-0.83291	-2.678048
O	-1.167857	-2.241416	-1.450771
F	-2.563533	0.0	0.0
