17

C	0.0	0.0	0.0
C	-0.421563	0.141547	-1.502575
Cl	1.79925	0.0	0.0
H	0.461933	-0.105108	-2.096746
N	-0.480579	1.103544	0.780458
H	-0.189306	0.941611	1.739751
H	-1.519558	0.898919	0.693154
C	-0.349821	-1.297191	0.622918
N	-0.485602	-2.253977	1.29404
C	-0.913298	1.525458	-1.851652
H	-1.028061	1.611151	-2.933263
H	-0.195945	2.265779	-1.495533
H	-1.874019	1.665174	-1.362578
N	-1.390288	-0.908917	-1.988533
O	-1.098244	-2.072855	-1.727636
O	-2.288378	-0.566826	-2.744671
F	-2.586588	0.0	0.0
