10
Coordinates from ORCA-job run
  C   -0.05587027417886      0.49386252221301      0.30799044354949
  C   -0.97113414377576     -0.42872399229585     -0.47148754453696
  Cl  -0.02556413389410      2.11524286991789     -0.36925394468842
  H   -2.00369036669883     -0.10155112705416     -0.34992584916688
  H   -0.36321921810780      0.57436880651400      1.34988153035686
  H   -0.87394883953006     -1.44486872424989     -0.09057617865054
  H   -0.71620126043027     -0.40675281990515     -1.53168056450561
  N   1.33875683294594     -0.10888181153630      0.35257236292967
  O   1.39228643752143     -1.17678182241117      0.95591941415535
  O   2.28058496614832      0.48408609880762     -0.15243966944295
