16

C	0.0	0.0	0.0
C	-0.389431	0.212448	-1.452526
Br	2.027059	0.0	0.0
H	0.229178	-0.449137	-2.057782
H	-0.088446	1.239393	-1.681302
N	-0.547619	0.908588	0.895302
H	-0.467798	0.57681	1.848585
H	-1.530441	1.058456	0.67308
N	-0.257011	-1.483271	0.419743
O	-0.148546	-2.346029	-0.440898
O	-0.515733	-1.673198	1.603482
C	-1.858916	-0.014182	-1.776663
H	-2.558948	0.598844	-1.212237
H	-2.157404	-1.046365	-1.598749
H	-2.014829	0.203445	-2.837178
Br	-4.84144	0.0	0.0
