16

C	0.0	0.0	0.0
C	-0.545421	0.008675	-1.416693
Br	2.016501	0.0	0.0
H	-1.62113	-0.181471	-1.297051
H	-0.436348	1.050816	-1.730867
N	-0.493601	1.074945	0.737942
H	-1.512385	1.077589	0.605106
H	-0.288616	0.954446	1.723797
N	-0.262405	-1.359295	0.736651
O	-0.390034	-1.293849	1.954975
O	-0.288375	-2.388502	0.076749
C	0.05007	-0.906889	-2.477419
H	-0.065957	-1.955328	-2.215904
H	-0.487691	-0.727518	-3.413353
H	1.107355	-0.701142	-2.647948
Br	-3.787186	0.0	0.0
