13

C	0.0	0.0	0.0
C	-0.453999	0.10109	-1.472812
Br	1.967112	0.0	0.0
H	0.268834	-0.445826	-2.090965
H	-0.245186	0.910951	0.549725
H	-0.376317	1.167222	-1.762551
N	-0.488034	-1.184171	0.610237
H	-1.25982	-1.528868	0.042046
H	-0.825372	-0.996695	1.543509
N	-1.751788	-0.525106	-1.628257
H	-2.515809	-0.151427	-1.009893
H	-2.064217	-0.462591	-2.589601
H	-3.817752	0.0	0.0
