13

C	0.0	0.0	0.0
C	-0.45384	-0.015858	-1.447243
Br	1.977228	0.0	0.0
H	-0.193449	-0.997291	-1.880785
H	-0.261858	0.967189	0.429404
H	-1.549106	0.042868	-1.344412
N	-0.563223	-1.033926	0.803863
H	-0.483997	-1.910701	0.294924
H	-1.580393	-0.785498	0.78954
N	0.035919	1.129372	-2.21094
H	-0.547702	1.249848	-3.029425
H	0.983989	0.95606	-2.522099
H	-3.120728	0.0	0.0
