13

C	0.0	0.0	0.0
C	-0.663416	0.103603	-1.351263
Br	2.033051	0.0	0.0
H	-1.703763	0.367036	-1.066814
H	-0.184131	0.905079	0.578059
H	-0.20939	0.900959	-1.947456
N	-0.467112	-1.127249	0.661296
H	-0.074914	-1.287235	1.573802
H	-0.450927	-1.935889	0.05706
N	-0.685774	-1.192052	-2.029499
H	-1.654587	-1.431099	-2.209794
H	-0.181006	-1.159826	-2.903416
H	-3.609057	0.0	0.0
