13

C	-0.337534	0.019044	-1.471684
C	0.0	0.0	0.0
Cl	-2.108263	0.046908	-1.801275
H	1.093307	0.0	0.0
H	0.024719	-0.932765	-1.87139
C	0.308248	1.085259	-2.238549
N	0.774935	1.922698	-2.915569
C	-0.451672	-1.210377	0.643781
N	-0.742107	-2.233665	1.145834
N	-0.405873	1.179122	0.732228
O	-0.501313	1.080478	1.962784
O	-0.473048	2.240379	0.09716
H	2.369172	0.0	0.0
