13

C	-0.323344	-0.007817	-1.474821
C	0.0	0.0	0.0
Cl	-2.090477	0.033065	-1.824308
H	1.094488	0.0	0.0
H	0.033681	-0.970385	-1.854976
C	0.344654	1.036598	-2.252889
N	0.852859	1.797769	-2.989116
C	-0.461089	-1.193804	0.664266
N	-0.763205	-2.216606	1.160926
N	-0.40617	1.197232	0.699121
O	-0.522329	1.127156	1.929735
O	-0.458445	2.244524	0.038732
H	2.365708	0.0	0.0
