13

C	-0.494515	0.040005	-1.438026
C	0.0	0.0	0.0
Cl	0.632758	0.930054	-2.533092
H	1.091635	0.0	0.0
H	-1.43061	0.600962	-1.48599
C	-0.686484	-1.296708	-1.994457
N	-0.859612	-2.351028	-2.483725
C	-0.411425	-1.171446	0.733131
N	-0.701756	-2.158442	1.305356
N	-0.370961	1.197981	0.714096
O	-0.222102	1.178226	1.946564
O	-0.644815	2.215022	0.048138
H	2.31169	0.0	0.0
