13

C	-0.282537	0.112453	-1.492164
C	0.0	0.0	0.0
Cl	0.099892	-1.442294	-2.286124
H	1.093294	0.0	0.0
H	0.420819	0.84856	-1.888576
C	-1.655555	0.492372	-1.809992
N	-2.76249	0.778795	-2.079835
C	-0.562328	-1.147692	0.658942
N	-0.968757	-2.123971	1.175297
N	-0.327219	1.234269	0.673954
O	-0.47373	1.212997	1.903476
O	-0.25617	2.267734	-0.015563
H	2.343065	0.0	0.0
