13

C	-0.476126	-0.014844	-1.445603
C	0.0	0.0	0.0
Cl	0.565534	0.987012	-2.523685
H	1.09151	0.0	0.0
H	-1.471025	0.429951	-1.515381
C	-0.501566	-1.371119	-1.989199
N	-0.547267	-2.44664	-2.461081
C	-0.413021	-1.161589	0.750665
N	-0.729717	-2.114209	1.365663
N	-0.416067	1.203433	0.684411
O	-0.789395	2.173687	-2e-05
O	-0.229324	1.233701	1.91037
H	2.329898	0.0	0.0
