13

C	-0.488612	0.017126	-1.440675
C	0.0	0.0	0.0
Cl	0.600917	0.955132	-2.531723
H	1.091539	0.0	0.0
H	-1.449922	0.530058	-1.49725
C	-0.610707	-1.329323	-1.991422
N	-0.728547	-2.395344	-2.472123
C	-0.406746	-1.168927	0.740735
N	-0.688002	-2.155403	1.319519
N	-0.388471	1.200301	0.702169
O	-0.695289	2.201072	0.02831
O	-0.227508	1.200203	1.933068
H	2.317282	0.0	0.0
