13

C	-0.310801	0.009321	-1.488872
C	0.0	0.0	0.0
Cl	0.11628	-1.577936	-2.193431
H	1.094876	0.0	0.0
H	0.353266	0.746047	-1.947477
C	-1.704555	0.315269	-1.797687
N	-2.828411	0.535873	-2.061207
C	-0.538304	-1.108273	0.74304
N	-0.89586	-2.055327	1.343398
N	-0.330469	1.272032	0.599183
O	-0.426085	1.329751	1.832439
O	-0.309693	2.258828	-0.158969
H	2.343191	0.0	0.0
