18

C	-0.090074	0.153289	-1.529613
C	0.0	0.0	0.0
Cl	-0.470539	1.988033	-2.052888
H	1.097663	0.0	0.0
N	1.053517	-0.331269	-2.075781
H	1.898308	-0.201753	-1.459233
H	1.151234	-0.267723	-3.075656
N	-1.339112	-0.497955	-2.130147
O	-1.216478	-1.098787	-3.191987
O	-2.388883	-0.363494	-1.51191
N	-0.436388	-1.361815	0.304807
H	0.259738	-1.786544	0.901334
H	-1.331152	-1.355079	0.778993
C	-0.61488	1.077147	0.864227
H	-0.453201	0.803309	1.911901
H	-1.690141	1.169541	0.683373
H	-0.145958	2.045796	0.692818
F	2.745356	0.0	0.0
