18

C	-0.478656	-0.012915	-1.420464
C	0.0	0.0	0.0
Cl	-2.353504	-0.405075	-1.45447
H	1.091716	0.0	0.0
N	-0.200789	1.135646	-2.159724
H	-0.512454	1.031095	-3.115733
H	-0.596501	1.957242	-1.728203
N	0.094268	-1.175493	-2.234988
O	-0.124493	-1.131338	-3.446969
O	0.72648	-2.044292	-1.659292
N	-0.44899	-1.193647	0.709507
H	0.370308	-1.585544	1.157362
H	-1.132274	-0.956916	1.418
C	-0.386866	1.298595	0.696032
H	0.118196	2.154183	0.24066
H	-1.471742	1.471067	0.719929
H	-0.016704	1.239118	1.722333
F	2.602346	0.0	0.0
