18

C	-0.074522	0.127744	-1.522964
C	0.0	0.0	0.0
Cl	-1.681355	0.692661	-2.153995
H	1.099721	0.0	0.0
N	0.974042	0.977067	-1.913993
H	1.118305	0.956495	-2.914021
H	1.826039	0.711669	-1.356446
N	0.126826	-1.250646	-2.245012
O	0.476748	-2.224442	-1.585343
O	0.057273	-1.235497	-3.472812
N	-0.731606	-1.128927	0.558393
H	-0.153691	-1.952927	0.475335
H	-0.8562	-0.946626	1.546575
C	-0.479117	1.287566	0.645062
H	-1.572929	1.340243	0.649962
H	-0.114967	1.317681	1.677412
H	-0.076934	2.151946	0.119264
F	2.739447	0.0	0.0
