14
Coordinates from ORCA-job run
  C   1.15390054615157     -0.20438770383912     -0.26356413941517
  C   -0.19428450853669      0.14316007998684      0.37280994358655
  Cl  2.17337931304092     -1.05323942717719      0.93104872150090
  H   -0.04083084523868      0.81067684166931      1.22217653246147
  H   1.00398580219549     -0.88148257273027     -1.10487669735844
  C   1.84050311948091      0.99819115611809     -0.72625097251168
  N   2.37168604442235      1.98217373740573     -1.08527059288404
  C   -1.02769747282009     -1.06932085903267      0.74879326170584
  H   -1.19235215609692     -1.69972924283467     -0.12758585885408
  H   -0.52677678046573     -1.65217421257047      1.52069994742323
  H   -1.99353430000157     -0.74007881020089      1.13591327180472
  N   -0.98186888085919      0.93910701167204     -0.62936931307580
  O   -0.93574922433613      0.55439365922762     -1.79661080172286
  O   -1.65036065693624      1.87171034230566     -0.19691330266065
