14
Coordinates from ORCA-job run
  C   1.17200274181891     -0.16238618749104     -0.19676082828888
  C   -0.22066817126596      0.14731908724448      0.35792773439508
  Cl  2.16234973447803     -0.93089185504295      1.07438102731094
  H   -0.14088474967650      0.84953160125165      1.18911093506948
  H   1.09291094038460     -0.87068435061425     -1.02202661231771
  C   1.83392542003143      1.05189310519414     -0.66473191475814
  N   2.34710495548719      2.04222658072096     -1.03217989071868
  C   -1.02074664845798     -1.08724898625393      0.73359999000488
  H   -0.53923237118461     -1.61849386230582      1.55361902000202
  H   -1.10862570656078     -1.75580752299186     -0.12538580419653
  H   -2.02038167661473     -0.78885335345325      1.05454826975229
  N   -0.98505860092422      0.87518613871814     -0.71204341031103
  O   -1.69971802606395      1.80419214667963     -0.35146887278106
  O   -0.87197784145145      0.44501745834410     -1.85858964316267
