14
Coordinates from ORCA-job run
  C   1.18349661014546      0.16828648502564      0.40187959005951
  C   -0.33237466944841      0.04779043523547      0.53436362394768
  Cl  1.75531387369001      1.70297045276702      1.10709590328598
  H   -0.58570260839262      0.10590254093264      1.59378330153439
  H   1.61933904990301     -0.62886074187238      1.01103274733220
  C   1.67906934430512      0.00851731727977     -0.96206525270894
  N   2.11504831313660     -0.19129985592730     -2.03396910227768
  C   -0.87358050708708     -1.21191898595656     -0.11745705625378
  H   -1.95095671752175     -1.27908413452551      0.04491883045834
  H   -0.67526727381516     -1.20413447408543     -1.18997386417365
  H   -0.40581503330682     -2.09480124438075      0.32403048807187
  N   -1.00373590274185      1.23877046935338     -0.08263839570486
  O   -1.80191746157005      1.85149000081110      0.62090509268071
  O   -0.72391701729645      1.48537173534292     -1.25190590625176
