14
Coordinates from ORCA-job run
  C   1.17045767061144     -0.16770375305737     -0.19950037604638
  C   -0.21926008995466      0.15309559622772      0.35664181806264
  Cl  2.16482183404556     -0.92023074028496      1.07805314146994
  H   -0.13453160370069      0.86774077552943      1.17659747183489
  H   1.08543948947417     -0.88780708212161     -1.01396537389427
  C   1.83258667698438      1.03849972454586     -0.68747785026320
  N   2.34582908500363      2.02357662957067     -1.06874588022513
  C   -1.01945378383148     -1.07441917881594      0.75420610986011
  H   -0.53735853366805     -1.59112976276835      1.58316664752576
  H   -1.10809154760426     -1.75777452465553     -0.09292603995151
  H   -2.01895873056122     -0.77053409825767      1.07067427069732
  N   -0.98582807424834      0.86603489246010     -0.72168149932530
  O   -0.88835035599278      0.40871021887639     -1.85910359753959
  O   -1.68530203655768      1.81194130275126     -0.37593884220530
