14
Coordinates from ORCA-job run
  C   1.03054796291002      0.42562838093431     -0.49076685454416
  C   -0.19062612904983      0.19203150800032      0.40380432422822
  Cl  0.61035216940177      0.26394952042068     -2.21612870549217
  H   0.12774443108541      0.39668623041451      1.43161856435155
  H   1.37827156904074      1.45014592204237     -0.34963568701173
  C   2.09179408159766     -0.50844070365088     -0.13372882869149
  N   2.93164013578593     -1.26253523835320      0.19087523367143
  C   -0.82707112221877     -1.17223251004103      0.28635313882231
  H   -0.09078316684442     -1.93569841281358      0.54618231458825
  H   -1.19096098732257     -1.35322747230576     -0.72337745003302
  H   -1.66883337326506     -1.25355448772403      0.97301438352866
  N   -1.16745134065284      1.30563950860694      0.09710852706718
  O   -0.72067864977260      2.44564988324376      0.19415861118886
  O   -2.31494558069542      1.00495787122558     -0.21047757167388
