14

C	0.0	0.0	0.0
C	-0.362819	0.161656	-1.489971
F	1.384602	0.0	0.0
H	0.320515	-0.512523	-2.020769
H	-1.396684	-0.154557	-1.583786
C	-0.469583	1.09659	0.856163
N	-0.586243	2.027427	1.565249
C	-0.447768	-1.308834	0.503992
N	-0.519218	-2.427222	0.860454
C	-0.177913	1.596145	-1.962304
H	0.806554	1.990528	-1.69407
H	-0.278961	1.65339	-3.050214
H	-0.94589	2.228586	-1.514108
F	-2.384145	0.0	0.0
