14

C	0.0	0.0	0.0
C	-0.372345	0.101906	-1.490626
F	1.384676	0.0	0.0
H	0.268409	-0.631697	-1.995434
H	-1.423034	-0.17054	-1.545393
C	-0.469954	1.129078	0.815453
N	-0.589628	2.07636	1.502007
C	-0.458446	-1.272473	0.579549
N	-0.535029	-2.352469	1.039049
C	-0.127405	1.501432	-2.034237
H	0.882461	1.856962	-1.811236
H	-0.84832	2.1948	-1.597014
H	-0.260786	1.514762	-3.120535
F	-2.40285	0.0	0.0
