14

C	0.0	0.0	0.0
C	-0.376404	0.03185	-1.490469
F	1.384599	0.0	0.0
H	-1.434102	0.286532	-1.510628
H	0.247157	0.824282	-1.924648
C	-0.457961	1.20646	0.710935
N	-0.661736	2.19523	1.31116
C	-0.420839	-1.221984	0.698702
N	-0.469656	-2.285639	1.20076
C	-0.098757	-1.303735	-2.16499
H	-0.796448	-2.058996	-1.794223
H	0.923137	-1.650775	-1.97927
H	-0.236015	-1.216878	-3.247412
F	-2.407272	0.0	0.0
