14

C	0.0	0.0	0.0
C	-0.367506	0.060199	-1.496479
F	1.384473	0.0	0.0
H	-1.371598	-0.339784	-1.583082
H	0.371141	-0.578369	-1.997005
C	-0.468564	1.15181	0.780521
N	-0.562835	2.135728	1.418527
C	-0.448816	-1.264502	0.604839
N	-0.531561	-2.34517	1.06119
C	-0.312768	1.483899	-2.031256
H	0.626281	1.983886	-1.773187
H	-0.409793	1.487828	-3.121472
H	-1.145633	2.046677	-1.607007
F	-2.37465	0.0	0.0
