14

C	0.0	0.0	0.0
C	-0.362659	-0.114147	-1.493541
F	1.384753	0.0	0.0
H	-1.425238	0.105938	-1.549851
H	0.238046	0.656206	-1.992394
C	-0.464604	1.278794	0.55963
N	-0.547594	2.371908	0.986232
C	-0.478956	-1.13253	0.805084
N	-0.588858	-2.10268	1.461103
C	-0.032459	-1.49245	-2.048806
H	-0.685607	-2.244203	-1.600606
H	1.007097	-1.772261	-1.856041
H	-0.193274	-1.509652	-3.131325
F	-2.399383	0.0	0.0
