14

C	0.0	0.0	0.0
C	-0.368563	0.015933	-1.49684
F	1.384733	0.0	0.0
H	0.356103	-0.655131	-1.975277
H	-1.380517	-0.36778	-1.564595
C	-0.466936	1.175492	0.746345
N	-0.560633	2.176113	1.357387
C	-0.454682	-1.245213	0.638904
N	-0.536414	-2.316783	1.117059
C	-0.284593	1.416852	-2.083189
H	0.668641	1.903291	-1.850681
H	-1.098762	2.020549	-1.676871
H	-0.391329	1.380895	-3.171888
F	-2.377955	0.0	0.0
