14

C	0.0	0.0	0.0
C	-0.363646	0.023017	-1.497972
F	1.384456	0.0	0.0
H	-1.406825	-0.275201	-1.553452
H	0.299359	-0.718294	-1.961363
C	-0.463301	1.179077	0.744082
N	-0.579248	2.173657	1.36107
C	-0.457626	-1.245223	0.636209
N	-0.508574	-2.315144	1.122653
C	-0.141396	1.399601	-2.106035
H	-0.265012	1.359365	-3.192914
H	-0.87703	2.102514	-1.706649
H	0.862248	1.782872	-1.893989
F	-2.389771	0.0	0.0
