13

C	-0.331157	0.08295	-1.451546
C	0.0	0.0	0.0
F	-1.655491	0.379333	-1.724893
H	1.093674	0.0	0.0
H	-0.330504	0.926432	0.474858
N	0.445075	1.268815	-2.039901
O	1.164935	1.070263	-3.009453
O	0.221511	2.343273	-1.498773
C	0.023136	-1.127118	-2.200752
N	0.264812	-2.118255	-2.781349
C	-0.60142	-1.150823	0.629164
N	-1.074502	-2.087062	1.160155
F	2.475414	0.0	0.0
