13

C	-0.342587	-0.029995	-1.465169
C	0.0	0.0	0.0
F	0.058109	1.097796	-2.094405
H	1.094896	0.0	0.0
H	-0.335634	-0.929112	0.463958
N	0.415989	-1.211533	-2.094442
O	0.146973	-2.301988	-1.610339
O	1.17088	-0.973522	-3.019192
C	-1.765444	-0.258087	-1.784918
N	-2.907763	-0.411855	-2.011157
C	-0.594063	1.147918	0.6449
N	-1.056723	2.082424	1.188152
F	2.484783	0.0	0.0
