15
Coordinates from ORCA-job run
  C   1.13235360674230     -0.18732198868302      0.18848575369356
  C   -0.31738989153415     -0.46937621600410     -0.21058784683122
  Br  1.34986568710042      0.18831686619799      2.06372182353671
  H   -0.25661453185291     -0.71315132235082     -1.27743292919489
  H   1.75359186017483     -1.04884963695449     -0.04633699828655
  N   1.64700581156716      0.94747302623534     -0.66554504099476
  O   1.73400126296610      2.07785409013976     -0.20769934578841
  O   1.87708267234409      0.61189230994399     -1.82602899385654
  C   -1.23687999107248      0.73377138513743     -0.02594934460384
  H   -2.24336383039187      0.46840397782113     -0.35802297244691
  H   -1.28927468715278      1.02557605935128      1.02517789690697
  H   -0.91084087643401      1.60086016410141     -0.60512902449403
  N   -0.72290700554139     -1.68717920888187      0.47924298077392
  H   -0.97281498036081     -1.47360837960029      1.43837627360462
  H   -1.54281510655448     -2.07366112645375      0.02772776798139
