15
Coordinates from ORCA-job run
  C   0.88784372719547      0.46952570978613     -0.38827372489075
  C   -0.33394843659800     -0.36795617743727     -0.03505725521304
  Br  1.47255389516598      0.27268214016276     -2.22347384587609
  H   -0.07024901488670     -1.41016235246889     -0.23153502787479
  H   0.73038814316515      1.52985384631383     -0.19763211774859
  N   2.03250281520826      0.06630400247279      0.50002493797833
  O   2.23850285188764     -1.13383697826620      0.63512943684621
  O   2.66783424400272      0.97694606831261      1.01890642422915
  C   -1.55784599320204      0.03032131387043     -0.84789711396487
  H   -2.40884150147633     -0.58235190693221     -0.54258378948900
  H   -1.80985332373196      1.07947369314141     -0.66108922479425
  H   -1.40753690405288     -0.09843883704047     -1.91967105035319
  N   -0.51398631064525     -0.17287762490625      1.40220104900425
  H   -0.59944726433678     -1.05210422800325      1.89074582829996
  H   -1.32791692769528      0.39362133099457      1.59920547384667
