15
Coordinates from ORCA-job run
  C   1.01991394382043     -0.13410811459160     -0.57214803283362
  C   -0.42341173093202     -0.49711198280072     -0.21657105532825
  Br  2.15892783797056     -1.69408544836433     -0.61350943742610
  H   -0.68363366861275     -1.30902721001071     -0.91459017308164
  H   1.08337820615848      0.33433338150938     -1.55246060074011
  N   1.55002158927115      0.88692894398549      0.40481591975654
  O   2.18318500526785      0.52431903923825      1.38219568352949
  O   1.23027960611381      2.04171441326681      0.12432494325006
  C   -1.37694325219763      0.66599266851086     -0.46214442807962
  H   -1.28896871778418      1.04708537421282     -1.48151059659900
  H   -2.40502650295615      0.32139256279344     -0.31987135182854
  H   -1.18313455482510      1.47825193898520      0.23733577379723
  N   -0.48388590479908     -0.87922149780661      1.18416167628171
  H   0.06062510803358     -1.71621538959813      1.35651493520838
  H   -1.44332696452895     -1.07024867933013      1.44445674409347
