15
Coordinates from ORCA-job run
  C   1.09899810306305     -0.02933301134444      0.30859913672165
  C   -0.32299932764409     -0.43781003395989     -0.10619393491267
  Br  1.20976639738132      0.84396700507814      2.01192508210192
  H   -0.21323061867787     -0.77558073502717     -1.14881889423385
  H   1.74748409803495     -0.90319170397697      0.34751575118746
  N   1.67535834273335      0.82919392889333     -0.79307234276564
  O   2.13182577224837      0.18367846916834     -1.73559873535289
  O   1.58890907075869      2.04794065731676     -0.72573077479522
  C   -1.31261676362531      0.71413589730108     -0.06622342595473
  H   -0.94207068825523      1.58723806552978     -0.60410622948941
  H   -2.25114475764463      0.40141513551053     -0.53124753678961
  H   -1.51307145065547      1.00167900417849      0.96668643150363
  N   -0.75081558417837     -1.50224452574376      0.78799054777574
  H   -1.76036329444546     -1.56432124536233      0.80287816535440
  H   -0.38702929909331     -2.39776690756189      0.48639675964921
