15
Coordinates from ORCA-job run
  C   0.98738632331516     -0.16037395528099     -0.56996070403984
  C   -0.47162812366299     -0.56560741359883     -0.26411820524184
  Br  2.22594269887712     -1.62441435153194     -0.37192963451002
  H   -0.72992425559142     -1.26897892893432     -1.06407181736805
  H   1.09424320476734      0.21803173857670     -1.58489316945241
  N   1.39046681443845      0.97658361420041      0.32059636947117
  O   1.50283024905052      2.07241780026062     -0.22563580845679
  O   1.49100547502687      0.75564454517299      1.52371285016134
  C   -1.36317324315786      0.66713307504412     -0.37897174182962
  H   -1.19834588112845      1.20873903011554     -1.31307614207681
  H   -2.40446510255871      0.34954287495570     -0.32748524549458
  H   -1.18231763976609      1.35711273643563      0.44990900461081
  N   -0.71994575767684     -1.23018539748043      0.99457433643213
  H   -0.41078445998588     -0.65018424023057      1.76563615989984
  H   -0.21029030194723     -2.10346112770463      1.04571374789467
