15
Coordinates from ORCA-job run
  C   0.87879186350752      0.30969786951664     -0.40315436143103
  C   -0.44024651703286     -0.39077438285226     -0.05844919439139
  Br  1.56145457789147     -0.14364106269942     -2.15353819237260
  H   -0.28929844600608     -1.46000337094477     -0.23112142397494
  H   0.79996949964051      1.39537399646772     -0.34904436826358
  N   1.91058571004694     -0.07003310860100      0.62052344144336
  O   2.13414798974780     -1.26571836106189      0.77320770627675
  O   2.40380030205658      0.85074850010831      1.26774695091700
  C   -1.56843483802066      0.13064233397884     -0.93555949124601
  H   -1.37375133616212     -0.03099542162189     -1.99560706201080
  H   -2.48981075175932     -0.38211952607901     -0.65902134143804
  H   -1.71537261487610      1.20311688055018     -0.77104132377033
  N   -0.79890677700016     -0.21999351238668      1.33911643199674
  H   -0.14797399743120     -0.68357605975068      1.95951385122637
  H   -0.86295466460234      0.75827522537591      1.59442837703849
