15
Coordinates from ORCA-job run
  C   1.13055983380875     -0.04915256454109      0.15214435399802
  C   -0.34173053948698     -0.43180719763443     -0.06291309255319
  Br  1.49238358556444      0.80830872797637      1.82866761084895
  H   -0.38405453928078     -0.76358767811852     -1.11225382814940
  H   1.76436864912620     -0.93274517845783      0.09547884551318
  N   1.56188620728926      0.80918517614396     -1.01385115597182
  O   1.50952969776668      2.02866009707900     -0.92711705481505
  O   1.86980900305336      0.16451161499194     -2.01539516332998
  C   -1.29629521374511      0.73537574320581      0.12151761747310
  H   -2.29592286469979      0.44194476283703     -0.20942293666934
  H   -1.34600507230398      1.01689391706473      1.17422068926105
  H   -0.98962901256514      1.60763825090123     -0.45644928773126
  N   -0.65884677416322     -1.49702249474695      0.87632668123726
  H   -1.65768607122909     -1.54180374713231      1.03062783595739
  H   -0.35836688913460     -2.39539942956895      0.51841888493111
