15
Coordinates from ORCA-job run
  C   1.00238884759621     -0.11795667624648     -0.60553321874493
  C   -0.42558974127916     -0.49820457983857     -0.20898532845082
  Br  2.15347244328684     -1.66700463368096     -0.70111115867638
  H   -0.70068968484445     -1.30376425854549     -0.90873253172246
  H   1.03061969182475      0.36177575214369     -1.58197447405508
  N   1.55409221862867      0.89669428364645      0.36616631980320
  O   2.21902929511050      0.52818839295123      1.31992646635727
  O   1.21656410187292      2.05174245359543      0.10833893097877
  C   -1.39628956037870      0.65921069687641     -0.41030223442031
  H   -1.34463060502213      1.05234801990773     -1.42758895498429
  H   -2.41616382060389      0.30358867157287     -0.23905073453954
  H   -1.18714983860713      1.46542075751558      0.29175576196438
  N   -0.43877141351480     -0.89740876043820      1.18807731576517
  H   -1.38748730681896     -1.10300314233596      1.47516365283617
  H   0.12060537274934     -1.72962697712371      1.33385018788886
