15
Coordinates from ORCA-job run
  C   1.02632880252170     -0.12006798411624     -0.62854639880875
  C   -0.37121215762234     -0.61243876251617     -0.25909372848683
  Br  2.38503885241330     -1.47731936450315     -0.54042697496775
  H   -0.64161914299208     -1.29832080143349     -1.07075736562644
  H   1.03995034078118      0.28763076698277     -1.63718854294580
  N   1.41286680529684      1.03644529692019      0.25390931307146
  O   1.57340561766001      2.11753665839142     -0.30754174261765
  O   1.48011088382464      0.83491439234567      1.46270584543263
  C   -1.33897303056190      0.57825260463941     -0.28244243342455
  H   -1.27711112547101      1.14932318986547     -1.21354387255658
  H   -2.36276413969139      0.21212742579307     -0.17764693733934
  H   -1.14058659935456      1.25531819693571      0.55245898533259
  N   -0.37008200598885     -1.38792118241072      0.96661957265990
  H   -0.12227279543338     -0.80490167957427      1.75625755263548
  H   -1.29308030538215     -1.77157875731967      1.12523672764162
