15
Coordinates from ORCA-job run
  C   0.97474047363955     -0.15291778419068     -0.59295406922890
  C   -0.47515736348243     -0.56684705410068     -0.25639023681645
  Br  2.22498344380777     -1.61178963569482     -0.43209608963504
  H   -0.74893722536142     -1.26568059370405     -1.05519902598200
  H   1.05593131968215      0.23029116792458     -1.60847255204863
  N   1.39312791890638      0.98067439955589      0.29427479280062
  O   1.52129437987968      0.75330233413042      1.49359162506944
  O   1.49063299070568      2.07971011676710     -0.24830771260962
  C   -1.37441378914513      0.66270097386565     -0.34387158363238
  H   -2.41271870180121      0.33983514839863     -0.26917516010152
  H   -1.17674859504810      1.35005205579980      0.48332197472210
  H   -1.23463472221293      1.20837213136849     -1.27967778651745
  N   -0.69197141774884     -1.23987670648043      1.00343674294587
  H   -0.37376566615835     -0.65982190940894      1.77076372800903
  H   -0.17236304566280     -2.10800464423097      1.04075535302494
