15
Coordinates from ORCA-job run
  C   0.97944772469951      0.25242132908261     -0.47863419689805
  C   -0.34974370447981      0.35255123196728      0.24541871906046
  F   0.82698807295457     -0.34037805375764     -1.68375596673917
  H   -0.16840902548993      0.75743586929324      1.24479059084617
  H   1.48025070818970      1.21043348606969     -0.59908509691530
  N   1.88789644621876     -0.59986594610918      0.37844093480212
  O   2.21426138693211     -1.70135196187332     -0.03685848885670
  O   2.20510617189603     -0.07850034757879      1.44312177735050
  C   -1.08593101249832     -0.97116795423452      0.30796726408702
  H   -0.47335634157420     -1.71181106266990      0.82517954402498
  H   -2.02147344588370     -0.85647243627121      0.85028294731408
  H   -1.30009832255236     -1.33887092813406     -0.69519613466907
  N   -1.19125422040850      1.40448769197892     -0.44707503026435
  O   -2.40077749106136      1.35468714710125     -0.25984769945958
  O   -0.60090694694249      2.26540193513563     -1.09374916368311
