15
Coordinates from ORCA-job run
  C   1.05459703498323      0.23094496657793      0.53542518557928
  C   -0.46389592460214      0.26453685331073      0.50283871288510
  F   1.52979085711632      1.48527502190736      0.72167422746204
  H   -0.77277898162026      0.72672970643987      1.44262274266826
  H   1.40830256525300     -0.42256595905883      1.33496292826136
  N   1.66483166042962     -0.32943264854892     -0.73062842866208
  O   2.23243544795441      0.43916775388072     -1.48855101149865
  O   1.53379971032503     -1.54327912921358     -0.85292413714374
  C   -1.15382973694083     -1.06759831128864      0.28320525762600
  H   -0.83949529495760     -1.78499480279837      1.04310706537087
  H   -0.91576516648772     -1.47379818418965     -0.69703994824282
  H   -2.23333407675799     -0.92759926460319      0.36422571009046
  N   -0.90148972621341      1.23535571549041     -0.55712428935997
  O   -0.64042872303375      0.92559648905762     -1.71686201263202
  O   -1.49973964544792      2.24066179303655     -0.18693200240410
