15
Coordinates from ORCA-job run
  C   0.96003392424156     -0.48193581761806     -0.04832685953150
  C   -0.36105361883550      0.21292648952026      0.24920984464350
  F   1.28518489109862     -1.32767242713519      0.95689550900887
  H   -0.20578720814240      1.04940569048204      0.93199616671084
  H   0.93350990165921     -1.01880493267235     -0.99714992007963
  N   2.05368346673558      0.55448640503360     -0.17251688852327
  O   3.06348384885503      0.42194703266642      0.50073655943804
  O   1.80229941690628      1.44867900469055     -0.97441977150219
  C   -1.40110986849613     -0.76063077563685      0.77828200394765
  H   -1.08045115915419     -1.16308434624468      1.73808200593613
  H   -1.54609022902351     -1.58319424434040      0.07625002776884
  H   -2.34990339531658     -0.23912693843971      0.91521979315393
  N   -0.89855406651303      0.82204440950489     -1.01325351216210
  O   -0.91948408232469      0.10153412123399     -2.00737907465078
  O   -1.33676182169026      1.96342632895549     -0.93362588415834
