15
Coordinates from ORCA-job run
  C   0.99905752921005      0.18130682728653      0.62042710408649
  C   -0.51080158672975      0.21440911959176      0.42520025201356
  F   1.44764005261683      1.29094279539655      1.24674365755468
  H   -0.90073074075913      0.77440904073054      1.28206044995918
  H   1.28454136090122     -0.69366022081917      1.21060539200871
  N   1.74651409345852      0.02579951313779     -0.68932622267618
  O   2.75467064487035      0.68930432449873     -0.85115009250380
  O   1.27802919338509     -0.81729035821099     -1.44723104074371
  C   -1.17800510431105     -1.14421872492112      0.33989092917102
  H   -2.25889151201326     -1.02574866053607      0.30453865581031
  H   -0.84869584320947     -1.68144193033290     -0.54683999259240
  H   -0.92354307557659     -1.72776159149625      1.22770467980280
  N   -0.86825750680971      1.07892035931054     -0.76315755107794
  O   -1.96498690498535      0.89362166191834     -1.27631710563557
  O   -0.05654060004775      1.94240784444573     -1.08214911517715
