15

C	0.0	0.0	0.0
C	-0.23672	-0.091017	-1.530559
Br	1.966326	0.0	0.0
H	0.390509	0.66011	-2.006884
C	-0.423782	1.306247	0.498276
N	-0.512754	2.386929	0.955028
C	-0.460339	-1.084326	0.858847
N	-0.564093	-1.936393	1.664373
N	-1.608758	0.169083	-2.122155
O	-1.858702	1.355502	-2.274236
O	-2.238167	-0.782071	-2.55613
N	0.212122	-1.399342	-2.10659
O	0.027822	-2.421178	-1.459171
O	0.703189	-1.327699	-3.231884
F	-2.218858	0.0	0.0
