13

C	-0.539769	-0.006084	-1.410615
C	0.0	0.0	0.0
F	0.050177	1.013006	-2.162659
H	1.090387	0.0	0.0
H	-0.203176	-0.942082	-1.865591
H	-0.342736	-0.892745	0.52343
N	-1.966784	0.051792	-1.470917
H	-2.25607	0.958173	-1.123694
H	-2.25762	-0.019505	-2.436633
N	-0.471232	1.143582	0.830381
O	-0.313311	1.04154	2.043295
O	-0.972251	2.122968	0.273234
Cl	3.362865	0.0	0.0
