13

C	-0.553335	0.025997	-1.419782
C	0.0	0.0	0.0
F	-0.337398	1.321355	-1.868266
H	1.087654	0.0	0.0
H	0.011921	-0.649754	-2.061383
H	-0.39336	0.835152	0.577774
N	-1.953002	-0.267016	-1.560377
H	-2.091914	-1.267115	-1.558218
H	-2.479279	0.133086	-0.792811
N	-0.445063	-1.239545	0.671482
O	-0.316005	-2.292629	0.043964
O	-0.921146	-1.158002	1.804421
Cl	3.356328	0.0	0.0
