13

C	-0.454486	0.039057	-1.447657
C	0.0	0.0	0.0
F	-1.776006	0.468072	-1.521946
H	1.088976	0.0	0.0
H	0.160693	0.800842	-1.936385
H	-0.366894	0.871374	0.546656
N	-0.329195	-1.178624	-2.196701
H	-0.773594	-1.932169	-1.687461
H	0.654215	-1.394358	-2.306971
N	-0.502071	-1.193467	0.734943
O	-1.59855	-1.657005	0.402011
O	0.188234	-1.633388	1.649149
Cl	3.433792	0.0	0.0
