13

C	-0.463354	-0.016912	-1.452101
C	0.0	0.0	0.0
F	-0.357943	-1.323581	-1.911035
H	1.087007	0.0	0.0
H	-1.518316	0.2626	-1.544014
H	-0.365263	0.911813	0.474801
N	0.341767	0.827118	-2.28044
H	1.318491	0.753267	-1.999761
H	0.049014	1.79135	-2.198362
N	-0.608132	-1.123956	0.745174
O	-1.820263	-1.02362	0.96985
O	0.085862	-2.084131	1.058605
Cl	3.400415	0.0	0.0
