12

C	0.0	0.0	0.0
C	-0.219922	-0.302885	-1.497317
F	1.388739	0.0	0.0
H	0.452231	-1.162675	-1.663116
H	-0.376427	-0.780717	0.655754
H	-0.383605	0.977232	0.278441
N	0.23157	0.880626	-2.249394
H	1.212881	1.016943	-2.038617
H	0.146907	0.688967	-3.24061
C	-1.48155	-0.7551	-2.103309
N	-2.139021	-1.225365	-2.961072
Br	-3.367646	0.0	0.0
