12

C	0.0	0.0	0.0
C	-0.552561	0.281108	-1.394571
F	1.374063	0.0	0.0
H	-1.521955	0.776108	-1.247192
H	-0.364293	-0.971108	0.334673
H	-0.340542	0.771229	0.693355
N	-0.705142	-0.983519	-2.136326
H	-1.558128	-1.389702	-1.752035
H	-0.922467	-0.762508	-3.103159
C	0.33577	1.190869	-2.123823
N	1.003509	1.944239	-2.728886
Br	-3.603999	0.0	0.0
