12

C	0.0	0.0	0.0
C	-0.41436	0.322325	-1.44675
F	1.387481	0.0	0.0
H	0.244069	1.149422	-1.740913
H	-0.352953	0.787874	0.668644
H	-0.36603	-0.970698	0.336743
N	-1.77522	0.720082	-1.719816
H	-2.476029	0.097958	-1.313351
H	-1.957766	1.618474	-1.289047
C	-0.031467	-0.815169	-2.305783
N	0.299276	-1.730334	-2.961424
Br	-4.528136	0.0	0.0
