17

C	0.0	0.0	0.0
C	-0.584652	-0.046209	-1.408583
F	1.362991	0.0	0.0
H	-1.655201	0.174791	-1.270909
N	-0.335682	1.360562	0.629751
O	-0.873496	2.215141	-0.065878
O	0.016969	1.504243	1.796539
C	-0.512633	-1.091052	0.893484
H	-1.603438	-1.039784	0.928448
H	-0.087774	-0.952453	1.88694
H	-0.202236	-2.045543	0.473024
N	-0.446295	-1.394972	-1.954576
H	0.388222	-1.465725	-2.523715
H	-1.255225	-1.602281	-2.525751
C	0.03739	0.956233	-2.287311
N	0.588295	1.651732	-3.057814
Cl	-3.719436	0.0	0.0
