17

C	0.0	0.0	0.0
C	-0.585469	0.125845	-1.403952
F	1.362968	0.0	0.0
H	-1.65258	0.34582	-1.241062
N	-0.328741	1.27693	0.787797
O	0.010052	1.276089	1.967442
O	-0.833631	2.221239	0.190426
C	-0.516295	-1.189052	0.753613
H	-0.206056	-2.085935	0.221347
H	-0.096435	-1.173948	1.75858
H	-1.607301	-1.140081	0.788954
N	-0.46824	-1.153933	-2.103619
H	-1.304871	-1.304873	-2.651419
H	0.333267	-1.152218	-2.72014
C	0.052566	1.209292	-2.164684
N	0.609881	1.980839	-2.853839
Cl	-3.722922	0.0	0.0
