17

C	0.0	0.0	0.0
C	-0.384712	0.000134	-1.504245
F	1.367789	0.0	0.0
H	0.292565	0.73734	-1.945416
N	-0.339144	1.381282	0.569474
O	-0.607572	1.45809	1.762598
O	-0.211246	2.335681	-0.196235
C	-0.594442	-1.079092	0.845282
H	-1.685039	-0.97481	0.843965
H	-0.226702	-1.001871	1.867431
H	-0.317627	-2.047925	0.426977
N	-1.722545	0.320653	-1.910844
H	-1.879477	1.312148	-1.785191
H	-2.451157	-0.139743	-1.358799
C	0.023855	-1.310902	-2.043453
N	0.346366	-2.352446	-2.478358
Cl	-4.201363	0.0	0.0
