16

C	-0.408216	0.005246	-1.466014
C	0.0	0.0	0.0
Cl	0.097237	-1.443205	-2.338779
H	1.101857	0.0	0.0
H	0.025558	0.862951	-1.977002
N	-1.896745	0.18101	-1.620906
O	-2.275542	1.270251	-2.04504
O	-2.626076	-0.74821	-1.289036
C	-0.504618	-1.179289	0.808871
H	-0.012261	-1.154533	1.785054
H	-1.586498	-1.132077	0.948329
H	-0.244862	-2.126273	0.336769
N	-0.533976	1.252301	0.565971
H	-0.442611	1.187611	1.574142
H	0.088458	2.00552	0.286742
Cl	3.417189	0.0	0.0
