16

C	-0.412121	0.174022	-1.454517
C	0.0	0.0	0.0
Cl	-0.064561	-1.222288	-2.486639
H	1.094298	0.0	0.0
H	0.093304	1.040206	-1.873925
N	-1.880582	0.490496	-1.57661
O	-2.177203	1.568127	-2.088815
O	-2.683404	-0.334407	-1.141735
C	-0.47625	-1.267052	0.693145
H	0.010897	-1.31108	1.67018
H	-0.189909	-2.161019	0.138224
H	-1.560377	-1.2734	0.828371
N	-0.435076	1.231989	0.669584
H	-1.186475	1.035537	1.319124
H	0.346707	1.608985	1.1899
Cl	3.39887	0.0	0.0
