16

C	-0.563065	0.093396	-1.412761
C	0.0	0.0	0.0
Cl	0.242665	1.331732	-2.375648
H	1.095928	0.0	0.0
H	-1.623219	0.332027	-1.372318
N	-0.48561	-1.229006	-2.12412
O	-1.557513	-1.831247	-2.23422
O	0.606813	-1.641356	-2.482147
C	-0.510254	-1.247573	0.70211
H	-0.102648	-1.264653	1.716082
H	-0.164297	-2.155716	0.205453
H	-1.604376	-1.261725	0.754017
N	-0.500025	1.210002	0.684857
H	-0.62542	0.992888	1.664148
H	0.243463	1.897208	0.64998
Cl	3.460342	0.0	0.0
