16

C	-0.37573	0.185391	-1.482065
C	0.0	0.0	0.0
Cl	0.319883	-1.034223	-2.540235
H	1.094836	0.0	0.0
H	-0.051937	1.164905	-1.826679
N	-1.876464	0.18652	-1.621149
O	-2.470135	-0.867372	-1.814853
O	-2.417979	1.278693	-1.417557
C	-0.540475	-1.290658	0.5873
H	-0.287572	-2.155522	-0.027615
H	-0.090587	-1.416529	1.572167
H	-1.628895	-1.252374	0.707281
N	-0.398597	1.137483	0.820036
H	0.266576	1.890478	0.685795
H	-1.321048	1.478123	0.573735
Cl	3.406198	0.0	0.0
