16

C	-0.456057	0.010012	-1.449421
C	0.0	0.0	0.0
Cl	-2.233972	0.008834	-1.608709
H	1.09518	0.0	0.0
H	-0.079894	-0.85923	-1.982765
N	0.095665	1.190642	-2.209905
O	1.126034	0.954091	-2.835023
O	-0.479681	2.267349	-2.142901
C	-0.436523	-1.303189	0.669673
H	0.001435	-1.341185	1.669201
H	-1.525539	-1.367608	0.758225
H	-0.074824	-2.175387	0.117043
N	-0.435406	1.208534	0.676595
H	0.211488	1.409811	1.428944
H	-1.367395	1.099285	1.058654
Cl	3.405137	0.0	0.0
