15

C	0.0	0.0	0.0
C	-0.555898	-0.184233	-1.398809
F	1.358743	0.0	0.0
H	-1.655014	-0.18667	-1.306201
H	-0.229399	-1.143537	-1.801359
C	-0.506228	1.224872	0.703424
H	-0.053275	1.291413	1.691194
H	-0.221861	2.099059	0.113459
H	-1.593715	1.16728	0.781468
N	-0.339399	-1.260136	0.814181
O	-0.423896	-1.130503	2.029881
O	-0.38384	-2.326087	0.206824
C	-0.105146	0.891923	-2.272391
N	0.271742	1.747703	-2.981903
Cl	-3.685163	0.0	0.0
