15

C	0.0	0.0	0.0
C	-0.556853	-0.212082	-1.393256
F	1.358462	0.0	0.0
H	-0.480634	0.73736	-1.930724
H	-1.627598	-0.439077	-1.286853
C	-0.53199	1.238931	0.657514
H	-0.151698	1.299933	1.67604
H	-0.191408	2.106809	0.087423
H	-1.624425	1.191825	0.654259
N	-0.331944	-1.222703	0.871226
O	-0.751503	-2.23366	0.318581
O	-0.070167	-1.109821	2.065464
C	0.155655	-1.231668	-2.156198
N	0.744797	-2.007946	-2.811158
Cl	-3.704804	0.0	0.0
