15

C	0.0	0.0	0.0
C	-0.561134	-0.328862	-1.369821
F	1.358568	0.0	0.0
H	-0.48952	0.575153	-1.981703
H	-1.631082	-0.549667	-1.241576
C	-0.525098	1.293349	0.55131
H	-0.188355	2.106292	-0.096585
H	-0.132762	1.443627	1.555955
H	-1.617186	1.249544	0.564633
N	-0.333487	-1.14463	0.970962
O	-0.724058	-2.207952	0.502907
O	-0.099188	-0.924015	2.155806
C	0.152797	-1.402349	-2.052419
N	0.741744	-2.223564	-2.648614
Cl	-3.701337	0.0	0.0
