15

C	0.0	0.0	0.0
C	-0.562499	-0.000188	-1.406953
F	1.358683	0.0	0.0
H	-1.661181	-0.014388	-1.307618
H	-0.242216	-0.898053	-1.93636
C	-0.497247	1.1276	0.859133
H	-0.208719	2.068937	0.387139
H	-0.039582	1.060636	1.844531
H	-1.584819	1.068093	0.934215
N	-0.340906	-1.352173	0.649481
O	-0.350201	-1.386266	1.87592
O	-0.467611	-2.32337	-0.092074
C	-0.116471	1.181825	-2.134309
N	0.254782	2.124971	-2.726234
Cl	-3.685033	0.0	0.0
