15

C	0.0	0.0	0.0
C	-0.555046	-0.112672	-1.406228
F	1.36383	0.0	0.0
H	-1.653983	-0.121836	-1.312798
H	-0.225539	-1.048588	-1.858225
C	-0.507968	1.183674	0.767837
H	-1.595377	1.11619	0.841059
H	-0.227621	2.088723	0.224793
H	-0.05619	1.198715	1.758134
N	-0.331549	-1.305107	0.743942
O	-0.329976	-2.339732	0.082536
O	-0.452141	-1.240029	1.961558
C	-0.110511	1.008572	-2.224129
N	0.261871	1.901672	-2.888853
Cl	-3.683048	0.0	0.0
