19
Coordinates from ORCA-job run
  C   -0.59577238594579     -0.55680927743761      0.00830889878531
  C   0.90238401216746     -0.22772096383105      0.12700424287999
  Br  -0.88285224704366     -2.27800862116985      0.93455345287875
  H   1.46611968101929     -1.05499464918182     -0.30812887292553
  C   -1.54142511994629      0.46268764651844      0.62531938338474
  H   -1.42184244974585      1.43023968666509      0.12946639055978
  H   -2.57100921867554      0.13104096329823      0.47810767569378
  H   -1.36335239011755      0.59445984900813      1.69019292812871
  C   -0.93622928597793     -0.78705064745080     -1.46092920637273
  H   -0.25555818390242     -1.50654379752526     -1.92134466197185
  H   -1.95247610448046     -1.17406089635592     -1.54884652992045
  H   -0.88616358959834      0.15554923341165     -2.01253159525230
  N   1.35938390031670     -0.20019785556592      1.55778134636702
  O   0.93569991051340      0.71158837550292      2.26677241835352
  O   2.15011652394684     -1.07099953262862      1.91151196915917
  C   1.31066318690790      1.09696483161114     -0.50258888213359
  H   2.38733370106082      1.23639345739525     -0.38045771185868
  H   1.09364886140719      1.10222072255488     -1.57079359185358
  H   0.80333119809422      1.93324147518114     -0.02339765390207
