19
Coordinates from ORCA-job run
  C   -0.67356317988528     -0.23778679593026      0.06031970862668
  C   0.77696309143236      0.27505790513464     -0.02395053027102
  Br  -1.23494153758527     -0.46339102357857      1.93460490088516
  H   0.95005747673774      0.49367810612621     -1.08186669059305
  C   -1.60462425519748      0.79387662405757     -0.56847264200166
  H   -2.63448941023266      0.43589476262818     -0.52629713789286
  H   -1.56250795485442      1.75410512811919     -0.05437886626979
  H   -1.33270342722251      0.94008540926321     -1.61929519416130
  C   -0.83129174206534     -1.58681277476617     -0.62944497471229
  H   -0.26295902908347     -2.37001373221509     -0.12728433328512
  H   -0.48020151500713     -1.51655051088478     -1.66359780288600
  H   -1.88289527762283     -1.87796483178647     -0.63131627897561
  N   1.73349368690715     -0.84875200537425      0.25500919691372
  O   1.98409592553890     -1.10754118848461      1.42926908920592
  O   2.18091431649122     -1.45104505098706     -0.72154232325613
  C   1.14471512362464      1.46711670047156      0.83654180558685
  H   0.49427942861769      2.31344238207122      0.61335056043614
  H   2.17389531508362      1.76651426937142      0.62541261440951
  H   1.06276296432308      1.22108662676406      1.89293889824086
