19
Coordinates from ORCA-job run
  C   -0.57148695924129     -0.22425485403831     -0.50840156171031
  C   0.92278515411839      0.03169974484283     -0.21528713899430
  Br  -0.76332833145988      0.06981040900700     -2.45567236906852
  H   1.51393782922274     -0.57342888484980     -0.90373638655077
  C   -0.94198454313356     -1.67588552779579     -0.23662385069992
  H   -1.95019383669902     -1.87896132723522     -0.60060980408449
  H   -0.24886722983323     -2.36448794299692     -0.72314976528319
  H   -0.92396048715192     -1.86729376919691      0.84048649673854
  C   -1.51793142904260      0.73347642981041      0.19618413107558
  H   -1.39190806579265      0.64223239092846      1.27757523002731
  H   -2.54916837309672      0.48471230382148     -0.06125982397114
  H   -1.33831792502944      1.76931812020378     -0.09173309904911
  N   1.23665795058651     -0.55957834378407      1.13454236913797
  O   0.84235262105278      0.04703655403903      2.13001951425897
  O   1.84678971471956     -1.62743963475151      1.14928656826816
  C   1.36867488447906      1.48044458972414     -0.22822703248874
  H   1.12775716381533      1.93328269818150     -1.19033766453018
  H   0.88722006569151      2.04391456536223      0.56958508550715
  H   2.44997179679445      1.53540247872766     -0.08364089858300
