17
Coordinates from ORCA-job run
  C   0.33854618565602     -0.65664914643312      0.05129870443978
  C   -0.81095468022854      0.35949060907945      0.12320245304221
  F   -0.35799341443581     -1.88664942861206     -0.08824796058949
  H   -1.36297646074402      0.26638844376280      1.05569158211701
  N   1.19764446178306     -0.37429444770065     -1.02342593126208
  H   0.71874062923220     -0.40725106911652     -1.91319668872320
  H   2.00531559858191     -0.98162693078057     -1.02489540659223
  C   1.09814070005309     -0.74662640944649      1.35670464750783
  H   1.80472271723076     -1.57624688502669      1.28003348537335
  H   0.41602261063292     -0.95935253770370      2.18007784006956
  H   1.64026932984913      0.17420579510130      1.56012339324829
  N   -1.82010052069899      0.19059601722023     -0.97115530735891
  O   -2.98211209355697      0.41864979187885     -0.64585507963196
  O   -1.42621479731159     -0.12573268991735     -2.08798128525102
  N   -0.28778000731518      1.76521496337839      0.05481877201500
  O   -0.37551934536311      2.36435143712298     -1.00742628983957
  O   0.20324908663510      2.17553248719315      1.10023307143541
