17
Coordinates from ORCA-job run
  C   0.43821524288968     -0.60489082213949     -0.19843518490695
  C   -0.76211052890697      0.31384037719589     -0.45714200708858
  F   -0.10596106994091     -1.88248878680884     -0.48281187335136
  H   -1.08292570144018      0.21265207070964     -1.49098617545244
  N   1.42591843548380     -0.21873979201617     -1.13145450270713
  H   2.30320908454794     -0.69514388784634     -0.97229842966248
  H   1.12908864982324     -0.35502804341199     -2.08957824929423
  C   1.00352894322223     -0.66609049752663      1.19965514208262
  H   0.24167045957962     -0.96785433497815      1.91261195497123
  H   1.79564896519385     -1.41902595110173      1.19729017582455
  H   1.41374434094175      0.29566838807016      1.49823182732921
  N   -0.41952797778565      1.75737500086221     -0.25993104276646
  O   -0.47302829553428      2.45203902023878     -1.27151485076654
  O   -0.10916650795357      2.12353055982690      0.86755632461417
  N   -1.96623883592071     -0.03005012576113      0.36621832358195
  O   -2.96482261049222     -0.34968401209057     -0.27489569194644
  O   -1.86824259370763      0.03289083677747      1.58648425953888
