17
Coordinates from ORCA-job run
  C   0.46919561441756     -0.49895475597735     -0.18650076743061
  C   -0.52653435560282      0.64231301590794      0.06336968641938
  F   -0.01857707092905     -1.32546142723951     -1.17336292932175
  H   -0.19532249941803      1.28372174910651      0.88027899888976
  N   1.64445411957791      0.12149914360742     -0.74798638844705
  H   2.10847391516012      0.72416004965038     -0.07897571220909
  H   2.29070889806557     -0.60420152508263     -1.03552251048018
  C   0.69885664360952     -1.33521346016255      1.06029745706585
  H   -0.21584247848865     -1.82855241857742      1.38341123673478
  H   1.44218523652978     -2.09929734154786      0.82294203497728
  H   1.08924494613447     -0.71443540668111      1.87049861993900
  N   -1.93367429120680      0.23243231941989      0.40218069800159
  O   -2.22213482999484     -0.95641039724951      0.44635009233980
  O   -2.68602197350394      1.17805566596303      0.61525194203107
  N   -0.63015419346273      1.51869029988279     -1.14809081196361
  O   -0.01386981132447      2.57587493234090     -1.09870585941678
  O   -1.30098786956361      1.08577955663909     -2.07543578712947
