17
Coordinates from ORCA-job run
  C   0.37124938169658     -0.63836893894483      0.05833550116302
  C   -0.82017554314855      0.32698554579561      0.14825393704827
  F   -0.27199333031418     -1.90309859930152     -0.00706012623061
  H   -1.32343815275466      0.24412635437508      1.10887098711932
  N   1.16778137544302     -0.35638719026020     -1.06376974233890
  H   0.65086675838669     -0.43948114378395     -1.92868642180718
  H   1.99985804410265     -0.92952105424846     -1.08334374504890
  C   1.19084927520481     -0.64580322460531      1.32992358262247
  H   1.69010645554950      0.30888254197319      1.48047155638152
  H   1.93839101711464     -1.43810069721958      1.24745998101387
  H   0.55751368421688     -0.86740887571797      2.18916299208800
  N   -1.86912219932150      0.07122423810600     -0.88981078936818
  O   -3.02479553088576      0.25466580498227     -0.51717318162108
  O   -1.51208629024476     -0.26557588206838     -2.01303657599371
  N   -0.36674726466813      1.75120944882866      0.00466257564417
  O   0.14778153454183      2.22463102837010      1.01130760024734
  O   -0.52703921491908      2.30302064371928     -1.07456813091943
