17
Coordinates from ORCA-job run
  C   0.59079367596541     -0.46331996769391     -0.14543577602479
  C   -0.48271579495212      0.65817999985547     -0.10453764586121
  F   0.22973076789615     -1.27406446787309     -1.21118011562857
  H   -0.13948918364212      1.50070732978348      0.49386527033179
  N   1.90823966745648      0.01241613062518     -0.38522431155537
  H   1.94177621258797      0.73565627273493     -1.08962350304955
  H   2.37805663929574      0.29942873772577      0.46060921461833
  C   0.55659697134339     -1.28065559373608      1.12975446546097
  H   0.64981728112327     -0.64682326405497      2.01543196480028
  H   1.39265706747419     -1.97975359263277      1.09735150091096
  H   -0.37014674448437     -1.84823739053890      1.19184890784701
  N   -1.76620591458852      0.19767420405707      0.50261215773363
  O   -2.13933407881713      0.82698974190136      1.49329177114653
  O   -2.31496538135962     -0.77527509441772      0.00041764923916
  N   -0.75941051108932      1.19909251682716     -1.48412195427216
  O   0.22603741124714      1.66189315604067     -2.05055600507857
  O   -1.90143808545649      1.17409128139639     -1.91350359061840
