17
Coordinates from ORCA-job run
  C   0.38555038637024     -0.63634761847010     -0.32104722790324
  C   -0.78216167667520      0.34763675012492     -0.49792420650437
  F   -0.10035239008857     -1.83370775378115     -0.82970039028869
  H   -1.21295991159282      0.20708097751553     -1.48636699087539
  N   1.41156579643467     -0.20099560156510     -1.24033264165845
  H   1.89430654006716     -1.02342827376658     -1.58205826336495
  H   2.07454730591672      0.40370174626656     -0.77249677177122
  C   0.80612047608154     -0.89024443075961      1.10897615671947
  H   1.12537872894271      0.03286477786855      1.59014636057148
  H   -0.01226589319950     -1.32973017878872      1.68146505670222
  H   1.63558069454627     -1.59977997313165      1.09552221546294
  N   -0.38150109282318      1.78118052150041     -0.38157744498400
  O   -1.15278377266643      2.57779002390395     -0.90604369670818
  O   0.64070153580157      2.05776843182906      0.23908572524731
  N   -1.85917548448662      0.11103321044204      0.51609833941265
  O   -1.81385828294440      0.77074500209125      1.54967314548925
  O   -2.65869295968412     -0.77456761127938      0.23658063445320
