17
Coordinates from ORCA-job run
  C   0.46386065563571     -0.59047143574578     -0.11575786216486
  C   -0.45759618536289      0.64741558430359      0.00026817153057
  F   -0.26013641430542     -1.53318946522910     -0.82881587171745
  H   -0.08163271998046      1.35130651186956      0.74094534376142
  N   1.67946612878478     -0.34404688077310     -0.80840189424153
  H   1.55687805457086      0.12319792995153     -1.69384876047209
  H   2.39014209599904      0.08577943281258     -0.23705717867158
  C   0.76117484569485     -1.16308540898309      1.25573278259927
  H   1.42575799138940     -2.01520151001686      1.11150991399751
  H   1.24825122374476     -0.42866633235297      1.90117098910655
  H   -0.15278073001254     -1.49899300748071      1.74093113287697
  N   -1.84373824086967      0.26229429992478      0.43617839001200
  O   -2.68663732149543      0.09338213970877     -0.43405883586194
  O   -1.98655777956256      0.12247708886071      1.64683078276350
  N   -0.62978254376992      1.42907307983198     -1.26719001708292
  O   -0.40981476404302      0.87524208406463     -2.33920283443898
  O   -1.01685429641753      2.58348588925352     -1.10623425199642
