17
Coordinates from ORCA-job run
  C   0.51510780662767     -0.47115185953597     -0.05737092626831
  C   -0.52309330970167      0.65708731937922      0.01451883113649
  F   -0.02038086194969     -1.46436155370822     -0.89122988131856
  H   -0.30752891995970      1.33205792331643      0.83969184003969
  N   1.72397155699760      0.07636610079015     -0.55268334887211
  H   2.49883851100579     -0.54984901422617     -0.37988158409450
  H   1.65454385816716      0.26913555472020     -1.54341000209143
  C   0.73386713710907     -1.10282184472856      1.30249140296013
  H   1.45851083051050     -1.91163658530727      1.18475749494386
  H   1.12461717537091     -0.37222953228475      2.01124167896545
  H   -0.19040321622151     -1.52561561197783      1.68963173738428
  N   -1.90286642616263      0.10360391825744      0.24029828089252
  O   -2.17211240114158     -0.15573784735181      1.40876632056050
  O   -2.61749970771764     -0.06201164026584     -0.73839034255881
  N   -0.61792309223100      1.51040340501248     -1.21413975396126
  O   -0.24387001891224      1.04961186676832     -2.28721098094423
  O   -1.11477892179102      2.61714940114222     -1.02708076677371
