17
Coordinates from ORCA-job run
  C   0.45732609472630     -0.61307713385727     -0.13557864810601
  C   -0.70782709367256      0.29771161182230     -0.54175822236944
  F   -0.04976958740026     -1.89723560973516     -0.45761947333467
  H   -0.91495489995934      0.17247040800284     -1.60174823365456
  N   1.54184098235585     -0.23788487405408     -0.95894010583404
  H   1.34532242928411     -0.36258421552693     -1.94406799521915
  H   2.38991548360702     -0.72975872067320     -0.71259731853669
  C   0.86725398467926     -0.64720731277908      1.31691539618806
  H   1.70372293433526     -1.34489807956701      1.40637748254240
  H   0.05153856910744     -1.00278083526340      1.93892472254786
  H   1.17798796960327      0.33737632258969      1.65915213234767
  N   -0.38099091105044      1.74535527479834     -0.34169271763045
  O   -0.23923250264831      2.39908127302848     -1.37091913240045
  O   -0.27910835707664      2.15239715068259      0.80985674335163
  N   -1.99894617817677     -0.01327467400144      0.15126944559174
  O   -2.95359760762652     -0.22496191481865     -0.59418677085075
  O   -2.01048131008769     -0.03072867064804      1.37661269536683
