17
Coordinates from ORCA-job run
  C   0.37605668646214     -0.69070264199443     -0.23317138470850
  C   -0.74253964640850      0.33396583367394     -0.51364911091378
  F   -0.25817858506429     -1.92513938329249     -0.34385659090899
  H   -0.91439076367751      0.39686494999671     -1.58743975644196
  N   1.30447638262718     -0.60201603462937     -1.32184788852732
  H   1.58707751841557      0.35861853041674     -1.47133260257856
  H   2.12833626326765     -1.15547795072029     -1.11689559236778
  C   0.97847446962636     -0.61726519680790      1.15585140144212
  H   1.52540426419169      0.31843757591590      1.28653473061774
  H   0.21779343615627     -0.71052817936533      1.92808369466538
  H   1.68509242286533     -1.44447155199865      1.25545387862451
  N   -0.36451810747062      1.70892276646029     -0.03898515617359
  O   -1.05168534167770      2.25288714862374      0.81300991164981
  O   0.63658364454596      2.17229051543743     -0.57909138655626
  N   -2.04454056027425     -0.04577375849191      0.11015973571647
  O   -2.04210368330772     -0.36667849491637      1.29157668571848
  O   -3.02033840027757      0.01806587169201     -0.63340056925781
