17
Coordinates from ORCA-job run
  C   0.59785654615598     -0.42957657662588     -0.08067731484918
  C   -0.75487570827346      0.20630339797293     -0.43465324393080
  F   1.08632436122843     -0.82225060535498     -1.35559928654681
  H   -1.46951648544762     -0.54412803357184     -0.76493482492172
  N   1.43103234993022      0.48757851274353      0.58024143009606
  H   1.62539383862025      1.30298118164060      0.01512257693317
  H   2.28668939837751      0.05380915213699      0.89760384874903
  C   0.43302261096340     -1.70301533737432      0.71932188944852
  H   -0.21375290060737     -2.40299136894101      0.18998225932203
  H   1.41671621002776     -2.16598527601252      0.82611424971279
  H   0.02033447398860     -1.49753987198506      1.70459121254723
  N   -0.66580221823756      1.20673975663174     -1.54622686245255
  O   0.32086766830912      1.93169134345368     -1.60437177502524
  O   -1.63080047966239      1.22720394065824     -2.30541963861075
  N   -1.35139988024202      0.89495158806098      0.75882722625834
  O   -1.26288300885326      2.11245154231143      0.82822503201650
  O   -1.87020677627762      0.14077665425551      1.57385322125342
