17
Coordinates from ORCA-job run
  C   0.45774348603315     -0.60922195401257     -0.12886093992571
  C   -0.70451438161882      0.29815643289976     -0.55085454826609
  F   -0.04976498374791     -1.89591648015429     -0.43745247608458
  H   -0.90313554994513      0.16591475395295     -1.61154316865335
  N   1.54669861083489     -0.24631087082092     -0.95257046200283
  H   2.39959384348060     -0.71504360303062     -0.67891922849500
  H   1.36241869209432     -0.41330095660084     -1.93386366475890
  C   0.85774176565360     -0.62832761642762      1.32627645705998
  H   1.22899576981730      0.34352350963877      1.64269455546422
  H   1.64611533539974     -1.37698528351369      1.43734480503097
  H   0.01890416810560     -0.91351191126712      1.95465184674056
  N   -0.38595256082334      1.74810473078838     -0.35817210057728
  O   -0.20756812904098      2.14804864290866      0.78622068228302
  O   -0.32115718406303      2.41211728807698     -1.38936139234922
  N   -1.99535358086217     -0.02502951715061      0.13806875950754
  O   -2.91385979784746     -0.36595659485302     -0.60381130600464
  O   -2.03790550347031      0.07373942956588      1.35915218103140
