17
Coordinates from ORCA-job run
  C   0.37668452763128     -0.69217082744514     -0.21364372565268
  C   -0.75119276190170      0.31732116331463     -0.51334965179182
  F   -0.25486848883783     -1.93124722802333     -0.27135805979976
  H   -0.94029161395379      0.33638255008998     -1.58611557353148
  N   1.28599934097298     -0.64329239034171     -1.32259841503759
  H   1.60430055705547      0.30638787245056     -1.47182587996249
  H   2.09073709197421     -1.22800959354920     -1.12706594072593
  C   1.00095343857045     -0.56933706161994      1.16209784893320
  H   0.25189502865299     -0.63678408080027      1.94843175541173
  H   1.71008098182334     -1.39196031490839      1.27963613235754
  H   1.54780631915104      0.37087999953342      1.25215320162492
  N   -0.38251789796023      1.71455141439651     -0.09947195688161
  O   0.65206064174319      2.13776153268379     -0.60844859015381
  O   -1.11754567211110      2.31880443176636      0.66759066950589
  N   -2.03830559772746     -0.05152992717843      0.14650491076225
  O   -3.02110134345195     -0.07334977920065     -0.58967842419192
  O   -2.01569455163090     -0.28540776116818      1.34814169913357
