17
Coordinates from ORCA-job run
  C   0.46768014941289     -0.71817871210379     -0.17099059347779
  C   -0.64715593505007      0.26341430311676     -0.60032927191124
  F   -0.03347673712497     -1.93653646290633     -0.62557760836589
  H   -0.91381047386264      0.08610467585455     -1.64177663699197
  N   1.69358061052923     -0.48868559915485     -0.85881942365112
  H   2.20841230574446      0.28097258670972     -0.45615229550808
  H   1.56299661955049     -0.34752118840218     -1.85275415500298
  C   0.68207514575113     -0.82461588273523      1.31926277116374
  H   -0.21685398896865     -1.20712835199263      1.80187278116670
  H   0.93850067315760      0.13833634213307      1.75729141545275
  H   1.49440438706148     -1.53355361492665      1.48028384716372
  N   -0.29049086036038      1.71437690808925     -0.48348324047010
  O   -1.03031031913582      2.47248879584077     -1.10340719290202
  O   0.66590851329305      2.04106929498168      0.21267437621475
  N   -1.89823635494825      0.07729974603520      0.20532544469258
  O   -1.98476535506113      0.72188054326956      1.24614438811197
  O   -2.69845837998844     -0.74172338380891     -0.22956460568504
