16

C	-0.38429	0.032444	-1.492979
C	0.0	0.0	0.0
Cl	0.272602	-1.376869	-2.386728
H	1.092191	0.0	0.0
C	-1.839989	0.016003	-1.670469
N	-3.004272	0.051247	-1.833612
C	0.236286	1.287492	-2.104499
H	1.306308	1.260863	-1.876571
H	-0.210373	2.183247	-1.670207
H	0.076013	1.286931	-3.183615
N	-0.480911	-1.183781	0.730001
O	-1.297113	-1.028617	1.647339
O	0.021608	-2.262362	0.412159
C	-0.485184	1.204022	0.64421
N	-0.810414	2.229864	1.120343
H	2.482693	0.0	0.0
