16

C	-0.380899	-0.053605	-1.493971
C	0.0	0.0	0.0
Cl	0.17296	-1.591763	-2.235773
H	1.092171	0.0	0.0
C	-1.8331	0.013836	-1.686612
N	-2.992427	0.094883	-1.865757
C	0.340849	1.095821	-2.193193
H	1.40137	1.015325	-1.930219
H	-0.051466	2.053424	-1.845506
H	0.203462	1.017046	-3.272557
N	-0.525954	-1.145583	0.77435
O	0.10107	-2.200274	0.68638
O	-1.539696	-0.973239	1.464504
C	-0.490974	1.239366	0.570285
N	-0.825235	2.293107	0.969209
H	2.538562	0.0	0.0
