16

C	-0.360841	-0.089746	-1.483048
C	0.0	0.0	0.0
Cl	-2.136313	-0.428974	-1.714512
H	1.093495	0.0	0.0
C	-0.124345	1.234036	-2.069723
N	0.072965	2.268838	-2.590748
C	0.466283	-1.106088	-2.262513
H	1.513293	-0.942348	-1.986994
H	0.318878	-0.951316	-3.333081
H	0.17562	-2.113571	-1.984286
N	-0.342603	-1.171918	0.795156
O	-0.498938	-1.003816	2.010463
O	-0.30411	-2.276866	0.240415
C	-0.502455	1.197671	0.633687
N	-0.846863	2.203424	1.137867
H	2.405237	0.0	0.0
