16

C	-0.420308	-0.121337	-1.466999
C	0.0	0.0	0.0
Cl	0.11847	1.401245	-2.283406
H	1.108702	0.0	0.0
C	0.269188	-1.215422	-2.1644
N	0.717007	-2.048151	-2.862577
C	-1.927618	-0.245987	-1.656403
H	-2.171995	-0.272529	-2.720838
H	-2.416735	0.615395	-1.197407
H	-2.268271	-1.167203	-1.182224
N	-0.349459	-1.142433	0.789462
O	-0.281499	-1.022299	2.026017
O	-0.504574	-2.2306	0.193964
C	-0.463305	1.213372	0.623772
N	-0.795443	2.236198	1.103423
H	2.303076	0.0	0.0
