16

C	-0.40243	-0.038788	-1.470566
C	0.0	0.0	0.0
Cl	0.45812	-1.373612	-2.329473
H	1.109308	0.0	0.0
C	-1.841208	-0.236271	-1.659302
N	-3.002119	-0.29279	-1.837614
C	0.052875	1.265875	-2.125845
H	-0.503545	2.111981	-1.719411
H	-0.106464	1.209517	-3.203468
H	1.118281	1.387139	-1.913159
N	-0.434481	-1.13535	0.797748
O	-0.23108	-1.048153	2.015535
O	-0.863213	-2.143978	0.2202
C	-0.408301	1.223079	0.64728
N	-0.686356	2.257873	1.135881
H	2.370542	0.0	0.0
