11
Coordinates from ORCA-job run
  C   0.17138937113071     -0.24734597349647     -0.33463104154990
  C   -1.24126737387869      0.17189061361872     -0.01049968422718
  F   0.31330659201590     -0.47013599854991     -1.66264896324244
  H   -1.34015363410291      0.37085540613534      1.05563528103893
  H   -1.92318086046458     -0.62766878874264     -0.30144476192343
  H   -1.47623176963597      1.07162220874719     -0.58220205524296
  N   1.10997917413664      0.90985307756800      0.04549717156203
  O   1.61981851783983      1.53698594343134     -0.86739318414911
  O   1.21023694973346      1.10913149631699      1.24857806519066
  C   0.61887575030164     -1.42758627631635      0.41364276108292
  N   0.93722728292396     -2.39660170871221      0.99546641146048
