11
Coordinates from ORCA-job run
  C   0.17260740689509     -0.24407078464658     -0.33599990420661
  C   -1.24183475266038      0.17005956248466     -0.01316946735649
  F   0.31952472467192     -0.45470941181824     -1.66541565417747
  H   -1.92113134998755     -0.62944538326163     -0.31039787524906
  H   -1.34399494241329      0.36317166136052      1.05374219874533
  H   -1.47716600089273      1.07229184195283     -0.58086763064565
  N   1.10819527153515      0.91098391514251      0.05788647120800
  O   1.20209914759296      1.10079436187000      1.26302372972377
  O   1.62227297299467      1.54565362790438     -0.84730832292890
  C   0.61993928763160     -1.43006489082965      0.40316005524568
  N   0.93848823463256     -2.40366450015883      0.97734639964140
