11
Coordinates from ORCA-job run
  C   0.15942639485089     -0.25936516541259     -0.33162316108192
  C   -1.23643433085364      0.20581703338870      0.00258598093050
  F   0.27644052527855     -0.51385754198340     -1.65630761521092
  H   -1.31402655309142      0.43227922389299      1.06492416947297
  H   -1.45505041002383      1.09802379176457     -0.58700120383022
  H   -1.94423669127744     -0.58106103949943     -0.25950216986719
  N   1.13465955610392      0.87939241356116      0.01086244141643
  O   1.64871996804859      1.47250431013550     -0.92220646894293
  O   1.25710531344328      1.10139882184940      1.20788852771808
  C   0.58510846644572     -1.43527939370544      0.43587051287140
  N   0.88528776107540     -2.39985245399145      1.03450898652379
