15

C	-0.766938	-0.065571	-1.448198
C	0.162537	-0.002193	-0.250007
F	-2.075121	-0.105496	-1.083319
H	1.189628	-0.123874	-0.627884
H	-0.618654	0.763161	-2.145296
N	-0.474113	-1.311507	-2.245347
O	0.603387	-1.300717	-2.836591
O	-1.293953	-2.218418	-2.256584
N	-0.098242	-1.130086	0.612318
H	-0.986085	-0.940109	1.069281
H	0.619123	-1.029556	1.345395
N	-0.044998	1.269379	0.437188
H	0.372131	2.012995	-0.121755
H	0.582562	1.162877	1.260988
H	1.85021	0.268802	2.211642
