16

C	-0.069139	0.047699	0.042084
C	-0.649474	0.254429	-1.361602
F	1.277636	-0.324498	-0.066531
H	-1.600828	0.781437	-1.229309
N	0.060313	1.40936	0.779397
O	-0.445434	2.409533	0.273953
O	0.619301	1.374701	1.873928
N	-0.805396	-0.859228	0.756754
H	-0.649158	-0.797659	1.753807
H	-1.843139	-0.889918	0.445994
N	-0.955856	-0.99195	-2.04032
H	-0.251209	-1.678529	-1.794059
H	-1.846988	-1.288476	-1.620024
C	0.258519	1.078521	-2.173399
N	0.987136	1.703977	-2.848724
H	-3.120311	-0.859918	-0.26413
