15
Coordinates from ORCA-job run
  C   0.73646710123112     -0.21571733579029      0.02581242937858
  C   -0.55895447579845      0.11380901613931     -0.16372288699164
  C   1.86424659357873      0.09489545707293     -0.92920917595112
  H   1.84413863884499      1.14351683187257     -1.22299414532443
  H   2.82355030102041     -0.12350513420935     -0.46218397901847
  H   1.77602567247071     -0.51762221139291     -1.83079342450105
  C   1.05344430459598     -0.96931375310306      1.20093660700288
  N   1.34423758509984     -1.58927959512038      2.15912552851182
  C   -1.73732984082544     -0.19207972649844      0.69388971956826
  H   -2.43171750634708     -0.83996914164147      0.15429968909506
  H   -2.26657333951475      0.73216287663107      0.94301713644489
  H   -1.42784375922039     -0.68178131991160      1.61657283430203
  N   -0.90626885315214      0.83455880049477     -1.39788341576412
  O   -1.70574239589345      0.26695269826488     -2.14044814016424
  O   -0.40868002609008      1.94337253719197     -1.58241877658846
