15
Coordinates from ORCA-job run
  C   0.72122692768300     -0.23437241083338     -0.00157351885998
  C   -0.57368087784712      0.10499274112468     -0.19119845284838
  C   1.89478995786740      0.14622346675650     -0.86635198234412
  H   1.60163337803645      0.31075902788476     -1.90190710558740
  H   2.64762381234029     -0.64216771620770     -0.82858412767290
  H   2.34514132164824      1.07097090681461     -0.49753788671888
  C   1.02052238242864     -1.02739250027548      1.15383362292713
  N   1.29927673756770     -1.67681886291780      2.09582323387928
  C   -1.75786963824398     -0.28955240286174      0.62306190806780
  H   -1.44853608132289     -0.81742917084573      1.52450646808062
  H   -2.41710080029091     -0.93126440468800      0.03553757650276
  H   -2.32904186094658      0.59821939331371      0.90809422646330
  N   -0.90790025677305      0.92179495819333     -1.36611239698158
  O   -0.21879119379081      1.91536098116841     -1.59482034412442
  O   -1.87729380835637      0.55067599337383     -2.02677122078325
