15
Coordinates from ORCA-job run
  C   0.72240481066297     -0.24309561418582     -0.01809107200129
  C   -0.57236048896722      0.11174024807336     -0.17807365976100
  C   1.88182171937471      0.13060251193345     -0.90453839145191
  H   2.35198382011286      1.04620758419888     -0.53765238107094
  H   1.56851236212331      0.30759410282545     -1.93215431837738
  H   2.62479283006739     -0.66780590662667     -0.89040221246010
  C   1.03724315877020     -1.04672689480951      1.12584943625342
  N   1.32858817295124     -1.70558715187537      2.05740555132596
  C   -1.74346213170973     -0.27610861675833      0.65805452966311
  H   -1.42073757045736     -0.81030269842327      1.55100894637752
  H   -2.41963472226242     -0.90991626741718      0.08125617766318
  H   -2.30146655908234      0.61522997943607      0.95762220408378
  N   -0.92231831028399      0.93925936611353     -1.34079797627619
  O   -1.90845631916778      0.58170018203618     -1.98383228762570
  O   -0.22791077213185      1.92720917547923     -1.57765454634245
