15
Coordinates from ORCA-job run
  C   0.72137914685957     -0.23191990498441      0.00025919926841
  C   -0.57840444834633      0.07417091593197     -0.21070283548955
  C   1.89518367194159      0.15232141881990     -0.86235439719998
  H   2.78275266291650      0.27259948059222     -0.23993826996901
  H   2.09210702217220     -0.63408192844344     -1.59497580851219
  H   1.71433601426490      1.07643518021573     -1.40876350330803
  C   1.02138922031367     -1.02344082468600      1.15642983740187
  N   1.30148361020692     -1.67575479587010      2.09605099237164
  C   -1.75359866358966     -0.25776131854731      0.64355523773340
  H   -2.52892621613805     -0.74095483129883      0.04260888767360
  H   -2.18076080989713      0.65598223064762      1.06105040986778
  H   -1.46577177993011     -0.92547296981787      1.45498162588715
  N   -0.91421368140600      0.88057317082712     -1.39232248131709
  O   -0.42358012043535      0.55532496869048     -2.47296903864746
  O   -1.68537562893273      1.82097920792292     -1.20590985576052
