15
Coordinates from ORCA-job run
  C   0.79361528390361      0.02801576554426     -0.06353817860819
  C   -0.51759942260532      0.32202870028412     -0.19534595835528
  C   1.43129682062754     -1.26918056136017     -0.48559758092085
  H   1.70113516053934     -1.85497404345653      0.39693921178824
  H   2.35126824045106     -1.06475881439746     -1.03758092672448
  H   0.77585767326403     -1.86799908699651     -1.11566667135712
  C   1.69206487422714      0.94846431223819      0.57065316843934
  N   2.50666478210089      1.61852226859714      1.09357057150559
  C   -1.61598807905812     -0.51933275936313     -0.74964962809038
  H   -2.30208713346980     -0.80550662362346      0.05012487688396
  H   -2.18883199434602      0.05555678867665     -1.48200313533566
  H   -1.23581036217686     -1.41811522194605     -1.22936434497868
  N   -0.99827940893996      1.61996676734830      0.31264137131512
  O   -1.99113826255074      1.57204423705057      1.03772732885448
  O   -0.40316817196677      2.63626827140406     -0.03691010441610
