15
Coordinates from ORCA-job run
  C   0.64114433421686     -0.42847787167912     -0.41584584705851
  C   -0.57142465714597      0.16297030328288     -0.35377398222986
  C   1.78051482218533     -0.15451460083222      0.53006123581920
  H   2.63607609005579      0.23659901938390     -0.02670474558234
  H   2.09822741867965     -1.08707838269733      1.00273708523876
  H   1.51458818016916      0.55500377617187      1.31058898163044
  C   0.93859651603970     -1.42048934273955     -1.40811906643581
  N   1.29516066102954     -2.25802376234920     -2.15463492764084
  C   -1.07055960039835      1.16476060955800      0.63169797302153
  H   -1.60075199835118      1.96431115448239      0.10849183737737
  H   -0.25787077999032      1.60640364067569      1.20386566711310
  H   -1.78189240434044      0.69750933086981      1.31559879705363
  N   -1.60505389063458     -0.24835181728990     -1.32201105153795
  O   -1.29655512356636     -0.32931522421442     -2.50813299308072
  O   -2.72019956794884     -0.46030683262280     -0.84681896368801
