15
Coordinates from ORCA-job run
  C   0.73306636817639     -0.19877676265861      0.01342174029632
  C   -0.57585152604957      0.06686150852074     -0.19060688500177
  C   1.86762204651764      0.14691788347508     -0.91732736241717
  H   1.55390453886593      0.12571622730168     -1.96067579952615
  H   2.23815565474690      1.15079600250468     -0.69847775760257
  H   2.68233322603095     -0.56371314486857     -0.77809471458054
  C   1.08604690353270     -0.84474957947704      1.24214144658042
  N   1.40843759489568     -1.35619910034360      2.25241295789359
  C   -1.73810820341449     -0.27217646895946      0.67644784063685
  H   -1.40894740668586     -0.75874678700694      1.59403409368670
  H   -2.28856570206787      0.63685118646662      0.93536646679028
  H   -2.42123966973118     -0.93316116497102      0.14021814080572
  N   -0.94294757146259      0.75577324680877     -1.43470519118823
  O   -1.84903505682566      0.24674067362871     -2.09276535794373
  O   -0.34487119652897      1.79486627957893     -1.71338961842972
