15
Coordinates from ORCA-job run
  C   0.71010738245564     -0.21213131299394     -0.50289441136378
  C   -0.58766513820346      0.12034659709904     -0.33096943079478
  C   1.76447755755614     -0.14139402413411      0.57007114231408
  H   1.35906045063603      0.15504487533741      1.53503298790148
  H   2.24284678550769     -1.11755590497909      0.68004277712506
  H   2.54075547365351      0.57113823968935      0.27888232772753
  C   1.19521515167281     -0.70230547794761     -1.76048583807457
  N   1.70632373127363     -1.13861777298072     -2.72710561353904
  C   -1.27157473560550      0.59323488828799      0.90701218882035
  H   -1.91712293198588      1.44259613343795      0.67024141699039
  H   -1.90929505670697     -0.19613150347734      1.30984028091443
  H   -0.55874033994954      0.90344333007976      1.66761906185309
  N   -1.51456018399872     -0.05075667773672     -1.46492051394850
  O   -2.58768699748195     -0.58890091086954     -1.19443934515700
  O   -1.17114114882343      0.36398952118757     -2.56892703076873
