15
Coordinates from ORCA-job run
  C   0.72003361341165     -0.24272889830004     -0.00784531679610
  C   -0.57551523066512      0.09405333959861     -0.19705715237822
  C   1.90882131184033      0.24618921226876     -0.79380509958918
  H   2.67436047185921     -0.53037457849845     -0.81922536753408
  H   2.33268727788955      1.13280158216174     -0.31614564054984
  H   1.64000840694374      0.51592619665943     -1.81380318853183
  C   1.00393663271750     -1.14489163290240      1.06873900147139
  N   1.26819071385265     -1.88093687362635      1.94911730224123
  C   -1.77291081250705     -0.40353785787689      0.53756711676983
  H   -1.47797922008098     -1.02195825273930      1.38457919249733
  H   -2.36623620189788      0.43979865176768      0.90150817613952
  H   -2.40589547297742     -0.98664016191087     -0.13389189620984
  N   -0.89374895062954      1.02460335809529     -1.28864773909241
  O   -0.21897557253561      2.04862966271115     -1.39090336947234
  O   -1.83577696722101      0.70806625259162     -2.01418601896546
