15
Coordinates from ORCA-job run
  C   0.56462550470808     -0.52566559691734     -0.41654169082175
  C   -0.59651790835314      0.14055951297209     -0.24016675618711
  C   1.85416039250689     -0.20675846757834      0.29177378553326
  H   2.16371326398263     -1.06217425986292      0.89845441010839
  H   1.77241706241390      0.66642602805470      0.93589451032942
  H   2.64178508601010     -0.02336230692031     -0.44278845340611
  C   0.66435469471507     -1.60368319601701     -1.35684216581962
  N   0.86811053620833     -2.48642490409358     -2.10850908258408
  C   -0.87587331577774      1.30581006010849      0.64839973893499
  H   -1.83914961196087      1.16953837466125      1.14472356528028
  H   -0.93283705416200      2.22692791053873      0.06459017687481
  H   -0.11340935541505      1.41431506475816      1.41825210705472
  N   -1.76069834522038     -0.25117086731488     -1.05314541395104
  O   -2.33720760409975      0.67355971421077     -1.62426229640444
  O   -2.07347334555608     -1.43789706659983     -1.09383243494173
