15
Coordinates from ORCA-job run
  C   0.78740286551417     -0.01948598502560     -0.04238914432556
  C   -0.52383177217481      0.29982189724977     -0.09160759584657
  C   1.39063393490673     -1.27929194146314     -0.60505484311972
  H   1.97600179006797     -1.78269530671896      0.16824731055375
  H   0.63861636832103     -1.97130287883705     -0.97763485951556
  H   2.07332126402479     -1.03164772152416     -1.42190433195372
  C   1.74779674314934      0.87843046070398      0.53112301527002
  N   2.62617493189372      1.54169361593662      0.94864282423619
  C   -1.65093756311420     -0.46226108963933     -0.70064151502028
  H   -2.03385153777355      0.07555816324128     -1.56981625756050
  H   -2.47121219590941     -0.54699005915726      0.01701964729029
  H   -1.34883127418291     -1.46171486913204     -1.00376472980368
  N   -0.95215386178573      1.59579105821713      0.46840961533199
  O   -0.55180831964980      1.90757690051589      1.58704081216525
  O   -1.70932137328733      2.25751775563287     -0.24066994770190
