15
Coordinates from ORCA-job run
  C   0.71665938495720     -0.25694736367343     -0.01356440055213
  C   -0.57133937078145      0.11587816657999     -0.18663867494265
  C   1.89917631976337      0.14494254839237     -0.85570310792944
  H   2.63407497595730     -0.66109028858435     -0.86232052038651
  H   1.61141987549588      0.37509882410048     -1.88015117128532
  H   2.36996379082239      1.03671376304584     -0.43465190809682
  C   0.99826135955252     -1.11350695026028      1.10026865892252
  N   1.26212205540634     -1.81636205877812      2.00752265542422
  C   -1.76449897252641     -0.30034053516442      0.60370090657255
  H   -1.46685555924663     -0.87569168306450      1.47960265595788
  H   -2.42918998159624     -0.90417090976649     -0.01727663782407
  H   -2.32562377311435      0.58008639605826      0.92849882684663
  N   -0.88840609552573      0.99993353917824     -1.31639788833273
  O   -0.17929385686640      1.99037299630786     -1.49213946109774
  O   -1.86547015229777      0.68508355562856     -1.99474993327638
