18

C	-0.355224	0.035347	-1.499254
C	0.0	0.0	0.0
Cl	-0.021425	-1.671408	-2.176456
H	1.097124	0.0	0.0
C	-1.816694	0.301636	-1.803422
H	-2.081148	1.304909	-1.463419
H	-2.451644	-0.43597	-1.308759
H	-1.993829	0.239461	-2.880029
N	0.491011	1.004851	-2.096365
H	0.410291	0.988154	-3.10525
H	1.461853	0.836837	-1.828917
C	-0.552441	-1.158662	0.686335
N	-1.055439	-2.026028	1.298695
C	-0.437865	1.280442	0.72441
H	0.027603	1.300576	1.71175
H	-0.087811	2.145208	0.160829
H	-1.52253	1.334919	0.849574
Cl	3.348738	0.0	0.0
