18

C	-0.4464	-0.03171	-1.47753
C	0.0	0.0	0.0
Cl	-0.0497	1.560092	-2.233359
H	1.095855	0.0	0.0
C	0.350823	-1.085251	-2.234756
H	0.09919	-2.075265	-1.842341
H	1.421082	-0.91602	-2.098646
H	0.099399	-1.054302	-3.298602
N	-1.892802	-0.166561	-1.562167
H	-2.160676	-0.177335	-2.540576
H	-2.148118	-1.065074	-1.160986
C	-0.455763	-1.25194	0.60551
N	-0.888528	-2.244855	1.063286
C	-0.525512	1.186431	0.807276
H	-0.050093	2.101189	0.455758
H	-0.264721	1.053775	1.859204
H	-1.608636	1.277431	0.705901
Cl	3.381961	0.0	0.0
