18

C	-0.325144	-0.00709	-1.494742
C	0.0	0.0	0.0
Cl	-2.128665	-0.151791	-1.750221
H	1.099716	0.0	0.0
C	0.112394	1.289414	-2.162823
H	-0.449177	2.15255	-1.802608
H	-0.042694	1.209154	-3.242052
H	1.178374	1.430005	-1.958737
N	0.28173	-1.193009	-2.045734
H	1.271747	-1.183612	-1.793839
H	0.197233	-1.185994	-3.057985
C	-0.471135	-1.224879	0.641692
N	-0.850008	-2.164571	1.235973
C	-0.482199	1.22278	0.776736
H	-0.218824	1.103456	1.829435
H	-1.565038	1.348062	0.696166
H	0.019633	2.120923	0.415101
Cl	3.338544	0.0	0.0
