18

C	-0.449167	-0.020457	-1.476169
C	0.0	0.0	0.0
Cl	-0.01527	1.561354	-2.231634
H	1.095794	0.0	0.0
C	0.321944	-1.092259	-2.236544
H	0.071461	-1.051064	-3.30023
H	0.045197	-2.077494	-1.848004
H	1.396694	-0.949281	-2.100746
N	-1.89898	-0.120972	-1.558977
H	-2.168639	-0.131376	-2.537172
H	-2.175106	-1.010925	-1.152158
C	-0.45997	-1.252635	0.600258
N	-0.894836	-2.246568	1.053753
C	-0.518126	1.183686	0.816937
H	-0.233186	1.053938	1.862931
H	-1.603525	1.268096	0.738997
H	-0.056721	2.101227	0.454442
Cl	3.383128	0.0	0.0
