18

C	-0.354683	0.078332	-1.497727
C	0.0	0.0	0.0
Cl	-0.025667	-1.60868	-2.225839
H	1.09714	0.0	0.0
C	-1.816335	0.35548	-1.79221
H	-1.995116	0.325016	-2.870164
H	-2.452615	-0.394272	-1.317205
H	-2.077471	1.350432	-1.423505
N	0.491114	1.063086	-2.068118
H	0.410838	1.073294	-3.076987
H	1.461267	0.888695	-1.804966
C	-0.552282	-1.178056	0.652959
N	-1.05336	-2.061834	1.242606
C	-0.437954	1.259723	0.759773
H	-1.522327	1.311124	0.8862
H	-0.087541	2.13945	0.22027
H	0.027676	1.252068	1.747121
Cl	3.348762	0.0	0.0
