18

C	-0.514338	0.031765	-1.453181
C	0.0	0.0	0.0
Cl	0.286878	-1.315308	-2.338227
H	1.094496	0.0	0.0
C	-2.017897	-0.200729	-1.559371
H	-2.30646	-0.1895	-2.614573
H	-2.308144	-1.156052	-1.123538
H	-2.554544	0.601171	-1.040543
N	-0.105291	1.292661	-2.056664
H	-0.89883	1.922399	-2.098364
H	0.233453	1.139346	-2.995755
C	-0.475624	-1.200781	0.687283
N	-0.901681	-2.126645	1.272223
C	-0.424073	1.248286	0.783012
H	0.004803	1.195233	1.786948
H	-1.510941	1.345905	0.876986
H	-0.007913	2.121813	0.285445
Cl	3.418159	0.0	0.0
