18

C	-0.253261	0.001087	-1.522359
C	0.0	0.0	0.0
Cl	-2.040095	-0.107591	-1.849716
H	1.099046	0.0	0.0
C	0.277503	1.275256	-2.152353
H	0.189968	1.187291	-3.23571
H	1.331089	1.38226	-1.874732
H	-0.277979	2.151429	-1.817747
N	0.371909	-1.128012	-2.178824
H	0.048334	-1.987846	-1.745451
H	1.371597	-1.054713	-1.985113
C	-0.47072	-1.250668	0.585507
N	-0.871653	-2.248706	1.059177
C	-0.521508	1.201311	0.781736
H	-0.299389	1.072576	1.84303
H	-0.016006	2.108525	0.449502
H	-1.600947	1.317843	0.657922
Cl	3.33021	0.0	0.0
