18

C	-0.498591	0.014912	-1.467975
C	0.0	0.0	0.0
Cl	0.040812	1.568178	-2.205972
H	1.099601	0.0	0.0
C	0.147663	-1.116359	-2.246173
H	-0.218211	-2.07711	-1.869797
H	-0.118718	-1.026799	-3.300076
H	1.231631	-1.075714	-2.117496
N	-1.942855	-0.033512	-1.635564
H	-2.365077	0.758838	-1.162046
H	-2.284311	-0.881902	-1.190574
C	-0.466396	-1.255317	0.590901
N	-0.912105	-2.243634	1.044035
C	-0.479491	1.16244	0.871523
H	-0.043107	1.060279	1.866979
H	-0.135619	2.106983	0.450648
H	-1.568995	1.182276	0.974867
Cl	3.34446	0.0	0.0
