18

C	-0.255795	-0.008626	-1.511524
C	0.0	0.0	0.0
Cl	-2.043422	-0.143688	-1.86775
H	1.099467	0.0	0.0
C	0.22918	1.284367	-2.153735
H	-0.344883	2.153483	-1.828213
H	1.283328	1.413542	-1.888747
H	0.137451	1.203344	-3.240328
N	0.382792	-1.193697	-2.028625
H	1.341819	-1.206631	-1.680245
H	0.409784	-1.157127	-3.041528
C	-0.491914	-1.225543	0.622094
N	-0.917109	-2.157905	1.196327
C	-0.51135	1.225057	0.750856
H	-0.317317	1.101965	1.817964
H	-1.58587	1.361525	0.602471
H	0.020731	2.11816	0.421279
Cl	3.33298	0.0	0.0
