18

C	-0.365372	0.118449	-1.485712
C	0.0	0.0	0.0
Cl	-2.216063	0.593077	-1.599717
H	1.098246	0.0	0.0
C	0.395989	1.243684	-2.155708
H	0.12294	2.211843	-1.739358
H	1.462425	1.059554	-1.99556
H	0.170809	1.259425	-3.225466
N	-0.131043	-1.095303	-2.15226
H	-0.630231	-1.874422	-1.744054
H	-0.334728	-1.028822	-3.139429
C	-0.496552	-1.257503	0.546528
N	-0.936311	-2.26213	0.969048
C	-0.432554	1.165548	0.889233
H	-1.51504	1.223183	0.996535
H	-0.062231	2.105024	0.48009
H	0.022679	1.038125	1.872165
Cl	3.362752	0.0	0.0
