18

C	-0.368969	0.082703	-1.504796
C	0.0	0.0	0.0
Cl	-0.065255	-1.550899	-2.220302
H	1.096734	0.0	0.0
C	-1.824196	0.426295	-1.759464
H	-2.018936	0.381749	-2.83154
H	-2.040499	1.439768	-1.407153
H	-2.482463	-0.274395	-1.242185
N	0.492427	1.001046	-2.21693
H	0.279842	1.94682	-1.918952
H	1.460215	0.806822	-1.954399
C	-0.560842	-1.166908	0.665873
N	-1.079749	-2.052448	1.238424
C	-0.415093	1.258521	0.774686
H	-1.498555	1.340136	0.894606
H	0.04392	1.226685	1.765036
H	-0.03515	2.151809	0.273949
Cl	3.345359	0.0	0.0
