13

C	0.0	0.0	0.0
C	-0.436276	0.324709	-1.49469
Cl	1.780997	0.0	0.0
H	0.41258	-0.003823	-2.102765
H	-0.367961	0.73639	0.713195
C	-0.441404	-1.340471	0.372418
N	-0.708797	-2.446122	0.662517
C	-0.485983	1.789307	-1.611523
N	-0.468325	2.95911	-1.702748
N	-1.617866	-0.277209	-2.031369
H	-2.440884	-0.105856	-1.433435
H	-1.487228	-1.280921	-2.082479
Cl	-3.938754	0.0	0.0
