13

C	0.0	0.0	0.0
C	-0.562733	-0.195365	-1.404698
Cl	1.78336	0.0	0.0
H	-1.655501	-0.222077	-1.23057
H	-0.352635	0.970161	0.348588
C	-0.416758	-1.05821	0.922222
N	-0.618185	-1.922418	1.691325
C	-0.128787	-1.473295	-1.988491
N	0.217013	-2.454516	-2.535704
N	-0.238733	0.960569	-2.226458
H	0.652475	0.835882	-2.690621
H	-0.958748	1.076856	-2.927332
Cl	-3.452628	0.0	0.0
