13

C	0.0	0.0	0.0
C	-0.450776	-0.210247	-1.48644
Cl	1.787422	0.0	0.0
H	0.470102	-0.300665	-2.068615
H	-0.349718	0.95209	0.394746
C	-0.416134	-1.084279	0.888919
N	-0.582069	-1.952642	1.661924
C	-1.080051	1.027709	-2.002201
N	-1.420479	2.007119	-2.556003
N	-1.171949	-1.450028	-1.671148
H	-2.085938	-1.3241	-1.225347
H	-1.316928	-1.591114	-2.665141
Cl	-3.277659	0.0	0.0
