13

C	0.0	0.0	0.0
C	-0.449207	-0.354995	-1.45877
Cl	1.787525	0.0	0.0
H	0.472352	-0.484098	-2.033275
H	-0.349994	0.987424	0.294666
C	-0.420844	-0.985965	0.993901
N	-0.551058	-1.761723	1.866536
C	-1.100203	0.818219	-2.087747
N	-1.448799	1.743395	-2.723024
N	-1.14874	-1.619725	-1.521911
H	-2.067358	-1.464066	-1.096794
H	-1.285093	-1.862636	-2.497002
Cl	-3.24854	0.0	0.0
