13

C	0.0	0.0	0.0
C	-0.457347	0.388555	-1.4571
Cl	1.780899	0.0	0.0
H	0.276228	-0.094482	-2.11326
H	-0.358824	0.715461	0.741123
C	-0.455084	-1.348193	0.324432
N	-0.745188	-2.460368	0.565591
C	-0.256591	1.841255	-1.587695
N	-0.07784	3.001016	-1.620967
N	-1.765883	0.013678	-1.893317
H	-2.52788	0.288187	-1.257698
H	-1.828286	-0.99493	-1.970225
Cl	-4.244817	0.0	0.0
