13

C	0.0	0.0	0.0
C	-0.426454	-0.212089	-1.525372
Cl	1.784155	0.0	0.0
H	0.520171	-0.35486	-2.056314
H	-0.375445	0.93281	0.414495
C	-0.41344	-1.138202	0.815341
N	-0.585297	-2.11666	1.442592
C	-0.942391	1.065048	-2.0376
N	-1.169102	2.114801	-2.511003
N	-1.26752	-1.323508	-1.881997
H	-0.818056	-2.183075	-1.585559
H	-2.148839	-1.213539	-1.373265
Cl	-3.242438	0.0	0.0
