16

C	0.0	0.0	0.0
C	-0.441911	-0.023895	-1.464613
F	1.392338	0.0	0.0
H	0.398506	-0.414173	-2.053443
H	-0.32415	0.925902	0.474125
C	-0.487644	-1.194422	0.782431
H	-1.576937	-1.144681	0.850632
H	-0.048413	-1.160416	1.78439
H	-0.195729	-2.123983	0.290323
N	-0.468846	1.457722	-1.998727
O	-1.077715	1.637287	-3.051905
O	0.176339	2.325462	-1.412211
N	-1.625645	-0.733712	-1.704243
H	-1.90511	-0.639043	-2.672625
H	-2.416755	-0.418075	-1.060599
H	-3.456222	0.0	0.0
