16

C	0.0	0.0	0.0
C	-0.590802	0.076753	-1.389588
F	1.391883	0.0	0.0
H	-0.407483	-0.837828	-1.963166
H	-0.30245	0.911774	0.521184
C	-0.456267	-1.241773	0.739455
H	-0.170486	-2.135849	0.17647
H	0.023197	-1.288554	1.720819
H	-1.540309	-1.229164	0.865835
N	-0.075548	1.19302	-2.164311
O	-0.125346	1.048631	-3.469467
O	-0.351197	2.360435	-1.57215
N	-2.038477	0.270197	-1.161746
H	-2.060709	1.301138	-1.117354
H	-2.536384	0.011175	-2.012624
H	-3.154731	0.0	0.0
