16

C	0.0	0.0	0.0
C	-0.379841	-0.025234	-1.475356
F	1.392731	0.0	0.0
H	0.131362	-0.876708	-1.934032
H	-0.331426	0.937332	0.450807
C	-0.548975	-1.189323	0.741348
H	-0.256014	-2.119311	0.24464
H	-1.639793	-1.105482	0.764509
H	-0.161811	-1.20193	1.763671
N	0.368385	1.157649	-2.134447
O	0.975776	0.923164	-3.180258
O	0.261408	2.268768	-1.62286
N	-1.745928	0.064616	-1.799471
H	-2.440433	0.164607	-0.993011
H	-2.049642	-0.736786	-2.333389
H	-3.563366	0.0	0.0
