16

C	0.0	0.0	0.0
C	-0.51787	-0.03082	-1.421698
F	1.395793	0.0	0.0
H	-1.623103	-0.012384	-1.319296
H	-0.331583	0.963372	0.395706
C	-0.499631	-1.123544	0.869602
H	-0.109119	-2.085414	0.531196
H	-0.176929	-0.952724	1.900359
H	-1.596541	-1.104499	0.811383
N	-0.150454	-1.37503	-2.044587
O	0.876919	-1.429602	-2.732132
O	-0.89227	-2.332109	-1.827103
N	0.01587	1.060259	-2.1712
H	1.020029	0.948278	-2.24246
H	-0.37224	1.070754	-3.105452
H	-3.230513	0.0	0.0
