16

C	0.0	0.0	0.0
C	-0.52068	-0.080207	-1.425405
F	1.39409	0.0	0.0
H	-1.622723	-0.054374	-1.325555
H	-0.339324	0.967635	0.383718
C	-0.497894	-1.116231	0.87997
H	-0.114725	-2.077969	0.530831
H	-1.595057	-1.092041	0.829138
H	-0.162917	-0.956243	1.908506
N	-0.142615	-1.415141	-2.000341
O	-0.971599	-2.322965	-1.953736
O	0.997196	-1.529282	-2.455057
N	-0.011529	0.932715	-2.31574
H	0.956144	1.124556	-2.085479
H	-0.560209	1.772515	-2.183488
H	-3.202945	0.0	0.0
