16

C	0.0	0.0	0.0
C	-0.541912	-0.038494	-1.410765
F	1.395633	0.0	0.0
H	-1.648618	-0.04878	-1.271479
H	-0.32836	0.969462	0.383928
C	-0.496302	-1.10139	0.899135
H	-0.12103	-2.073923	0.578394
H	-0.158504	-0.907531	1.921124
H	-1.593383	-1.074136	0.854457
N	-0.155453	-1.35959	-2.064595
O	-0.787323	-2.365371	-1.746955
O	0.769542	-1.351623	-2.885357
N	-0.076032	1.079482	-2.164351
H	0.921029	0.988278	-2.312967
H	-0.529986	1.103866	-3.067646
H	-3.212827	0.0	0.0
