16

C	0.0	0.0	0.0
C	-0.389149	0.100156	-1.468908
F	1.393552	0.0	0.0
H	0.147657	-0.688492	-2.010425
H	-0.32936	0.892681	0.53242
C	-0.531961	-1.255209	0.64122
H	-0.240427	-2.13479	0.058788
H	-0.123593	-1.355711	1.650112
H	-1.622379	-1.184948	0.689022
N	0.306999	1.368396	-2.030245
O	0.311062	2.391355	-1.34851
O	0.727322	1.293427	-3.188009
N	-1.754397	0.191081	-1.766252
H	-2.036138	-0.440908	-2.498422
H	-2.471626	0.173039	-0.96734
H	-3.56878	0.0	0.0
