16

C	0.0	0.0	0.0
C	-0.590693	0.006585	-1.399427
F	1.388509	0.0	0.0
H	-1.656087	-0.270026	-1.229952
H	-0.326815	0.958168	0.412174
C	-0.472779	-1.122785	0.892762
H	-0.101173	-2.084389	0.537645
H	-1.568482	-1.105403	0.889964
H	-0.103591	-0.947143	1.907212
N	0.065551	-1.052319	-2.235443
O	0.695553	-0.715109	-3.241416
O	-0.049548	-2.217452	-1.863847
N	-0.482019	1.307067	-2.021633
H	-1.423497	1.634403	-2.189236
H	0.004168	1.219273	-2.901575
H	-3.210785	0.0	0.0
