16

C	0.0	0.0	0.0
C	-0.373574	-0.069317	-1.476056
F	1.392886	0.0	0.0
H	0.143089	-0.933252	-1.910375
H	-0.331282	0.95108	0.419862
C	-0.536507	-1.170236	0.779734
H	-0.239464	-2.112029	0.308912
H	-1.628025	-1.094739	0.806479
H	-0.140456	-1.149645	1.798782
N	0.388948	1.098635	-2.153589
O	1.0346	0.836505	-3.170898
O	0.254101	2.223894	-1.682899
N	-1.734938	0.027311	-1.798539
H	-2.445575	0.094535	-0.996958
H	-2.025921	-0.71009	-2.423698
H	-3.545762	0.0	0.0
