13
Coordinates from ORCA-job run
  C   -0.65936365631149      0.24725080942684     -0.16454983593797
  C   0.54953525230373     -0.54413836172064     -0.66057619881745
  Cl  -2.00122444210764     -0.00415647620434     -1.40377923819859
  H   0.76819975357001     -0.24029389457421     -1.68540913318377
  H   0.24664531978218     -1.60353229806494     -0.68532813096326
  N   -1.02020558711850     -0.18848818442985      1.14014507592361
  H   -1.75336252536625      0.38193645718943      1.54284318480959
  H   -1.32583233848921     -1.15463960038883      1.11598401942879
  C   -0.38051217859550      1.68531769488473     -0.14563602339232
  N   -0.19452618921040      2.84426776203522     -0.13737584906663
  N   1.67992855518716     -0.22622850906683      0.18677289802033
  H   1.55267450363408     -0.61707207256393      1.10994303976436
  H   2.53904353272182     -0.58022332652265     -0.21103380838668
