13
Coordinates from ORCA-job run
  C   -0.62557710428541      0.21980081815762     -0.15204593103952
  C   0.85295930282043      0.00047305482755     -0.47972102024092
  Cl  -1.66653674227188     -0.64261897607428     -1.31672734254317
  H   1.04341153220731      0.38322192427206     -1.48509640715836
  H   1.41401887823556      0.63523627295476      0.22913033814223
  N   -0.89825826848788     -0.30942781926152      1.17101498280846
  H   -1.89495652874378     -0.30083769362440      1.35424824903142
  H   -0.44489229134482      0.27845692888017      1.86395823926509
  C   -0.93702250999244      1.65714859440347     -0.27529383357470
  N   -1.14657158784418      2.81339425765603     -0.30560868470548
  N   1.16761835216155     -1.40999954505208     -0.43032229045129
  H   2.13751151071300     -1.55950018177223     -0.67301746012703
  H   0.99829545683253     -1.76634763536717      0.50048116059328
