13
Coordinates from ORCA-job run
  C   -0.64191052502837      0.31062991379411     -0.10152933114162
  C   0.56485027650978     -0.62946963161515      0.00427925310261
  Cl  -1.01402541859927      0.50434298911096     -1.85668242632276
  H   0.75328673202376     -0.76967472180997      1.07370720359066
  H   0.24336787443738     -1.59751017966758     -0.41091828859693
  N   -1.84111061822552     -0.16035392980708      0.54630808803715
  H   -2.04301345913500     -1.11018295552178      0.25536576179420
  H   -1.73028434719879     -0.12893531047626      1.55342055276706
  C   -0.29675076094706      1.62737306397119      0.44560765021687
  N   -0.03974401290327      2.65269464115444      0.95593734013012
  N   1.74179791203152     -0.05040101072815     -0.60728702750119
  H   2.58314938198386     -0.47974606423991     -0.24928124707269
  H   1.72138696505097     -0.16976680416482     -1.61092752900348
