13
Coordinates from ORCA-job run
  C   -0.54505290891200      0.45152519885653     -0.02348519367500
  C   0.87285551056188     -0.03953458509826     -0.33908636105623
  Cl  -1.63691514104125     -0.19548771466028     -1.39049727867439
  H   1.53352185705074      0.44600829917392      0.38354898947744
  H   1.14267338028550      0.29812868920990     -1.34525158363084
  N   -0.92336423590674      0.01597710084936      1.25714688980758
  H   -1.88853390991740      0.21889704497431      1.47848529850622
  H   -0.71222213783370     -0.97213865222483      1.34416709805748
  C   -0.62409546947682      1.90960833987843     -0.13236818052235
  N   -0.64362535237499      3.08098317473562     -0.21424982543609
  N   0.92412952226050     -1.47892036371812     -0.13765737951066
  H   0.63785954532042     -1.96422321362589     -0.97762092439292
  H   1.86276933998386     -1.77082331835071      0.09586845104976
