13
Coordinates from ORCA-job run
  C   -0.60097503068553      0.23099023230091     -0.21717779467193
  C   0.90969650400885      0.03438406677190     -0.36184750550181
  Cl  -1.47206305174026     -0.54574997239447     -1.56730256444372
  H   1.36673961368379      0.61605808883585      0.45838760055231
  H   1.22749336316969      0.48827739186551     -1.30338905151208
  N   -1.04043251973902     -0.39156427177478      1.01766799458329
  H   -0.68950033463096      0.14695059626169      1.80401449664739
  H   -2.05276581462565     -0.39743080646325      1.06722710151050
  C   -0.90782577349600      1.67301109732253     -0.27808978880148
  N   -1.12426134601341      2.82807388827505     -0.25369076862042
  N   1.22636571349106     -1.37633047257696     -0.37233064769796
  H   0.93634590620264     -1.79891993286045      0.49930351620252
  H   2.22118277037480     -1.50974990556352     -0.49277258824662
