13
Coordinates from ORCA-job run
  C   -0.57620077213932      0.40257412957239     -0.08690801387102
  C   0.89544827882736      0.01568400305559     -0.27608487089668
  Cl  -1.51078616230425     -0.40791673594191     -1.48508759844344
  H   1.46146524018406      0.59492525423490      0.45784235807429
  H   1.20897532721813      0.31797362895945     -1.28071133454114
  N   -1.01145677859885      0.00641918592730      1.18771763399353
  H   -2.00311012161980      0.13955535374543      1.33039670316456
  H   -0.72919221459588     -0.95441444355735      1.34793537427356
  C   -0.76348410123775      1.84042300855929     -0.28977379841932
  N   -0.87142393548803      2.99976665239709     -0.44267020175331
  N   1.04741438438870     -1.40089953220570      0.01608651628141
  H   0.86481631826170     -1.95437572513740     -0.81055296166528
  H   1.98653453710393     -1.59871477960908      0.33181019380283
