13
Coordinates from ORCA-job run
  C   -0.78924351298230      0.25631656865966     -0.20719363682247
  C   0.44169898782248     -0.57891908092436     -0.60037418329273
  Cl  -2.06039587495831     -0.02975137358112     -1.43465696902403
  H   0.13035863084342     -1.62689432551970     -0.58675699685797
  H   0.74057852852713     -0.32518825762876     -1.62500772657431
  N   -1.33108987368707     -0.04068208223118      1.09777107527069
  H   -0.54229106548477     -0.05700395231737      1.73982039121859
  H   -1.74351419472063     -0.96761806502166      1.07507882642251
  C   -0.40893657162132      1.67652862741192     -0.25052092946938
  N   -0.01585784310967      2.78249556035905     -0.28615005715399
  N   1.46676625625708     -0.36198954302927      0.41105252370834
  H   2.03895133440551      0.43930123169881      0.17610453477617
  H   2.07297519870844     -1.16659530787602      0.49083314779858
