13
Coordinates from ORCA-job run
  C   -0.57386342594947      0.27990184707319      0.04729775310278
  C   0.60679038346352     -0.68829543314726     -0.00750418837375
  Cl  -1.02699735742296      0.66684614191386     -1.70668926639765
  H   0.86020866211492     -0.90912985808794      1.03231825763244
  H   0.23762639720920     -1.61537115461022     -0.47277335885649
  N   -1.64563640027867     -0.28812475431045      0.78044387161945
  H   -2.43244668655412      0.34426106602141      0.85417700115493
  H   -1.95145959292746     -1.15621501286969      0.35790586854427
  C   -0.18011035507019      1.55516867112779      0.64976905969269
  N   0.09928751746876      2.56577365577671      1.17754492154289
  N   1.74590348968568     -0.08069433508255     -0.66037713568098
  H   2.60156203807694     -0.54155515714959     -0.38507005267548
  H   1.65913533018384     -0.13356567665526     -1.66604273130510
