13
Coordinates from ORCA-job run
  C   -0.68013276331209      0.10940352747705     -0.10922704686234
  C   0.61738543420259     -0.69938845354375     -0.00579617233358
  Cl  -1.41347886273046     -0.13240223613837     -1.71795310363454
  H   0.91787800486053     -0.68017235832603      1.05334102198958
  H   0.34880389914450     -1.72734921669632     -0.25495962422795
  N   -1.61712430638659     -0.37228427566232      0.88042385210353
  H   -1.25480102125533     -0.18557672034741      1.80969756425939
  H   -2.50686565679413      0.10349289803042      0.78383761002217
  C   -0.36322376977758      1.54519276977288      0.01869569095079
  N   -0.07713882219425      2.66839559028648      0.21439200996110
  N   1.61897878353711     -0.19360812718759     -0.91868255591842
  H   2.20222918237278     -0.93583802879418     -1.27460629093414
  H   2.20748989833290      0.50013463112914     -0.47916295537558
