13
Coordinates from ORCA-job run
  C   -0.62783922852189      0.31687628009928     -0.07932702977617
  C   0.86268402732702      0.08711539373848     -0.35582501837048
  Cl  -1.55328610277842     -0.76833108354575     -1.28386607516779
  H   1.05800178628937      0.29747916551884     -1.41247119486362
  H   1.40336544652612      0.81566284083925      0.25355121003377
  N   -0.91018361177678      0.03563671635359      1.26689970916799
  H   -1.89683468715831      0.06772360432774      1.48329840997545
  H   -0.49552529280060     -0.85704107305581      1.51102497415468
  C   -1.01421246928584      1.68523121598852     -0.42877506926633
  N   -1.28282827239428      2.79478455918419     -0.70415861186237
  N   1.21735036000102     -1.25414072881573      0.08066498416765
  H   1.04200949949550     -1.92393857570831     -0.65668551657067
  H   2.19629854507712     -1.29905831492429      0.32666922837788
