13
Coordinates from ORCA-job run
  C   -0.57748115062365      0.41035075675908     -0.01103369266077
  C   0.82998394204451     -0.02716665877921     -0.43453104803417
  Cl  -1.76179403016878     -0.47236061862249     -1.15159024899869
  H   0.95856378556644      0.19489325555402     -1.49901145503570
  H   1.52795196288968      0.58726337138248      0.13971627451861
  N   -0.77659577262282      0.11735756873412      1.34760697452721
  H   -1.72347073396734      0.28522303868396      1.65830992533234
  H   -0.48047421117766     -0.83617304241191      1.52516509831580
  C   -0.78027737754388      1.83473742280974     -0.28282086106172
  N   -0.89958791239215      2.98283642389195     -0.49921178612847
  N   1.01440721156125     -1.42307834469474     -0.07034136203061
  H   1.99276126478132     -1.62324925987123      0.08266893368147
  H   0.67501302165310     -2.02863391343576     -0.80592675242530
