13
Coordinates from ORCA-job run
  C   -0.77655719247279      0.25231617376336     -0.25402547971482
  C   0.47316081198362     -0.58977364921803     -0.56466221975565
  Cl  -1.97972914668747     -0.05676497124590     -1.54273101310787
  H   0.16060004725609     -1.63736026243123     -0.54909036753618
  H   0.82766855975196     -0.35435184203004     -1.57587043037628
  N   -1.38791320429363     -0.02049467736315      1.02521522882035
  H   -0.63449344396632     -0.02917129346536      1.70834167169967
  H   -1.80285935442019     -0.94588029803323      0.99642928763176
  C   -0.39336431132966      1.67158508752898     -0.30357950867586
  N   0.00292407638572      2.77633337360733     -0.33968530533628
  N   1.44174273070523     -0.35545530767259      0.49740065256903
  H   2.02195421495227      0.44594187752417      0.28327763298518
  H   2.04686621213518     -1.15592421096431      0.61797985079695
