13
Coordinates from ORCA-job run
  C   -0.61225554992532      0.20284348775260     -0.10311396758503
  C   0.62917914590216     -0.68575299288690     -0.05695938971498
  Cl  -1.02671213192090      0.52374367436139     -1.82132814862761
  H   0.35054616968084     -1.62156911125712     -0.55774624463241
  H   0.82137270445169     -0.90949595412015      0.99814250829500
  N   -1.72819827363129     -0.49993796026121      0.48635930957107
  H   -2.57287565410806      0.05550049840392      0.40944824559357
  H   -1.54095886019677     -0.65595793920702      1.47173927878810
  C   -0.33232715159758      1.50650010301762      0.52503565083788
  N   -0.18262439031009      2.50880911248539      1.11981980152165
  N   1.77640419313622      0.01196131129218     -0.60148630609797
  H   1.78069822721939     -0.04471489213421     -1.61106848817475
  H   2.63675157129971     -0.39092933744648     -0.25784224977452
