13
Coordinates from ORCA-job run
  C   -0.54134879642177      0.45003608291795     -0.07899256168892
  C   0.91408006948985     -0.01610718343165     -0.20625737794967
  Cl  -1.40792046755708     -0.12226004583824     -1.63008050564726
  H   1.45388202866475      0.43129960246279      0.63215153498469
  H   1.32583745111247      0.37847724256428     -1.14099971907792
  N   -1.10162078612750     -0.06029483120091      1.10261114887515
  H   -2.09117802274931      0.12554444241628      1.18934271879725
  H   -0.89223489672349     -1.05053875004947      1.16593776461732
  C   -0.62142954415022      1.91150543197310     -0.11766118173899
  N   -0.64266145801971      3.08548800168700     -0.13636357127370
  N   0.95343140930865     -1.46428317002347     -0.07908662608475
  H   1.84962557776798     -1.76494264038382      0.27721842083955
  H   0.80253743540540     -1.90292418309384     -0.97782004465275
