13
Coordinates from ORCA-job run
  C   -0.62804198815999      0.16237387983891     -0.07900799812121
  C   0.64988371426690     -0.66772370001274      0.02198012208319
  Cl  -1.21977342790673      0.10340646859835     -1.77460698029492
  H   0.36598225637997     -1.69466374224507     -0.24081702309015
  H   0.95356620621311     -0.65864520968637      1.07458785733285
  N   -1.64996076394786     -0.42462359645295      0.75566864261091
  H   -1.35950860049174     -0.37028937592123      1.72675184286700
  H   -2.52031298929130      0.08583769303267      0.65686970327763
  C   -0.34614401116450      1.57561606633506      0.23080006568119
  N   -0.18284099619125      2.68408114890485      0.58495165568621
  N   1.70723364850668     -0.07594950136445     -0.77230537393881
  H   1.61709072817020     -0.34526290512740     -1.74269297917165
  H   2.61382622361652     -0.37515722589963     -0.44217953492223
