13
Coordinates from ORCA-job run
  C   -0.76546971555427      0.13004139053812     -0.28415591461226
  C   0.53283242692291     -0.61764348335832     -0.60601465914325
  Cl  -1.93653995898488     -0.17324735063999     -1.61061457066793
  H   0.26817405049902     -1.67625011840199     -0.64376956245790
  H   0.88094735438679     -0.30765783527336     -1.59785072925063
  N   -1.29340953025954     -0.37373485865926      0.94781775782716
  H   -2.05535693458812      0.19934062825125      1.28855542654314
  H   -0.53097258729023     -0.37901064250132      1.61906879037773
  C   -0.49223295614317      1.58092655425707     -0.27391841863039
  N   -0.22209763353198      2.72289142562429     -0.20319838855671
  N   1.47694852814098     -0.38678183036395      0.47927575190477
  H   2.02445491263730      0.44757632938755      0.31053707572856
  H   2.11272204376519     -1.16645020886008      0.57426744093771
