13
Coordinates from ORCA-job run
  C   -0.57146754300742      0.41350689103285     -0.05582215140368
  C   0.87861597726303     -0.00351131720169     -0.32803492609220
  Cl  -1.60209659961120     -0.38511605879156     -1.39223719354078
  H   1.49816072980856      0.56828698525037      0.36740586695511
  H   1.13888421675789      0.28639272084392     -1.35138929537074
  N   -0.93899675012139      0.03254224652085      1.24447804124972
  H   -1.91744381789493      0.18703604221456      1.44478033449057
  H   -0.66708991180520     -0.93293153528755      1.39404417199907
  C   -0.74376878683829      1.85344990341030     -0.25626831157993
  N   -0.84126846466374      3.01380948241780     -0.40903188817441
  N   1.01926314198248     -1.42132396975738     -0.03597612075194
  H   0.77717855740581     -1.97536230220495     -0.84672773774814
  H   1.97102925072441     -1.63677908844750      0.22577920996733
