13
Coordinates from ORCA-job run
  C   -0.56763294362683      0.40997551403785     -0.10413212768895
  C   0.91011119838817      0.01869954064179     -0.22409294299803
  Cl  -1.42637177864501     -0.34153570682853     -1.58115969907101
  H   1.28260760777493      0.35608562539549     -1.19686260159570
  H   1.43688169304722      0.56454046985109      0.56264366551215
  N   -1.07602956964710     -0.02885728644160      1.12898713810865
  H   -2.07323530382236      0.10688066379787      1.22110724173900
  H   -0.80899227596797     -0.99721591634687      1.26882735301415
  C   -0.73539066728875      1.85575767655717     -0.26372100404788
  N   -0.82888059066297      3.02072466264111     -0.37907596806785
  N   1.03603667452305     -1.40937752969216      0.02114066972950
  H   1.95388167705205     -1.62774320519028      0.38266970679907
  H   0.89701427887556     -1.92893450842294     -0.83533143143310
