13
Coordinates from ORCA-job run
  C   -0.67864753987852      0.25843860587017     -0.12657101013701
  C   0.50461363991311     -0.61349343961658     -0.57271964890215
  Cl  -1.93762916404691      0.09042772178022     -1.48194357001206
  H   0.14461914767042     -1.64681181528258     -0.59064106986930
  H   0.74085687330686     -0.33497155071346     -1.60698971257990
  N   -1.16748855865397     -0.09956373460232      1.14296733305315
  H   -1.32074767964187     -1.09550838669275      1.22333810441049
  H   -1.99907572294163      0.41390177217254      1.40163845420661
  C   -0.29163279170674      1.67319059194262     -0.12559308306872
  N   0.03706928364712      2.80026490968466     -0.09655136153838
  N   1.60326788046229     -0.50302727787853      0.36746333035356
  H   2.13263900898635      0.34359373019416      0.20089198471928
  H   2.23115562288347     -1.28844112685817      0.26371024936443
