13
Coordinates from ORCA-job run
  C   -0.64119302712640      0.20746396123268     -0.16774103743549
  C   0.52015543825352     -0.66435737059447     -0.68616044914004
  Cl  -2.01076855867429      0.06005265502848     -1.38710334869706
  H   0.16165800764090     -1.69972657991170     -0.68580453785298
  H   0.72297994565833     -0.39293115693579     -1.72334610916846
  N   -1.00793633260413     -0.19626406982132      1.14452977455006
  H   -1.72135577314014      0.40040089172817      1.54436242376152
  H   -1.33801808782144     -1.15453035365915      1.13996731937487
  C   -0.24435027787725      1.61766406632296     -0.15465592041666
  N   0.12592234971198      2.73215437507640     -0.14955059146703
  N   1.73329207255076     -0.56462130965354      0.08845068602195
  H   2.16726936411667      0.34136598175903     -0.03514627421929
  H   1.53134487931151     -0.68767109057176      1.07219806468862
