13
Coordinates from ORCA-job run
  C   -0.64764929489730      0.20764425723390     -0.14071871485881
  C   0.50196499972224     -0.64044381895974     -0.72121356116453
  Cl  -2.05506646743571      0.08489431735995     -1.31894355037274
  H   0.15032757411758     -1.67797673445188     -0.73895820829297
  H   0.66917777237959     -0.33796076364885     -1.75613291814290
  N   -0.96894303126914     -0.23613742321990      1.17047361457445
  H   -1.67369843396565      0.34264889734354      1.60999484398779
  H   -1.29177739677122     -1.19666939373249      1.14879893605768
  C   -0.25934381941645      1.61968975112137     -0.10006298646329
  N   0.10380173937896      2.73624245151011     -0.07450476876706
  N   1.73884984374709     -0.55380115157840      0.01634871553105
  H   2.16319142564313      0.35830801910036     -0.09535049228435
  H   1.57016508876686     -0.70643840807797      1.00226909019567
