13
Coordinates from ORCA-job run
  C   -0.77653196423374      0.27111252796310     -0.23465928430212
  C   0.45273113765280     -0.58488712540755     -0.58627859696653
  Cl  -2.00661475189722      0.01275889402310     -1.50931947310782
  H   0.79294330423350     -0.33357314104111     -1.59858005484247
  H   0.12227799070035     -1.62711835778681     -0.58784867909174
  N   -1.37143806440697     -0.02096046521885      1.04803657638516
  H   -0.60809609806853     -0.04979531785843      1.71956705103152
  H   -1.79548945986271     -0.94197117059987      1.00736915836031
  C   -0.36953640958488      1.68430698651808     -0.25731482308155
  N   0.04412311050539      2.78324037712308     -0.27301431690942
  N   1.44422507405827     -0.38974914671701      0.46234033642487
  H   2.03271326222070     -1.20535104049233      0.56100577124710
  H   2.03869286868304      0.40198697949458      0.25169633485269
