13
Coordinates from ORCA-job run
  C   -0.76958851845301      0.13955490866836     -0.26734370239699
  C   0.51974306998008     -0.60422053275145     -0.63116738793326
  Cl  -1.96565401526288     -0.12588488863119     -1.57924596112293
  H   0.25022181532777     -1.66067591685671     -0.68918534317272
  H   0.85060988871239     -0.27181764362533     -1.62167386438221
  N   -1.27740918584897     -0.39388146883920      0.96101392075579
  H   -0.50357815068826     -0.41565434647897      1.61881623893154
  H   -2.03207158721270      0.17231803051959      1.32856748506197
  C   -0.49107213045550      1.58883302984446     -0.22396958424861
  N   -0.21626854886770      2.72780059000726     -0.12735601418715
  N   1.48445656900266     -0.40234245003716      0.44175531484002
  H   2.03234616782789      0.43358334740071      0.28234132661070
  H   2.11826462593823     -1.18661265922038      0.50744757124384
