13
Coordinates from ORCA-job run
  C   -0.59032695992582      0.39158160948702     -0.12302860537075
  C   0.85845555171249     -0.05043075178304     -0.46005858318213
  Cl  -1.68700110757276     -0.39242168719907     -1.31996236832999
  H   1.07721029388767      0.24833552484134     -1.48819828718154
  H   1.52047892433882      0.52152456012883      0.19922763697001
  N   -1.07078798043015      0.04757502709459      1.19223112000250
  H   -0.96887666047839     -0.94822415488061      1.34714412980008
  H   -0.55676018209032      0.56022140168150      1.90017662047757
  C   -0.68806691150894      1.84430923804386     -0.29641550947454
  N   -0.68267469482504      3.01222542842006     -0.42104069944378
  N   1.15137053356544     -1.45315611932747     -0.30467377284796
  H   0.55053218500826     -2.02602806426834     -0.88152445218431
  H   1.08744700831876     -1.75551201223867      0.65712277076484
