13
Coordinates from ORCA-job run
  C   -0.64427674517261      0.21203689658838     -0.05017153603161
  C   0.59370568772150     -0.70983126960137      0.05819335347148
  Cl  -1.32837805040708      0.01325270703576     -1.70544840574666
  H   0.23351752196913     -1.73092022556038     -0.10613796059451
  H   0.93408124263863     -0.64262220997019      1.09774706863037
  N   -1.69783601134279     -0.06336508998896      0.89502425654515
  H   -1.39139272045082      0.16395981192578      1.83463593844459
  H   -1.94667604770482     -1.04564688387565      0.85259604149886
  C   -0.21338180760608      1.60638377569134      0.10042405829896
  N   0.21279353693866      2.68870077073271      0.26297403890816
  N   1.70966205757163     -0.45129028282082     -0.81493599231126
  H   1.43028039907747     -0.50337267987120     -1.78539755779345
  H   2.10790093676718      0.46271467971461     -0.64050330332008
