13
Coordinates from ORCA-job run
  C   -0.60097650622901      0.14925569612357     -0.07719187402256
  C   0.63081717318102     -0.77305122215486     -0.17207634197146
  Cl  -1.10272441772924      0.62600749484001     -1.73325081243492
  H   0.84186165916924     -1.12653120378430      0.84396396639710
  H   0.31437706011678     -1.63425291338337     -0.76492170213227
  N   -1.69377164377847     -0.57038059063106      0.52376406920438
  H   -2.51974223159502      0.01319360639152      0.58981743130553
  H   -1.43240894147779     -0.87133768902187      1.45661793711818
  C   -0.22727868602843      1.38993216453066      0.62789023446436
  N   0.09328911743941      2.32704343922425      1.26149895329800
  N   1.83521762494458     -0.20861885943701     -0.72352124644070
  H   2.17560329924550      0.56238416495527     -0.16354510201851
  H   1.68473649274143      0.11635591234719     -1.66904551276711
