13
Coordinates from ORCA-job run
  C   -0.71209719731678      0.22416433462692     -0.13513540326708
  C   0.55365764701131     -0.63652204903364      0.02858907341486
  Cl  -1.37653368387313     -0.05150661586189     -1.77436017233843
  H   0.25897546904361     -1.66771680868266     -0.18538324213339
  H   0.82256184008864     -0.58008820462870      1.09519295915633
  N   -1.76406310174297     -0.05517687746133      0.81641473635530
  H   -2.02173614094309     -1.03427958319902      0.76095517780326
  H   -1.44734449182923      0.15491495142103      1.75658602203611
  C   -0.33037580925395      1.63732808515663     -0.01439158859998
  N   0.04299026066950      2.73933363473358      0.14420407263543
  N   1.60214735355760     -0.22481016558597     -0.87843736714396
  H   2.18973065759927     -1.00103522915388     -1.14433971853673
  H   2.18108719698924      0.49539452766892     -0.46889454938172
