13
Coordinates from ORCA-job run
  C   -0.70185449880907      0.10637355576052     -0.28341104588451
  C   0.57679302625757     -0.63432523134355     -0.71900052861953
  Cl  -1.97203871259584     -0.19627949253720     -1.50488377936527
  H   0.30338908512291     -1.68882326419717     -0.79855969484782
  H   0.85352675001334     -0.27775113435609     -1.71422995192099
  N   -1.16719792241280     -0.41120898758950      0.98391738911767
  H   -2.05248496925583      0.01565122784543      1.23338320272895
  H   -0.49376870720218     -0.17178677729591      1.70348099673591
  C   -0.44133497985407      1.55858176276781     -0.25938034856692
  N   -0.16494956986295      2.69788728846847     -0.17008412170434
  N   1.70649549859911     -0.50000260487352      0.16875600189988
  H   1.56298164402850     -0.95670696052339      1.05728169729294
  H   1.99144335597132      0.46039061787410      0.30373018313401
