13
Coordinates from ORCA-job run
  C   -0.73030483181758      0.22246651291397     -0.26596676634057
  C   0.48757830394419     -0.63612687464103     -0.68212271115688
  Cl  -1.99198404000484     -0.01825491488905     -1.52913045363496
  H   0.14332731296053     -1.67493292227576     -0.71931885815733
  H   0.78703702542387     -0.35550099956630     -1.69468372888821
  N   -1.31279227581542     -0.09124503472929      1.01313094296108
  H   -1.46952746460416     -1.08887605177997      1.09740693315427
  H   -0.73246623743081      0.23990287222873      1.77307673540064
  C   -0.33320112806510      1.63515649761318     -0.26435968506787
  N   0.07328126219845      2.73689423619616     -0.25035683075734
  N   1.63320108337408     -0.54071918123527      0.19072997793161
  H   2.02905547155698      0.39030202345880      0.19505467726764
  H   1.41679551827980     -0.81906616329417      1.13753976728794
