13
Coordinates from ORCA-job run
  C   -0.59666971313612      0.16057941415872     -0.08777732497411
  C   0.62816456059145     -0.76983984249182     -0.19445479262080
  Cl  -1.03912522630229      0.73420996773829     -1.72988035826044
  H   0.32266014360104     -1.59294042299997     -0.84438291828896
  H   0.80213428540654     -1.18175860440285      0.80649275917457
  N   -1.71572755674674     -0.57856870131738      0.43659384791512
  H   -1.48817222175312     -0.93298560221429      1.35950873191759
  H   -2.53767832972524      0.01007272883212      0.50806103351880
  C   -0.23340153640197      1.35547658422540      0.69709963473190
  N   0.07877799274929      2.25197012382279      1.39081647259381
  N   1.85578714267844     -0.19030756556582     -0.67461603564605
  H   1.73940182112635      0.18795290708864     -1.60506117868068
  H   2.18484863791237      0.54513901312616     -0.06239987138075
