13
Coordinates from ORCA-job run
  C   -0.62271082041600      0.26606066652742     -0.06926824381865
  C   0.56248002374352     -0.72840658059451     -0.10805156197556
  Cl  -1.01501014543194      0.71363610622758     -1.76954980920385
  H   0.21867128543236     -1.59590622997255     -0.68130350813275
  H   0.71952996519055     -1.05591857998096      0.92595357888855
  N   -1.82784847683373     -0.24092847293460      0.53935878215418
  H   -1.68132437534312     -0.38698575513729      1.53216874597388
  H   -2.08402380335706     -1.12160967728136      0.10644387960761
  C   -0.19978637253583      1.48090609164871      0.63652733821880
  N   0.21254996477309      2.40055404550864      1.23955972894888
  N   1.81627501985589     -0.26766731534728     -0.64675172395058
  H   2.19206282342268      0.49689032654792     -0.10040695230304
  H   1.70813491149959      0.04037537478827     -1.60368025440746
