12
Coordinates from ORCA-job run
  C   -0.45134366123680      0.31268222111818     -0.07993547531606
  C   1.06143878172398      0.19925122080747      0.16912321082245
  Cl  -1.22033048271866      0.85378991622449      1.50195423644755
  H   1.43557354125326      1.12764376982070      0.60393542257038
  H   1.55024709697187      0.03400900204812     -0.79517225825091
  C   -0.69476246922164      1.39316225361324     -1.04094402778560
  N   -0.86384395718524      2.25428053773518     -1.82144599905498
  N   -0.96491611747860     -0.90361252068958     -0.58741450900268
  H   -0.81775761368390     -1.66836228891288      0.06158836910114
  H   -1.94826124270230     -0.83511605510567     -0.81648567740864
  C   1.35365506012352     -0.92259776914608      1.05599519003193
  N   1.55930106415449     -1.84713028751317      1.74880151784543
