12
Coordinates from ORCA-job run
  C   -0.48031671494660      0.27348094992967      0.07900933065811
  C   1.05216981431702      0.18826747391483      0.11590793647883
  Cl  -1.08565168497858      0.72965645974993      1.69784913432573
  H   1.46246739567808      1.15229792318313      0.42550335785599
  H   1.41656796081998     -0.01863096405602     -0.89648820385580
  C   -0.85884388248641      1.35634526892950     -0.85116324944472
  N   -1.15056941231530      2.16515762338735     -1.65304927742243
  N   -1.02995774809591     -1.01240834928839     -0.25702214280475
  H   -0.72462961053770     -1.29617897092325     -1.18211175201750
  H   -2.04267600646679     -0.98793701609275     -0.23768650121533
  C   1.51430122139351     -0.86062721855138      1.02016353444156
  N   1.92713866761872     -1.68942318018263      1.74008783300031
