12
Coordinates from ORCA-job run
  C   -0.57521367452871      0.25182217872260      0.22558632466435
  C   0.77143509815454     -0.11458131801171      0.86633779769887
  Cl  -1.66963173724715      0.78031057968493      1.54017307958383
  H   1.18627139922863      0.75310998760815      1.38401576511855
  H   0.58182565411220     -0.90655311899965      1.59481735424118
  C   -0.40699614050215      1.39910885991848     -0.68674025487199
  N   -0.27056797505643      2.27114193758708     -1.46344708581345
  N   -1.14574106050315     -0.91657161344914     -0.39157112565166
  H   -0.54133553561369     -1.24459627476631     -1.13888695178637
  H   -2.05605837620320     -0.70179401496020     -0.78234327641129
  C   1.70726714775219     -0.58927483701778     -0.14980943732424
  N   2.41874520040695     -0.98112236631645     -0.99713218944778
