12
Coordinates from ORCA-job run
  C   -0.49292885855021      0.15243724037468      0.13780892503889
  C   0.80142158466072     -0.65987057132202      0.27017283672742
  Cl  -0.91450504199894      0.83769881166717      1.73182665668737
  H   1.01259023641143     -1.14225631553022     -0.69034653922558
  H   0.61765698765001     -1.43987149265318      1.01250250252753
  C   -0.29864182568657      1.27929202229516     -0.79346743301247
  N   -0.17707345020886      2.12494328294925     -1.60122270431119
  N   -1.54986549034697     -0.75219968173546     -0.25186461009372
  H   -2.44151523030583     -0.26921762036784     -0.24823866196336
  H   -1.37769784610586     -1.09352090169208     -1.19246676094583
  C   1.94659204723786      0.15623741590830      0.65851127701707
  N   2.87396688724322      0.80532781010626      0.96678451155389
