12
Coordinates from ORCA-job run
  C   -0.54276835756623      0.25602562189385      0.04116565788313
  C   0.70805380004470     -0.60929705694516      0.31231301415043
  Cl  -1.02369930107173      1.00444128439058      1.59728965572729
  H   0.43824798851414     -1.36799398737728      1.05279249190024
  H   0.97702897016644     -1.11909982684323     -0.61867424560285
  C   -0.20553662493224      1.31985524821658     -0.91243601998024
  N   0.08765205638365      2.12828834757006     -1.71234884357749
  N   -1.67182671497304     -0.47640782303569     -0.46830818186307
  H   -1.48673539603182     -0.82545394501937     -1.40149475336385
  H   -1.91115036051497     -1.24257833738169      0.15017202949714
  C   1.85362374752302      0.15722024084655      0.79152484381249
  N   2.77711019245808      0.77500023368479      1.16900435141679
