12
Coordinates from ORCA-job run
  C   -0.58007370247654      0.25517918864489      0.20019883048694
  C   0.73397605703817     -0.12419593158942      0.89818227223852
  Cl  -1.72465843665402      0.79440068583603      1.46654920198438
  H   1.13544245395444      0.73968988928021      1.43251221680550
  H   0.50500696928682     -0.91326650178248      1.61841482743329
  C   -0.36295088464716      1.40077766860765     -0.70415074511323
  N   -0.20684632122550      2.27816423525002     -1.47101017237803
  N   -1.13482035179290     -0.90807107483431     -0.44094659279723
  H   -0.50444747786486     -1.23895214720923     -1.16536999741788
  H   -2.02770429529811     -0.68554595174662     -0.86629458763467
  C   1.70837656835522     -0.60835302854616     -0.07643562106233
  N   2.45969942132444     -0.99182703191058     -0.89264963254526
