12
Coordinates from ORCA-job run
  C   -0.43732522549576      0.33882119803994      0.07885670301407
  C   1.06524013779636      0.02900454527044      0.13246805894176
  Cl  -0.99332997864587      0.84879449293643      1.69957558620284
  H   1.60716427449919      0.91704636325556      0.46628246189366
  H   1.41066501963142     -0.21054628173250     -0.87950515933464
  C   -0.63896935488624      1.48358169115707     -0.83209390183882
  N   -0.79940539899349      2.34365558782980     -1.61738674611837
  N   -1.16457067026286     -0.84538723869784     -0.29055069604353
  H   -2.16268549770253     -0.67003489646479     -0.29307398552840
  H   -0.88230681626156     -1.15974034465497     -1.21302750492431
  C   1.35714380662739     -1.09221630012040      1.02095951897614
  N   1.63937970369397     -1.98397881681873      1.72849566475961
