12
Coordinates from ORCA-job run
  C   -0.54388679720552      0.26093752826925      0.07072504329877
  C   0.68543447787609     -0.22554395733263      0.85118426002313
  Cl  -1.78140526038853      0.72487630487357      1.35999988718476
  H   1.00614030727841      0.55087419946697      1.54861191009786
  H   0.39473461617931     -1.09897355602032      1.44302794728307
  C   -0.24356673894231      1.49335106565507     -0.66344335224821
  N   0.00585190102605      2.47807443607486     -1.25298488012052
  N   -0.99159930746978     -0.73312213575661     -0.82560802431506
  H   -1.76998376603872     -0.42459644220399     -1.39357244391356
  H   -1.22871625728579     -1.59387959972066     -0.34820513035125
  C   1.78469348893080     -0.57670974728953     -0.04449150727357
  N   2.68430333604000     -0.85528809601598     -0.74424370966541
