12
Coordinates from ORCA-job run
  C   -0.47955575936554      0.16401642373970     -0.03918791404142
  C   0.79110631791165     -0.63653996446615      0.27775597298268
  Cl  -1.06756067781205      0.89990253636700      1.53283862735879
  H   0.52861807291763     -1.43483842158143      0.97849311240220
  H   1.13337247148999     -1.09372543433006     -0.65470053377035
  C   -0.17798808031413      1.28166413552368     -0.93816708245416
  N   0.06306371062738      2.16045018688407     -1.67902125764563
  N   -1.42567764039433     -0.69807306052667     -0.65689271328948
  H   -2.25690430382112     -0.19540960845449     -0.94322042147708
  H   -1.69191961535925     -1.44860466266843     -0.03011996617927
  C   1.85524840316120      0.17949660379514      0.85101642582674
  N   2.72719710095856      0.82166126571764      1.30220575028700
