12
Coordinates from ORCA-job run
  C   -0.63331466182015      0.31974127552133      0.10410893006663
  C   0.63072631564978     -0.10466168074161      0.88950130045234
  Cl  -1.83564523775535      0.81946748760905      1.34185949978662
  H   0.35067499185773     -0.90057822262064      1.58575503864575
  H   1.01958252658849      0.73401229922607      1.47262466431470
  C   -0.31417613906565      1.48362777219513     -0.73213151535004
  N   -0.01781739159236      2.39436180773137     -1.41170393615135
  N   -1.22774776471622     -0.69295935435176     -0.72068963119874
  H   -1.42168731761433     -1.52880278824937     -0.18165709648507
  H   -0.62709739241427     -0.91835522744137     -1.50586747945616
  C   1.64921361373110     -0.59776871159609     -0.03328283367479
  N   2.42928845715123     -1.00808465728209     -0.80851694094988
