12
Coordinates from ORCA-job run
  C   -0.47722918058971      0.15976103293361     -0.07163232694754
  C   0.77711923968583     -0.61462646515833      0.35576924851790
  Cl  -1.13108934081869      1.00397289511643      1.41852021889856
  H   0.48378560958028     -1.36061709707995      1.10055924713748
  H   1.15783934973577     -1.13755263196901     -0.52587259149919
  C   -0.13493643574240      1.21252640806062     -1.03212375752801
  N   0.14065476766994      2.03964676083349     -1.81905539628473
  N   -1.39742633404939     -0.74444550307177     -0.66717108317610
  H   -1.69011124473133     -1.45108237838749     -0.00237464834656
  H   -2.21555699934300     -0.26485340292336     -1.02230891498340
  C   1.81765649194684      0.24171496692103      0.91321282723581
  N   2.67029407665585      0.91655541472474      1.35347717697579
