12
Coordinates from ORCA-job run
  C   -0.59527231928932      0.22374612614294      0.20359883216817
  C   0.72728638889186     -0.12765256741155      0.90008306324905
  Cl  -1.77385710155130      0.65950735529259      1.47937877120395
  H   0.52594708733662     -0.95514601834264      1.58444993038743
  H   1.08523279620678      0.72954149700103      1.47453292229045
  C   -0.41834854052065      1.41500096817778     -0.64903405805570
  N   -0.26760428903723      2.32418205229824     -1.37903837240662
  N   -1.09296923032568     -0.93371247394547     -0.49171580502723
  H   -0.43801862652300     -1.21252270225237     -1.21606129268834
  H   -1.98713409191165     -0.73066424702981     -0.92378874915539
  C   1.73169404202220     -0.52935404839016     -0.08144220347359
  N   2.50304388470139     -0.86292594154056     -0.90096303849217
