12
Coordinates from ORCA-job run
  C   -0.56755269861989      0.20787297790232      0.06428712998560
  C   0.63849216463885     -0.31148119558240      0.85988484804243
  Cl  -1.93034736366468      0.36221759139005      1.30022663660935
  H   0.84408822537800      0.36294578441897      1.69348083943911
  H   0.37810534435082     -1.28647753677280      1.28316838705167
  C   -0.31983221665590      1.56326128358701     -0.43562537974267
  N   -0.11247434778602      2.64810556598988     -0.83508880777487
  N   -0.86294343799402     -0.65379540242452     -1.01380229520741
  H   -1.62372130545440     -0.31367344255326     -1.58785664830740
  H   -1.05701271121863     -1.59739245396439     -0.70188001942935
  C   1.82369865714863     -0.43865005390365      0.01555959854204
  N   2.78949968987724     -0.54293311808720     -0.64235428920849
