12
Coordinates from ORCA-job run
  C   -0.37989875473516      0.41042796148345      0.01039701367793
  C   1.07006434870046     -0.09265475704232     -0.02350403236171
  Cl  -0.59128694224319      1.50863932585408      1.40515207762408
  H   1.20967174952190     -0.70077502229747     -0.92427877485443
  H   1.74889086957535      0.76077530970141     -0.09117783701151
  C   -0.62052723577009      1.20460078692050     -1.21122509673665
  N   -0.82888556013976      1.76918561944064     -2.22126345464455
  N   -1.27611971529992     -0.70139002139282      0.17779356718439
  H   -1.19120727566087     -1.34416369860806     -0.60242452171821
  H   -2.23664830967042     -0.38491092342909      0.24162897847152
  C   1.39517181959729     -0.89164210749788      1.15448171955492
  N   1.70177500612440     -1.53709247313243      2.08442036081423
