12
Coordinates from ORCA-job run
  C   -0.47102374423323      0.43487570301532      0.02253074975848
  C   1.01636714404137      0.03547547828972      0.19576217169946
  Cl  -1.07817685915374      0.94739087572459      1.63070104826627
  H   1.57517460328866      0.84636533719355      0.66908934716530
  H   1.44482604847417     -0.14265968635398     -0.79620722767844
  C   -0.51590331623715      1.58846964191192     -0.88549784376963
  N   -0.49840866055560      2.48833552068638     -1.63990623897369
  N   -1.34649078917504     -0.58671157178933     -0.47921694322377
  H   -1.10296224461705     -0.83802383867385     -1.43021606311798
  H   -1.31732585974816     -1.40714466084797      0.11580327319645
  C   1.12418116031243     -1.18449637931740      0.98850184924031
  N   1.16974251760337     -2.18087641983897      1.60665587743725
