12
Coordinates from ORCA-job run
  C   -0.53973962579268      0.26112406932365      0.05377936274101
  C   0.70932714654563     -0.61455783992163      0.29838096788928
  Cl  -0.97590708109982      1.02040751551542      1.61768682216026
  H   0.45185023734960     -1.36564053193915      1.05098089477683
  H   0.94904894777278     -1.13324482170965     -0.63580185804281
  C   -0.21597248987368      1.31788228274527     -0.91218408546850
  N   0.06548082986711      2.12133712180051     -1.72126552624415
  N   -1.68741615387907     -0.46332260895076     -0.42488034296377
  H   -1.91842403533000     -1.22431486707905      0.20307671540542
  H   -1.52722555353056     -0.81913210157413     -1.36021557567577
  C   1.87457761024837      0.14404863265694      0.74173984856577
  N   2.81440016772234      0.75441314913260      1.08970277685644
