12
Coordinates from ORCA-job run
  C   -0.50274806086547      0.16097129730076      0.08005579472404
  C   0.78180766298537     -0.61291981411714      0.40227704920988
  Cl  -1.05247184347314      1.01247924032772      1.54990465771632
  H   1.07307425661231     -1.19294353383354     -0.48017789398104
  H   0.54240285959070     -1.31094416165872      1.20778262132284
  C   -0.24218318123394      1.17898919791717     -0.95438749958516
  N   -0.06253960472063      1.92755293914967     -1.84307736289826
  N   -1.52042012543012     -0.79703359505463     -0.28643387157178
  H   -1.27374983114661     -1.23613838578661     -1.16821677182043
  H   -2.41270949520925     -0.32976962607791     -0.40399904677757
  C   1.88728725614805      0.25610307320624      0.79104393191129
  N   2.78325010674274      0.94565336862700      1.10422839174985
