12
Coordinates from ORCA-job run
  C   -0.51413062590572      0.38325279448593      0.00679150025423
  C   0.98475908170660      0.12036275889171      0.29969015970641
  Cl  -1.31874019979306      0.69865696173073      1.57886172441951
  H   1.52056604051835      0.07011952781963     -0.65405156965167
  H   1.40721199816838      0.93950879959840      0.88643816730340
  C   -0.59864426726084      1.59804491911470     -0.81439336765803
  N   -0.60911329873411      2.55679716618161     -1.49235649385033
  N   -1.22581694608775     -0.67532442907798     -0.65265188834004
  H   -1.16614723221515     -1.53423906331727     -0.11683765341645
  H   -0.86746506255538     -0.82456040485075     -1.58887542958921
  C   1.14741657185710     -1.14633159006418      1.00485022495242
  N   1.24010394030159     -2.18528744051253      1.54253462586975
