12
Coordinates from ORCA-job run
  C   -0.54504016588166      0.25353670037486      0.01686765036545
  C   0.70280338660434     -0.59370523681127      0.35087978779117
  Cl  -1.07259163221463      1.05097241418726      1.53296180757800
  H   0.41731653090023     -1.32912041125999      1.10874698805944
  H   1.00024242085965     -1.13258188444658     -0.55469334271657
  C   -0.18836597262591      1.28735447134372     -0.96238724495862
  N   0.12107282571969      2.07402471592629     -1.77775064260461
  N   -1.65563296381937     -0.50341379942739     -0.49756071818148
  H   -1.90820346476918     -1.24843178472527      0.14109065597719
  H   -1.44234689873542     -0.88457316170667     -1.41207093349838
  C   1.83059622785746      0.19570537563744      0.83517838573313
  N   2.74014970610482      0.83023260090761      1.21873760645527
