12
Coordinates from ORCA-job run
  C   -0.57033327898494      0.27324490080441      0.21482190304530
  C   0.74766008472131     -0.15023128043626      0.87925189445791
  Cl  -1.66639119483376      0.84254127037272      1.51120275145484
  H   1.18594769777891      0.69736301664019      1.41069526800597
  H   0.51258863905021     -0.93821553657395      1.59875807761480
  C   -0.33689843444885      1.41588936001532     -0.68894852300539
  N   -0.14487192039359      2.28659899314587     -1.45528524686818
  N   -1.17685894979797     -0.86860069696073     -0.41714820049129
  H   -2.06802251022833     -0.61461276259893     -0.82805359824000
  H   -0.57054270356863     -1.22303522612766     -1.15079219915727
  C   1.68551027051259     -0.65467804514412     -0.12067796227101
  N   2.40321230019306     -1.06526399313684     -0.95382416454568
