12
Coordinates from ORCA-job run
  C   -0.35319450443007      0.39964856799530     -0.15029064118395
  C   1.08972763624109     -0.09857044709226      0.03215738341154
  Cl  -0.69093711190365      1.58788604990607      1.21342664862715
  H   1.36001335653271     -0.68098468016658     -0.85320911127085
  H   1.76693686808690      0.75265254230909      0.11943221598550
  C   -0.43682038335379      1.17324605590129     -1.39329073727764
  N   -0.48731426699559      1.77899900094993     -2.39820425806706
  N   -1.25308848803628     -0.69072665253107     -0.20478177887727
  H   -1.22403292018421     -1.23839615262934      0.64803501710240
  H   -2.20287233258994     -0.39038818012986     -0.38440341205605
  C   1.19354086912107     -0.94627535773000      1.21589663209575
  N   1.23804127751177     -1.64809074678257      2.15523204151049
