12
Coordinates from ORCA-job run
  C   -0.49657724626631      0.15400293370004      0.12300673957570
  C   0.79747766377588     -0.64906669763886      0.30443821103328
  Cl  -0.95545618711139      0.87786548003189      1.68973099356213
  H   1.03121066726654     -1.15567205737129     -0.63824955030093
  H   0.60033214192095     -1.41012938081228      1.06283908401573
  C   -0.28671714135477      1.25795372515104     -0.83179348981266
  N   -0.15098651556174      2.08379945685468     -1.65752959319455
  N   -1.54129617792850     -0.76493503438051     -0.26611968527920
  H   -1.34575177323869     -1.13157870874782     -1.19256869765707
  H   -2.43424081531206     -0.28518010502846     -0.29682086126395
  C   1.93124880712737      0.18140416597798      0.69582832650378
  N   2.84975657668271      0.84153622226360      1.00723852281774
