12
Coordinates from ORCA-job run
  C   -0.46030214733830      0.44176093350758     -0.05775590141039
  C   1.02957087172754      0.04741800112259      0.10486053041242
  Cl  -0.92914891778186      1.37412980657668      1.40140637893088
  H   1.37429013423322     -0.39797050761644     -0.83417920374164
  H   1.63744877917103      0.93249943562357      0.30690751001957
  C   -0.56020680802209      1.32286511968416     -1.22863276364883
  N   -0.59088725443262      1.99771197947312     -2.18916141483254
  N   -1.38905156487844     -0.64266604890658     -0.21083010269785
  H   -1.32573842299687     -1.28173095955848      0.57415054518903
  H   -1.22645024113292     -1.13986309229207     -1.07904126749503
  C   1.18036124034869     -0.92699471872566      1.17969178409274
  N   1.25911433110260     -1.72815994888846      2.03358390518165
