12
Coordinates from ORCA-job run
  C   -0.50462084897055      0.14433456762203      0.09463174613495
  C   0.79646490168003     -0.62530903414159      0.35372562355745
  Cl  -1.05586594434734      0.88475267315111      1.62315685328575
  H   1.08858855546276     -1.14119755584935     -0.56737234259967
  H   0.57848839227422     -1.37874464449492      1.11404458229113
  C   -0.27295455651813      1.23595752484576     -0.86937786069392
  N   -0.11578107873215      2.05198174615571     -1.70109253739814
  N   -1.50849195928653     -0.80518689305274     -0.32755822193074
  H   -2.40994367528434     -0.34760335602232     -0.40666869403726
  H   -1.26210416632119     -1.18050022788701     -1.23813275672118
  C   1.89008946396023      0.23731604539167      0.78742355153852
  N   2.77613091608299      0.92319915428165      1.13522005657310
