12
Coordinates from ORCA-job run
  C   -0.48428231974853      0.42021655560321      0.01747536033455
  C   1.01356228369420      0.06512458166177      0.19700768072385
  Cl  -1.10988188675656      0.92641340227879      1.62065467565491
  H   1.44849449571148     -0.11043744574623     -0.79257941057434
  H   1.54817797342800      0.89632818807989      0.66313728684710
  C   -0.55910218006012      1.56627083794786     -0.89792052525108
  N   -0.55922305261728      2.46430642533975     -1.65490919625738
  N   -1.32850604141340     -0.62964754182801     -0.47918434047825
  H   -1.27664067894334     -1.44534854722239      0.12087240229858
  H   -1.07609194722004     -0.87940752899967     -1.42818727557260
  C   1.15485631753451     -1.14322592717973      1.00220559926508
  N   1.22863703639106     -2.12959299993525      1.63342774300960
