12
Coordinates from ORCA-job run
  C   -0.49999790743789      0.15768585864238      0.10075364984419
  C   0.78757299689528     -0.63637484282802      0.35390811077488
  Cl  -1.01064005980040      0.93745879661564      1.62361757233224
  H   1.05328982023628     -1.17571706668862     -0.56169562986597
  H   0.56519599973418     -1.37036170412557      1.13174984156896
  C   -0.25910571287524      1.22585131001659     -0.88697603142292
  N   -0.09720974612476      2.02043601893985     -1.73825243887076
  N   -1.53110288739983     -0.77634851471320     -0.28894287613851
  H   -2.42322726370480     -0.29982181063288     -0.36423334952214
  H   -1.30634256645107     -1.17438697227140     -1.19564615319114
  C   1.90702358095878      0.20923636765964      0.75386599852637
  N   2.81454374596947      0.88134255938560      1.07185130596479
