12
Coordinates from ORCA-job run
  C   -0.54154887277287      0.26029332890050      0.03160223073279
  C   0.70296847933163     -0.60466292204720      0.33144103423743
  Cl  -1.02277396929864      1.05530895249923      1.56451833804317
  H   0.97200487142619     -1.14201152632907     -0.58388177111313
  H   0.42567402923820     -1.34063373703769      1.09182652357226
  C   -0.19437584331373      1.29517084728875     -0.94989245803689
  N   0.10880467160154      2.08150343954870     -1.76797296121057
  N   -1.67315870005731     -0.47963247101776     -0.46090481079387
  H   -1.48910297832685     -0.85220013068326     -1.38502893959043
  H   -1.91671771547111     -1.22922171996353      0.17584362815106
  C   1.85168135775753      0.16738042159434      0.79390414124412
  N   2.77754466988542      0.78870551724698      1.15954504476407
