13
Coordinates from ORCA-job run
  C   -0.10229235280183     -0.14348270355022      0.02799070835090
  C   1.09141608752294     -0.68713656451176     -0.28979520545203
  H   1.21957050094723     -1.76528736856053     -0.32297372790089
  C   -1.27751553363354     -1.02069459632690      0.34514518047648
  H   -2.10265624682236     -0.81722964902727     -0.34483923423691
  H   -1.64898633247194     -0.81150521087182      1.35337537982264
  H   -1.02658592576566     -2.08077496239902      0.28165975002152
  C   -0.33829689315108      1.33600401445031      0.08814255279444
  H   0.55608691802297      1.91012903974164     -0.15608526375144
  H   -1.13428327726595      1.61845199533003     -0.60825599298662
  H   -0.67502328953803      1.62437425938858      1.08891480364546
  C   2.24374942718210      0.09839354857373     -0.60133181486880
  N   3.19681691777514      0.73775819776323     -0.85994713591473
