13
Coordinates from ORCA-job run
  C   -0.02963005434454      0.16612987616861      0.05798274867730
  C   1.29572825390030      0.17095947934045     -0.19674269468507
  H   1.88959079039529      1.06555935255902     -0.03261678137754
  C   -0.89927121672399     -1.03736984087696     -0.15056209554585
  H   -1.70192889429282     -0.80344578132223     -0.85722235433757
  H   -0.34071986470252     -1.89324613177835     -0.53097003668277
  H   -1.37874917106327     -1.32458855612736      0.79055180127578
  C   -0.70906410649558      1.39914280454594      0.57691607582841
  H   -0.01171742754630      2.22889665633643      0.70329575424727
  H   -1.50303188300340      1.71396823193598     -0.10778440093020
  H   -1.18508433874637      1.19553560299854      1.54137963899478
  C   1.99495949639052     -0.97250040164885     -0.69227567122039
  N   2.57791841623268     -1.90904129213122     -1.10095198424416
