13
Coordinates from ORCA-job run
  C   -0.09282670198056     -0.14505971508675      0.04725132479734
  C   1.12675677722911     -0.65254836267078     -0.22981313623548
  H   1.31943210826500     -1.71740755528425     -0.13481106759572
  C   -1.20833748421271     -1.04433615407376      0.49206927458038
  H   -1.57704581507417     -0.73723147784579      1.47588901856029
  H   -0.89533119061145     -2.08812166460146      0.54980773992591
  H   -2.05395132868651     -0.97393595673516     -0.19951986936555
  C   -0.41714161882995      1.31454832361532     -0.06597566902473
  H   -1.23640946879514      1.46381650402655     -0.77644647021349
  H   0.43818324107116      1.90661915006231     -0.39285413439167
  H   -0.75966306211818      1.70026717591167      0.89947745837800
  C   2.22475918581650      0.15595411180922     -0.65727377216947
  N   3.13257535792693      0.81643562087288     -1.00880069724582
