13
Coordinates from ORCA-job run
  C   -0.02861533122822      0.16501036678731      0.06210782752089
  C   1.29702085987686      0.16941952440407     -0.19159053004602
  H   1.89492870578651      1.05687974116236     -0.00452243553285
  C   -0.90373391443466     -1.02906821166933     -0.17621496173080
  H   -1.70187761981797     -0.77575611059363     -0.88123233537569
  H   -1.38871195496183     -1.33284720029210      0.75690434542649
  H   -0.34805086896941     -1.87978199821932     -0.57178678080040
  C   -0.70319935117751      1.38892114973069      0.60791464977063
  H   -1.49454028055647      1.72301307142849     -0.07066923463879
  H   -1.18132384797115      1.16568246227199      1.56693641045591
  H   -0.00256296646362      2.21273550175751      0.75363556051941
  C   1.99126907873831     -0.96620198168320     -0.71158250328853
  N   2.56839749117916     -1.89800631508483     -1.13890001228025
