13
Coordinates from ORCA-job run
  C   -0.03294832543592      0.17053320211073      0.04220068438954
  C   1.29829471462567      0.06966358200211      0.24001792106793
  H   1.87505446802889      0.92470594048541      0.58129206334048
  C   -0.87949269644875     -0.97404809728516     -0.42867125123875
  H   -0.29802666502576     -1.88212282285762     -0.59123852749404
  H   -1.38146667206523     -0.70966163858701     -1.36496858006051
  H   -1.66445370821729     -1.18876958121851      0.30344488985163
  C   -0.74385441435710      1.46764817333417      0.29320365554850
  H   -1.52579637018504      1.33354033531960      1.04752597053947
  H   -1.24002981955316      1.81415230071597     -0.61899430037014
  H   -0.06329453108978      2.24887541971630      0.63573279245147
  C   2.02618181819240     -1.14014686953588      0.01949540034554
  N   2.63083220153107     -2.13336994420012     -0.15904071837113
