13
Coordinates from ORCA-job run
  C   -0.10155557734139     -0.14469044650194      0.02514475629367
  C   1.14429334831762     -0.61768182300435      0.23905240056737
  H   1.30565940788693     -1.66071917558868      0.49625297606312
  C   -0.38476369059488      1.28400107113167     -0.33111145745573
  H   0.52302497595743      1.88475510282859     -0.39547460868400
  H   -1.04816992527432      1.73337836058818      0.41473372133163
  H   -0.90618418557988      1.33622556120517     -1.29220235631549
  C   -1.29040273882184     -1.05275523483913      0.13796940063110
  H   -1.00383731853537     -2.07276518747498      0.39927611804867
  H   -1.84148846599474     -1.07914846218561     -0.80752321022559
  H   -1.98418732847672     -0.68110526696107      0.89874238234643
  C   2.31175146359146      0.20101590879045      0.14532308572464
  N   3.27686003486571      0.86948959201171      0.06981679167421
