13
Coordinates from ORCA-job run
  C   -0.03031838162819      0.16665222469164      0.05606821005935
  C   1.28529238708812      0.00530630619062      0.31053470065092
  H   1.86732444587309      0.80762272403068      0.75510621719941
  C   -0.71573374849618      1.46062981888881      0.38240403835183
  H   -1.53907152092373      1.29064988706487      1.08344516077815
  H   -1.15354368188972      1.89876471610620     -0.52020695962004
  H   -0.03102835696185      2.18773652998466      0.82208123328211
  C   -0.88336974335727     -0.90468916503334     -0.55451766139630
  H   -1.32752892494826     -0.54582863835254     -1.48845793436403
  H   -1.71210194514258     -1.15358157447810      0.11599378693328
  H   -0.32115857205383     -1.81510468923962     -0.76472837228955
  C   1.98900367438800     -1.20415289694938      0.02068754328902
  N   2.57423436805239     -2.19700524290450     -0.21540996287414
