13
Coordinates from ORCA-job run
  C   -0.02746378110393      0.16631550365512      0.05950091349122
  C   1.30288081255730      0.15339944980747     -0.16825478074048
  H   1.90898402047837      1.03232726552125      0.03212761514898
  C   -0.91324472556945     -1.01608771235164     -0.19640751931493
  H   -1.42247593612380     -1.31318099209620      0.72586164584635
  H   -1.69281136806291     -0.75225073271588     -0.91818594652183
  H   -0.36096580225025     -1.87476291640726     -0.57956903012693
  C   -0.69708592163468      1.39821965527706      0.59321019567120
  H   -1.47728167934977      1.73772947161286     -0.09548584120796
  H   0.00972306243330      2.21539622994134      0.74628836052151
  H   -1.18904470906121      1.18173693652494      1.54690299740252
  C   1.99292444616816     -0.99366683314278     -0.66782341772205
  N   2.56586158151886     -1.93617532562629     -1.07716519244761
