13
Coordinates from ORCA-job run
  C   -0.09693416642357     -0.14587787469413      0.03397483524092
  C   1.16600978091836     -0.57585151745833      0.23823707103873
  H   1.36198466402876     -1.60348651442025      0.53069337706566
  C   -0.42805785758015      1.25873140446443     -0.37286801016250
  H   -0.96681424134470      1.25660175945038     -1.32579321315214
  H   0.46039672412787      1.88221738467723     -0.47733365607099
  H   -1.09211739863312      1.71884878777466      0.36577756591898
  C   -1.25664901238611     -1.08235923251418      0.20615621384427
  H   -1.82660966965611     -1.16056906790786     -0.72497726950666
  H   -1.94408592033760     -0.70105443892171      0.96788780957395
  H   -0.93501764150613     -2.08262102745211      0.50076846055411
  C   2.30741083129816      0.27080247036681      0.08863792011812
  N   3.25048390749434      0.96361786663505     -0.03216110446244
