14

C	0.0	0.0	0.0
C	-0.333308	0.04808	-1.528027
Br	2.028715	0.0	0.0
H	0.495407	-0.424257	-2.063784
H	-0.23461	0.94583	0.485369
N	-0.522853	-1.139046	0.639448
H	-1.333337	-1.434829	0.099293
H	-0.878494	-0.865702	1.544505
C	-0.311683	1.476111	-1.939631
N	-0.326679	2.587674	-2.323224
N	-1.550548	-0.65854	-1.84151
H	-1.757756	-0.5466	-2.826527
H	-2.342344	-0.301457	-1.194028
F	-3.061167	0.0	0.0
