14

C	0.0	0.0	0.0
C	-0.590678	-0.07764	-1.416313
Br	1.938617	0.0	0.0
H	-1.573587	-0.536536	-1.232572
H	-0.260874	0.991006	0.380016
N	-0.513219	-1.100938	0.766501
H	-1.538631	-0.910954	0.697263
H	-0.227078	-0.98581	1.734475
C	0.17769	-0.88503	-2.35792
N	0.737529	-1.512882	-3.180403
N	-0.798367	1.294885	-1.913817
H	-0.984861	1.250769	-2.909891
H	-1.680702	1.54116	-1.464086
F	-2.807622	0.0	0.0
