14

C	0.0	0.0	0.0
C	-0.272088	0.261877	-1.50319
Br	2.062851	0.0	0.0
H	0.35129	1.118996	-1.795984
H	-0.267574	0.871521	0.593139
N	-0.510636	-1.176479	0.555228
H	-0.419957	-1.896409	-0.156797
H	-1.538594	-0.892872	0.566076
C	-1.645561	0.657118	-1.88902
N	-2.421972	1.101119	-2.65825
N	0.062506	-0.948317	-2.269061
H	1.071083	-1.006602	-2.344504
H	-0.325424	-0.862188	-3.200179
F	-2.656697	0.0	0.0
