14

C	0.0	0.0	0.0
C	-0.468922	0.194887	-1.484725
Br	1.941318	0.0	0.0
H	0.416867	0.172737	-2.126203
H	-0.23473	0.914785	0.551882
N	-0.527259	-1.18702	0.594593
H	-0.302468	-1.146891	1.584892
H	-1.5517	-1.004117	0.503287
C	-1.011701	1.569712	-1.612921
N	-1.398359	2.661472	-1.811886
N	-1.378628	-0.839403	-1.948416
H	-2.227326	-0.67479	-1.374258
H	-1.588559	-0.646091	-2.922107
F	-2.829258	0.0	0.0
