16
Coordinates from ORCA-job run
  C   0.86120880633781      0.01569868373912     -0.10909704097190
  C   -0.59599886430945      0.01026089107318     -0.56909185017358
  Br  1.82068230839101     -1.07983348270226     -1.46578401137592
  H   -0.64581361741433      0.40476491970673     -1.58306457871732
  N   1.03033263500999     -0.66147108249985      1.26995907930984
  O   0.15290532287463     -0.35694582768720      2.06355883178783
  O   2.03454250483047     -1.31721105721189      1.47852655426448
  N   1.35149681472632      1.31204997923510      0.05396437630542
  H   2.35879444228541      1.34018288334003      0.14326209138547
  H   1.01076686545449      1.98601316820385     -0.61595499430957
  N   -1.52005345400540      0.89783842993981      0.24400569652945
  O   -2.36302167471025      0.36997680477048      0.94931972326771
  O   -1.33819577880275      2.09493921517888      0.05731980222158
  N   -1.21882638295363     -1.35246117667307     -0.62311138492120
  O   -0.77786415698298     -2.22713824121761      0.10965115013308
  O   -2.16095577073132     -1.43766410719529     -1.40346344473536
