16
Coordinates from ORCA-job run
  C   0.74300949345717      0.04150780183280     -0.23114160948123
  C   -0.74160017308848     -0.03428057307066      0.13635925175147
  Br  1.13442945592770     -0.64511696571962     -1.97538279049804
  H   -0.85765653496258      0.17696204739019      1.19974899683218
  N   1.50082362082918     -0.82309446150465      0.84942708672422
  O   2.37080960236858     -1.60035568462680      0.50912965103995
  O   1.18414604991653     -0.52306015693072      1.99807285367603
  N   1.14225297223160      1.39597013192755     -0.14863504208279
  H   1.02136632181063      1.76820193394534      0.78739331058179
  H   2.08823472703069      1.53735892658845     -0.47842843334739
  N   -1.35680952274751     -1.38444866587178     -0.08912698487375
  O   -0.61797514104600     -2.33688256259152      0.12948571610829
  O   -2.54407375110770     -1.41266948688954     -0.37797137952150
  N   -1.50982848755616      1.01771186713525     -0.59923804846311
  O   -1.85777856582271      1.97607273017483      0.08492781077323
  O   -1.69835006724094      0.84712311821087     -1.79462038921934
