16
Coordinates from ORCA-job run
  C   0.82733902879759      0.01766191970661     -0.01942495119114
  C   -0.70985382847967     -0.10365487648161      0.00178271756701
  Br  1.58103486556605     -0.58743075408448     -1.66911160879455
  H   -1.05320258115295     -0.01210345416854      1.03250579065276
  N   1.33732032966083     -0.84921200107091      1.16783183294113
  O   2.20877430727813     -1.67455749564233      0.98942561974140
  O   0.81611172623682     -0.53240692248120      2.23331022720651
  N   1.30263769225885      1.32805099732840      0.27614179502929
  H   1.26933100591185      1.93991866465435     -0.52745057361268
  H   0.82730304457391      1.73385821399120      1.07412993141803
  N   -1.22277208958643     -1.41952001586219     -0.50135968669014
  O   -2.19507633623084     -1.42106162569149     -1.24106108784876
  O   -0.62590459417679     -2.38664314839424     -0.04300186570540
  N   -1.31715943511883      1.03285435869650     -0.75148327333760
  O   -1.90462495995618      1.86345756716771     -0.05947434152971
  O   -1.14225817558233      1.07278857233223     -1.96276052584616
