16
Coordinates from ORCA-job run
  C   0.80965762531760     -0.18816972609403     -0.02064670368163
  C   -0.69263708414054     -0.48920554476473     -0.05083108272739
  Br  1.73879508650658     -1.92850925477089     -0.47132784085034
  H   -0.91614908386473     -1.50083746944940      0.27935250594051
  N   1.20558722439713      0.02062162536020      1.44664714040185
  O   2.16003380346986      0.75250001973185      1.65753243783520
  O   0.55513469545091     -0.60636424544330      2.27157309957832
  N   1.20863729894695      0.91518708760917     -0.74894069188522
  H   1.13464247593907      0.77824445856129     -1.74686790489621
  H   2.12245998437553      1.24472106867890     -0.46554709100291
  N   -1.27784757762412     -0.32973022409065     -1.43940742016982
  O   -2.47537735558672     -0.09035900780053     -1.48878670742177
  O   -0.52528135726781     -0.51560702346019     -2.38790717701847
  N   -1.48580826127560      0.42912958054915      0.84469583996371
  O   -1.17539602478069      1.61367415605269      0.84110137566930
  O   -2.38545144986342     -0.10729550066953      1.47836022026487
