12
Coordinates from ORCA-job run
  C   0.83112720759181      0.03562016488247     -0.58438059964764
  C   -0.28108605072167      0.13374686760814      0.46507711673950
  Cl  1.54067864179691      1.64646040021915     -0.83105094517057
  H   0.09213946585206      0.58007308023319      1.38875946802234
  H   0.38926665620357     -0.28013253757042     -1.53188436817846
  C   1.84604319323446     -0.91640565244462     -0.15168230834215
  N   2.65762871353859     -1.68745965263995      0.20450587611857
  C   -0.89148451466469     -1.16806143084668      0.70617035179759
  N   -1.36821035282096     -2.22604963223661      0.88947970542257
  N   -1.35090926547678      1.07380677582204     -0.05996431543337
  O   -1.71250616297887      1.96182398621680      0.69962465372183
  O   -1.75268753155443      0.84657763075648     -1.19365463505022
