12
Coordinates from ORCA-job run
  C   1.03929583279338     -0.39277822419417      0.14420734543029
  C   -0.45474164926657     -0.26275724743381      0.46014375721430
  Cl  1.46593926879295     -2.11992621543711      0.14579766955017
  H   -0.65416645687271     -0.73145409684544      1.42938925780886
  H   1.60859729867504      0.08766531438992      0.93930755622472
  C   1.36041049353670      0.22964248519560     -1.13453306532064
  N   1.60482614029677      0.74450064894406     -2.16161670306754
  C   -1.29903590381535     -0.85464901435562     -0.56695671230133
  N   -1.95616831671472     -1.35927124703035     -1.39933252895954
  N   -0.81746495555693      1.20889295142076      0.64814868058583
  O   0.07784557515994      1.92610547773479      1.07831259605440
  O   -1.97433732702848      1.52502916761138      0.41813214678048
