12
Coordinates from ORCA-job run
  C   0.80509753265385      0.04417157780903     -0.62241306538816
  C   -0.24897719880699      0.09989795384751      0.48864331376356
  Cl  1.61537034389694      1.62238991299473     -0.73385628386724
  H   0.19662198033210      0.41755483073120      1.43312809261946
  H   0.29971808584313     -0.13663076618220     -1.57353409534996
  C   1.76772949514245     -1.01386933526919     -0.34401358254855
  N   2.53423397782761     -1.87173066369667     -0.10609325579906
  C   -0.93947302800460     -1.17692330241873      0.62305312691867
  N   -1.48358599298472     -2.21314302246390      0.72526456179708
  N   -1.27153248764272      1.16061482793935      0.12310078045852
  O   -1.74444991142181      1.08145858473866     -1.00315073649463
  O   -1.52975279683525      1.98620940197022      0.98787114389030
