12
Coordinates from ORCA-job run
  C   1.02923667075859     -0.40447855076620      0.16957785969718
  C   -0.46700060952143     -0.24487432443415      0.46213917087447
  Cl  1.43379599004120     -2.13575214655794      0.22255198510481
  H   -0.68370375008760     -0.67953417076924      1.44333259638769
  H   1.59382722731173      0.09005772730427      0.95945032499770
  C   1.37525119333687      0.17991162468035     -1.12072244899160
  N   1.64423753952969      0.66634838090853     -2.15551957529172
  C   -1.30643181822908     -0.85563675973678     -0.55769976449880
  N   -1.96137324540100     -1.37425633299090     -1.38302229091367
  N   -0.80454952320639      1.23855020837947      0.59917859602310
  O   0.07757347247976      1.93640317364362      1.08474288201111
  O   -1.92986314701233      1.58526117033897      0.27599066459973
