12
Coordinates from ORCA-job run
  C   1.02598539792084     -0.43436890734270      0.10732341023214
  C   -0.45395330253173     -0.25852192727378      0.46517733822007
  Cl  1.38897387736837     -2.17495123652585      0.05124322228683
  H   -0.64510606930589     -0.74332880532349      1.42810484915762
  H   1.63200281609934      0.00302614630468      0.90011504888164
  C   1.33859330642746      0.21089418177061     -1.16221609305513
  N   1.57908225375683      0.74530390623079     -2.18018687707494
  C   -1.34460502189444     -0.79367861401417     -0.55378872207564
  N   -2.04034071757950     -1.25436146986829     -1.38017271516480
  N   -0.75461906324622      1.22082919815875      0.69740320278337
  O   -1.89633442111669      1.59442821042824      0.47821634406553
  O   0.17132094410164      1.88472931745521      1.14778099174332
