15

C	-0.573123	0.080566	-1.392185
C	0.0	0.0	0.0
Br	0.356539	1.397734	-2.50888
H	1.093981	0.0	0.0
H	-1.62183	0.372083	-1.430465
N	-0.517957	-1.229641	-2.13175
O	0.453018	-1.95012	-1.949886
O	-1.462071	-1.457833	-2.887205
C	-0.513814	-1.187193	0.657507
N	-0.947874	-2.140713	1.196677
C	-0.368551	1.251696	0.802798
H	0.038402	1.150157	1.810869
H	0.108719	2.120621	0.345231
H	-1.44994	1.413673	0.866436
H	2.623137	0.0	0.0
