15

C	-0.340138	0.010553	-1.46858
C	0.0	0.0	0.0
Br	-0.052334	-1.688687	-2.341109
H	1.096233	0.0	0.0
H	0.288228	0.746103	-1.973108
N	-1.761523	0.448275	-1.702334
O	-1.903415	1.612169	-2.087446
O	-2.672297	-0.323668	-1.419631
C	-0.544412	-1.126812	0.727868
N	-0.953939	-2.012184	1.385879
C	-0.368078	1.329291	0.661282
H	0.057885	1.337922	1.667539
H	-1.446423	1.497834	0.726121
H	0.093692	2.146216	0.101468
H	2.608645	0.0	0.0
