15

C	-0.387219	0.004085	-1.451351
C	0.0	0.0	0.0
Br	-2.294443	0.354043	-1.832619
H	1.098687	0.0	0.0
H	-0.167939	-0.948212	-1.927656
N	0.392415	1.012122	-2.254152
O	0.959408	0.570928	-3.251975
O	0.406133	2.177088	-1.874461
C	-0.449443	-1.255156	0.575791
N	-0.80165	-2.268969	1.057923
C	-0.43313	1.181878	0.86154
H	-0.072848	2.110922	0.423329
H	0.031116	1.066527	1.843676
H	-1.518962	1.229202	0.978611
H	2.599303	0.0	0.0
