15

C	-0.593735	0.1052	-1.374981
C	0.0	0.0	0.0
F	-1.914417	0.398817	-1.327005
H	1.088193	0.0	0.0
H	-0.321491	0.900675	0.531
N	0.021807	1.208311	-2.215134
O	0.143052	2.280184	-1.634011
O	0.263456	0.976121	-3.39395
N	-0.435493	-1.181948	-2.152775
O	-1.439935	-1.657094	-2.665667
O	0.703239	-1.619849	-2.193988
N	-0.511624	-1.236089	0.592238
H	0.274365	-1.7561	0.959601
H	-1.150041	-1.040973	1.34895
Cl	3.381557	0.0	0.0
