15

C	-0.483134	0.00232	-1.423013
C	0.0	0.0	0.0
F	0.152873	0.90149	-2.180623
H	1.092526	0.0	0.0
H	-0.320943	0.95475	0.436053
N	-0.341324	-1.363093	-2.07614
O	-1.327166	-2.090484	-2.05808
O	0.761164	-1.611545	-2.536883
N	-1.974581	0.319957	-1.556354
O	-2.655653	0.299162	-0.536518
O	-2.366373	0.585476	-2.686471
N	-0.466713	-1.183968	0.696948
H	0.258002	-1.49351	1.328934
H	-1.318035	-1.003229	1.207153
Cl	3.376697	0.0	0.0
