15

C	-0.404882	0.027772	-1.455259
C	0.0	0.0	0.0
F	0.036045	-1.030441	-2.134145
H	1.092556	0.0	0.0
H	-0.370093	0.903377	0.483598
N	-1.929262	0.043143	-1.587185
O	-2.473977	-1.001074	-1.924455
O	-2.48285	1.090374	-1.271477
N	0.031643	1.279929	-2.199613
O	0.094477	1.173712	-3.420312
O	0.23882	2.282079	-1.531573
N	-0.451351	-1.199337	0.683957
H	0.148767	-1.970581	0.430999
H	-1.407484	-1.446299	0.469725
Cl	3.357658	0.0	0.0
