15

C	-0.48449	-0.015446	-1.415305
C	0.0	0.0	0.0
F	-0.03644	1.017187	-2.128432
H	1.097509	0.0	0.0
H	-0.364644	-0.898655	0.493175
N	-0.143436	-1.286797	-2.177295
O	-0.215268	-1.20385	-3.399823
O	0.126173	-2.281572	-1.51813
N	-2.011847	0.028199	-1.463643
O	-2.540405	0.966182	-2.037974
O	-2.56961	-0.908374	-0.902879
N	-0.580888	1.200467	0.615763
H	-0.631648	1.04864	1.614273
H	0.073108	1.963252	0.476873
Cl	3.40515	0.0	0.0
