14

C	-0.532856	0.069596	-1.416374
C	0.0	0.0	0.0
F	-0.297878	-1.158422	-2.038773
H	1.088709	0.0	0.0
H	-1.619798	0.199281	-1.40991
H	-0.368512	0.8605	0.562871
C	0.17641	1.153151	-2.195458
H	1.254109	0.984712	-2.14687
H	-0.041973	2.13665	-1.770989
H	-0.15332	1.140245	-3.236652
N	-0.575342	-1.194644	0.670113
O	-1.795279	-1.167555	0.866723
O	0.160877	-2.128289	0.964113
Cl	3.453655	0.0	0.0
