14

C	-0.54213	0.248172	-1.404602
C	0.0	0.0	0.0
F	-0.756987	-1.016445	-1.978546
H	1.088346	0.0	0.0
H	-1.524502	0.728944	-1.357009
H	-0.374353	-0.940932	0.397866
C	0.407345	1.020776	-2.28476
H	0.549202	2.020643	-1.87267
H	1.378943	0.524443	-2.301288
H	0.003171	1.097484	-3.297887
N	-0.43621	1.058228	0.941898
O	-0.574944	2.20121	0.499494
O	-0.611438	0.741758	2.117174
Cl	3.381571	0.0	0.0
