15

C	0.0	0.0	0.0
C	-0.491119	0.032057	-1.473826
F	1.360057	0.0	0.0
H	0.401377	-0.20903	-2.06534
N	-0.519499	0.999835	0.783769
H	-0.244522	0.8424	1.746362
H	-1.571603	0.818203	0.64705
N	-0.247016	-1.449358	0.555913
O	0.002167	-2.379485	-0.207005
O	-0.535673	-1.55264	1.740824
C	-0.899272	1.389968	-1.849633
N	-1.166453	2.457282	-2.257478
C	-1.529654	-0.916503	-1.896947
N	-2.173367	-1.689694	-2.50458
F	-2.616463	0.0	0.0
