16

C	-0.234137	0.023276	-1.522043
C	0.0	0.0	0.0
Cl	-1.966733	-0.417068	-1.912426
H	1.092267	0.0	0.0
C	-0.004642	1.336094	-2.137384
N	0.116359	2.361509	-2.697965
N	0.637517	-0.935441	-2.170678
H	0.398406	-1.847968	-1.794046
H	1.576959	-0.717331	-1.799245
N	-0.392775	-1.184648	0.665322
H	0.390355	-1.820824	0.727962
H	-1.234153	-1.617858	0.31705
N	-0.590196	1.200814	0.650289
O	-1.631005	1.06981	1.297023
O	0.003209	2.267683	0.475092
H	2.654733	0.0	0.0
