16

C	-0.251258	0.006539	-1.530861
C	0.0	0.0	0.0
Cl	0.041264	-1.783325	-2.099612
H	1.095575	0.0	0.0
C	-1.638517	0.243851	-1.946305
N	-2.757228	0.408969	-2.268333
N	0.646137	0.918551	-2.082507
H	0.675314	0.900636	-3.093593
H	1.577743	0.790031	-1.655456
N	-0.535769	-1.033091	0.805666
H	-1.470215	-1.305955	0.536005
H	0.092038	-1.822558	0.767036
N	-0.509835	1.317972	0.505945
O	-1.695878	1.344102	0.853896
O	0.260054	2.272369	0.548256
H	2.746319	0.0	0.0
