16

C	-0.517134	-0.010383	-1.418165
C	0.0	0.0	0.0
Cl	-2.464995	0.232454	-1.315754
H	1.093177	0.0	0.0
C	-0.109216	1.0898	-2.291273
N	0.202492	1.87211	-3.111427
N	-0.198454	-1.230261	-2.003002
H	-0.370749	-1.978476	-1.342553
H	-0.615077	-1.36822	-2.912214
N	-0.350131	-1.209795	0.672721
H	-1.167011	-1.069651	1.253596
H	0.437192	-1.454294	1.267289
N	-0.382185	1.216897	0.713911
O	-0.67885	1.118993	1.913972
O	-0.269012	2.286524	0.106264
H	2.470931	0.0	0.0
