16

C	-0.563029	0.018834	-1.424868
C	0.0	0.0	0.0
Cl	-0.119247	1.444387	-2.416154
H	1.090061	0.0	0.0
C	0.022943	-1.140648	-2.135722
N	0.382562	-2.08749	-2.732787
N	-2.008248	-0.055604	-1.363876
H	-2.378952	-0.205165	-2.296596
H	-2.216993	-0.874469	-0.79813
N	-0.419297	-1.252993	0.594266
H	-0.969562	-1.039975	1.418912
H	0.435223	-1.716731	0.896593
N	-0.46205	1.157176	0.784967
O	-0.143559	2.27554	0.380183
O	-1.067467	0.953669	1.850794
H	2.566053	0.0	0.0
