16

C	-0.42996	0.036632	-1.472414
C	0.0	0.0	0.0
Cl	0.060152	-1.600662	-2.199591
H	1.09077	0.0	0.0
C	-1.892178	0.067852	-1.617196
N	-3.063678	0.113165	-1.700964
N	0.181488	1.124568	-2.128998
H	1.159888	1.169124	-1.844829
H	0.101975	1.039273	-3.134244
N	-0.515819	-1.115157	0.707482
H	0.186607	-1.411458	1.376123
H	-1.367278	-0.863986	1.196081
N	-0.393235	1.313012	0.639649
O	-1.312983	1.301022	1.472732
O	0.260522	2.31037	0.343168
H	2.66824	0.0	0.0
