16

C	-0.240153	0.005092	-1.533637
C	0.0	0.0	0.0
Cl	0.031296	-1.79155	-2.097039
H	1.090855	0.0	0.0
C	-1.617017	0.263342	-1.963648
N	-2.722704	0.472577	-2.301979
N	0.673842	0.90177	-2.07816
H	0.714731	0.883542	-3.087164
H	1.598879	0.77177	-1.638682
N	-0.532559	-1.035491	0.803372
H	-1.440759	-1.352464	0.496232
H	0.125099	-1.802267	0.811992
N	-0.517792	1.31876	0.499919
O	-1.7021	1.343239	0.846104
O	0.247261	2.277547	0.535415
H	2.748507	0.0	0.0
