16

C	-0.568483	0.000413	-1.422792
C	0.0	0.0	0.0
Cl	-0.131228	1.412275	-2.437413
H	1.090138	0.0	0.0
C	0.013022	-1.168481	-2.122096
N	0.352273	-2.111257	-2.734087
N	-2.014485	-0.075287	-1.354344
H	-2.389696	-0.226221	-2.286106
H	-2.215984	-0.895413	-0.788646
N	-0.415034	-1.247853	0.606841
H	0.442767	-1.71169	0.907076
H	-0.963629	-1.031552	1.433008
N	-0.461438	1.166137	0.773499
O	-1.058704	0.971747	1.844286
O	-0.145167	2.281479	0.354082
H	2.56752	0.0	0.0
