16

C	-0.256325	-0.065154	-1.513412
C	0.0	0.0	0.0
Cl	-2.004697	-0.577587	-1.865077
H	1.093375	0.0	0.0
C	-0.125791	1.210634	-2.235974
N	-0.011524	2.127582	-2.964405
N	0.640696	-1.067764	-1.99283
H	0.737321	-1.012617	-2.999352
H	1.558898	-0.892709	-1.541735
N	-0.391271	-1.142288	0.741584
H	0.363198	-1.81522	0.698551
H	-1.250798	-1.554675	0.405018
N	-0.561599	1.245326	0.576929
O	-0.028657	2.298815	0.217413
O	-1.501519	1.166468	1.368756
H	2.627835	0.0	0.0
