16

C	-0.534082	0.00247	-1.413024
C	0.0	0.0	0.0
Cl	-2.479904	0.207971	-1.28211
H	1.093361	0.0	0.0
C	-0.157413	1.121153	-2.27676
N	0.116348	1.919207	-3.095421
N	-0.200781	-1.203467	-2.019848
H	-0.628212	-1.335667	-2.92418
H	-0.354452	-1.964109	-1.367857
N	-0.34214	-1.220073	0.662059
H	0.449662	-1.464809	1.251853
H	-1.158522	-1.092122	1.247373
N	-0.38945	1.205425	0.731777
O	-0.676958	1.09314	1.932096
O	-0.294519	2.282001	0.133805
H	2.473626	0.0	0.0
