14

C	0.0	0.0	0.0
C	-0.565543	-0.032656	-1.403202
F	1.344145	0.0	0.0
H	-1.659838	-0.223594	-1.282109
H	-0.401094	0.833471	0.56743
N	-0.381679	-1.256121	0.747042
O	-0.627057	-2.265876	0.096249
O	-0.313414	-1.172623	1.968436
C	0.105265	-0.968934	-2.289076
N	0.700664	-1.701365	-2.988323
N	-0.480515	1.342545	-2.024339
O	-0.746078	1.407671	-3.218124
O	-0.199775	2.290076	-1.297806
Cl	-3.305934	0.0	0.0
