14

C	0.0	0.0	0.0
C	-0.557275	-0.139031	-1.399219
F	1.352336	0.0	0.0
H	-1.64666	-0.347769	-1.273349
H	-0.398	0.874032	0.503952
N	-0.375593	-1.19834	0.836919
O	-0.326541	-1.019791	2.049341
O	-0.588315	-2.260542	0.262084
C	0.1396	-1.118374	-2.216871
N	0.711388	-1.903907	-2.876463
N	-0.50261	1.192778	-2.112722
O	-0.760118	1.167473	-3.310376
O	-0.25279	2.195196	-1.451295
Cl	-3.292811	0.0	0.0
