17
Coordinates from ORCA-job run
  C   -0.63019058209345     -0.00506587145009     -0.42100773696947
  C   0.81679058525565     -0.28489525206601     -0.80597925467938
  F   -1.37253149345151     -0.16087536095904     -1.61210980223672
  H   0.84902534894666     -1.28908669900352     -1.24197130910993
  H   1.08042687829778      0.41200214510801     -1.60869904205204
  C   -0.85754007146680      1.42261686279794      0.03850689365001
  H   -0.46402091673329      2.12516103301174     -0.69983015970646
  H   -0.37645651503210      1.61541010401257      0.99920779539819
  H   -1.92893830398816      1.60404974508281      0.14768497977883
  C   -1.18904152253933     -1.01439389539670      0.56391191488061
  H   -1.02925212252085     -2.03067030395291      0.19619379819569
  H   -0.72108817318037     -0.91752971367937      1.54533460360297
  H   -2.26356232260186     -0.85584158404495      0.67792665328423
  C   1.82028769652641     -0.17478842325508      0.33791491510873
  H   2.82890806585828     -0.38963463369874     -0.02201403759348
  H   1.83516989271792      0.82858344513267      0.76872158559291
  H   1.60201355600501     -0.88504159763931      1.13820820285530
