19

C	-0.613202	0.006111	-1.386996
C	0.0	0.0	0.0
F	-0.130751	-1.061447	-2.117184
H	1.096556	0.0	0.0
C	-2.121109	-0.040022	-1.439703
H	-2.536071	0.762674	-0.833959
H	-2.472449	0.066349	-2.467558
H	-2.446501	-1.007835	-1.055719
N	-0.134151	1.245782	-2.132907
O	0.993645	1.207808	-2.606051
O	-0.906829	2.201965	-2.205487
C	-0.402544	-1.256805	0.759853
H	0.243761	-1.325959	1.638087
H	-1.450666	-1.248228	1.092401
H	-0.23121	-2.151961	0.157141
N	-0.400565	1.235064	0.691341
H	0.451148	1.63573	1.066904
H	-1.017299	1.032219	1.469091
F	2.632387	0.0	0.0
