19

C	-0.343037	0.099589	-1.481501
C	0.0	0.0	0.0
F	-1.636098	0.542184	-1.690635
H	1.093436	0.0	0.0
C	0.657583	0.970452	-2.195954
H	0.463129	1.994074	-1.873384
H	1.650881	0.673748	-1.840396
H	0.559058	0.89558	-3.282567
N	-0.314198	-1.299179	-2.075267
O	-1.383849	-1.888112	-2.225251
O	0.791296	-1.771392	-2.32038
C	-0.593439	-1.206165	0.707042
H	-1.688042	-1.233495	0.632382
H	-0.314254	-1.159253	1.763227
H	-0.195471	-2.142515	0.308482
N	-0.377904	1.288609	0.591811
H	-1.279171	1.226503	1.050426
H	0.328005	1.51297	1.281528
F	2.691363	0.0	0.0
