19

C	-0.213419	-0.067438	-1.503858
C	0.0	0.0	0.0
F	0.045228	1.179818	-2.032621
H	1.104171	0.0	0.0
C	0.727934	-1.051788	-2.152593
H	1.708629	-0.833161	-1.705552
H	0.4343	-2.076062	-1.929823
H	0.73076	-0.901397	-3.235258
N	-1.664255	-0.345238	-1.870608
O	-2.383805	0.590433	-2.204651
O	-2.036782	-1.514513	-1.758833
C	-0.494812	-1.218636	0.753707
H	-1.58624	-1.29227	0.749927
H	-0.070424	-2.138249	0.348872
H	-0.153004	-1.137921	1.791002
N	-0.647649	1.207298	0.535997
H	-0.364476	1.264272	1.509932
H	-0.204885	2.000343	0.083388
F	2.726844	0.0	0.0
