19

C	-0.19101	0.082742	-1.525823
C	0.0	0.0	0.0
F	-0.062912	1.398625	-1.921
H	1.097628	0.0	0.0
C	0.825056	-0.738453	-2.2715
H	1.786283	-0.489677	-1.796213
H	0.633707	-1.80178	-2.146449
H	0.804794	-0.490437	-3.336096
N	-1.623034	-0.276628	-1.879409
O	-2.483653	0.587017	-1.691747
O	-1.864374	-1.436879	-2.214134
C	-0.532848	-1.297438	0.57776
H	-0.208185	-1.353089	1.61774
H	-1.62974	-1.341598	0.55806
H	-0.144099	-2.169869	0.04874
N	-0.527137	1.144187	0.724805
H	-1.44925	1.38667	0.373691
H	0.082287	1.929507	0.532445
F	2.710202	0.0	0.0
