19

C	-0.483407	0.060932	-1.439461
C	0.0	0.0	0.0
F	-0.330424	-1.164962	-2.038891
H	1.102781	0.0	0.0
C	-1.902468	0.528242	-1.670528
H	-2.579785	-0.15467	-1.15481
H	-2.03909	1.525976	-1.263129
H	-2.123163	0.511935	-2.741763
N	0.425376	1.008114	-2.22378
O	1.032726	0.578581	-3.193085
O	0.428644	2.175851	-1.83831
C	-0.501782	-1.260197	0.680963
H	-0.058175	-1.301367	1.680636
H	-1.59399	-1.279532	0.787883
H	-0.167673	-2.147646	0.144663
N	-0.519261	1.181321	0.736169
H	-0.212155	1.041147	1.69514
H	0.034038	1.968326	0.407152
F	2.657897	0.0	0.0
