14

C	-0.538772	-0.000634	-1.422765
C	0.0	0.0	0.0
F	-0.201083	1.238326	-1.971311
H	1.089778	0.0	0.0
H	-0.022718	-0.765121	-2.007015
H	-0.392414	0.849515	0.55682
C	-2.042719	-0.148898	-1.514826
H	-2.365015	-1.122659	-1.139583
H	-2.531024	0.636051	-0.930795
H	-2.359582	-0.057267	-2.555944
N	-0.482615	-1.221236	0.682006
O	-0.201042	-2.30039	0.159514
O	-1.161037	-1.091705	1.705354
Cl	3.38257	0.0	0.0
