15

C	-0.080622	-0.018936	-0.018781
C	-0.451631	0.130213	-1.474684
F	1.318722	-0.183111	0.053762
H	-1.420754	0.616302	-1.491209
H	0.305314	0.777032	-1.928617
N	-0.292366	1.26152	0.763235
O	-0.38153	2.305472	0.124991
O	-0.20897	1.178469	1.98156
C	-0.697851	-1.144847	0.682327
N	-0.748122	-2.2175	1.173208
C	-0.511492	-1.226091	-2.165796
H	-0.654896	-1.098422	-3.242843
H	0.405271	-1.800102	-2.007285
H	-1.351329	-1.79767	-1.768848
F	-2.345922	0.058087	0.333392
