15

C	-0.104648	-0.025298	-0.023761
C	-0.513539	0.282696	-1.443946
F	1.28943	-0.243005	-0.014923
H	0.253053	0.945941	-1.856161
H	-1.463815	0.800847	-1.379144
N	-0.245363	1.175802	0.889332
O	-0.128746	0.967264	2.089735
O	-0.315018	2.281376	0.36199
C	-0.740953	-1.194974	0.582318
N	-0.815607	-2.308622	0.967305
C	-0.644648	-0.994116	-2.264569
H	0.254293	-1.612216	-2.194522
H	-1.493341	-1.573143	-1.898459
H	-0.814863	-0.753879	-3.318216
F	-2.354334	0.091154	0.408771
