12

C	-0.372683	0.024836	-1.45055
C	0.0	0.0	0.0
Br	-2.298833	0.081039	-1.833318
H	1.095534	0.0	0.0
H	0.069707	0.86421	-1.982643
H	-0.35136	-0.915974	0.477292
N	0.151239	-1.210514	-2.136294
O	0.654466	-1.0454	-3.243369
O	0.01347	-2.281621	-1.558043
C	-0.490955	1.17214	0.69382
N	-0.858656	2.132426	1.263488
H	2.656691	0.0	0.0
