12

C	-0.573639	-0.011704	-1.392565
C	0.0	0.0	0.0
Br	0.402772	-1.209821	-2.605468
H	1.091338	0.0	0.0
H	-1.609475	-0.334823	-1.473937
H	-0.295096	0.922953	0.507636
N	-0.557528	1.361794	-2.004802
O	0.29464	2.158431	-1.628207
O	-1.417075	1.577466	-2.860973
C	-0.502512	-1.14262	0.740963
N	-0.896346	-2.072941	1.342552
H	2.64718	0.0	0.0
