12

C	-0.370973	0.034965	-1.450736
C	0.0	0.0	0.0
Br	-2.295662	0.094127	-1.836758
H	1.095528	0.0	0.0
H	0.07271	0.877645	-1.975801
H	-0.351428	-0.919388	0.470667
N	0.153374	-1.195085	-2.145299
O	0.021597	-2.269799	-1.572331
O	0.650352	-1.022248	-3.25396
C	-0.491229	1.167299	0.701627
N	-0.857358	2.124	1.278319
H	2.655736	0.0	0.0
