13

C	-0.275884	-0.01492	-1.473782
C	0.0	0.0	0.0
Br	-2.194755	-0.407155	-1.970494
H	1.096479	0.0	0.0
H	0.282016	-0.823903	-1.947158
H	-0.333701	-0.956907	0.416268
C	0.053011	1.240102	-2.141768
N	0.296641	2.257377	-2.677357
C	-0.581132	1.181162	0.750604
H	-0.300406	1.113763	1.805309
H	-1.675014	1.238644	0.688431
H	-0.162136	2.116186	0.368229
F	2.622109	0.0	0.0
