15

C	0.0	0.0	0.0
C	-0.537667	-0.05582	-1.422775
Cl	1.853737	0.0	0.0
H	-1.635227	-0.198423	-1.204255
H	-0.331634	0.879125	-1.94123
N	-0.545673	1.125716	0.682754
H	-0.360974	1.970243	0.149684
H	-1.576436	0.879387	0.601506
N	-0.384471	-1.150174	0.742502
H	-0.082959	-1.99998	0.291573
H	-0.01801	-1.068527	1.679858
N	0.002843	-1.12173	-2.288818
O	0.019419	-2.280093	-1.863015
O	0.391938	-0.803282	-3.416223
F	-2.858233	0.0	0.0
