15

C	0.0	0.0	0.0
C	-0.467228	-0.155204	-1.449967
Cl	1.82709	0.0	0.0
H	-1.562753	-0.156084	-1.372873
H	-0.060195	0.6596	-2.042053
N	-0.481545	1.3118	0.375144
H	-0.193092	1.489022	1.334322
H	-1.507838	1.131951	0.362103
N	-0.459664	-1.123729	0.768112
H	-0.22675	-0.949235	1.741339
H	-1.487317	-1.024328	0.663081
N	-0.03068	-1.413932	-2.098544
O	-0.692447	-2.431136	-1.897899
O	0.961312	-1.362795	-2.833938
F	-2.818211	0.0	0.0
