15

C	0.0	0.0	0.0
C	-0.534548	-0.060957	-1.42478
Cl	1.854056	0.0	0.0
H	-1.631006	-0.202798	-1.20682
H	-0.32733	0.87048	-1.948166
N	-0.547158	1.123808	0.681709
H	-0.355872	1.969782	0.153108
H	-1.578847	0.881852	0.595574
N	-0.38978	-1.149392	0.740208
H	-0.089157	-1.999536	0.290796
H	-0.031607	-1.068951	1.681254
N	-0.002233	-1.132499	-2.290254
O	0.381661	-0.818382	-3.422156
O	0.005489	-2.292167	-1.864595
F	-2.857797	0.0	0.0
