15

C	0.0	0.0	0.0
C	-0.482258	-0.007789	-1.455423
Cl	1.796862	0.0	0.0
H	-1.577107	-0.03035	-1.368563
H	-0.089619	0.867211	-1.964956
N	-0.486732	1.260837	0.522599
H	-0.217562	1.30964	1.501527
H	-1.512229	1.090856	0.479763
N	-0.461462	-1.203093	0.644403
H	-1.488527	-1.090374	0.565862
H	-0.210024	-1.145891	1.627211
N	-0.032536	-1.189196	-2.228102
O	0.961781	-1.05388	-2.949806
O	-0.681731	-2.229079	-2.133333
F	-2.828885	0.0	0.0
