16
Coordinates from ORCA-job run
  C   -0.53046568739777     -0.13302785020549     -0.66724730036124
  C   0.81974311702834     -0.19541631407393      0.08852131054188
  Br  -0.29134588833152     -0.97486912857262     -2.42335393072488
  H   1.16270721528996     -1.23745477026122      0.01578803001322
  C   -1.64756078904343     -0.86727874408451      0.06644599626327
  H   -1.34307897088745     -1.89838138372513      0.26422695388810
  H   -2.55314281825571     -0.88644851326701     -0.53982122392036
  H   -1.86584675803026     -0.35420406668028      1.00457919435122
  C   -0.89110792913031      1.26434081420811     -0.88728779739060
  N   -1.17096154844146      2.39656869028073     -1.03171727188675
  N   0.56693244478746      0.24328721072344      1.46266078426023
  H   0.16925636443225     -0.50302682469279      2.02167505492225
  H   1.44739066231096      0.50849264960437      1.88704301485360
  N   1.78581092795868      0.63271142503118     -0.58027461546033
  H   1.61340729974038      1.61061587049998     -0.37401174992206
  H   2.72926235796988      0.39309093521519     -0.30722644942755
