16
Coordinates from ORCA-job run
  C   -0.55477633460251     -0.14996594870342     -0.55611737593565
  C   0.63661488400450      0.19634963797649      0.36968832450322
  Br  -0.20095336331431     -1.83418881470118     -1.50241946780332
  H   0.30027689858732      1.09846249109655      0.90895730436866
  C   -1.84916214710285     -0.29700934745365      0.23389299665929
  H   -2.07723387241291      0.64857119502758      0.73493230788234
  H   -1.71518484376374     -1.07591989809416      0.98242141472159
  H   -2.67563047096361     -0.55218585078044     -0.42973060857701
  C   -0.68650975530763      0.89363173194590     -1.56958317782157
  N   -0.77983833541615      1.78055240784563     -2.33605234596192
  N   1.84190885429880      0.40460178935047     -0.41631585223549
  H   2.59965357473255      0.66432298008294      0.20415164446718
  H   1.72349132010111      1.15329552340330     -1.09084875238697
  N   0.79999180653606     -0.84480123188155      1.35466072538491
  H   1.34741312351729     -1.59464034018151      0.94651477948332
  H   1.28993866110609     -0.49007632493293      2.16584808325142
