16
Coordinates from ORCA-job run
  C   -0.54165357187421     -0.29407653145417     -0.66621206013549
  C   0.86254433414847     -0.20827566030566     -0.00264027708753
  Br  -0.73102396989741     -2.07547555058999     -1.46251097179339
  H   1.58272156288784     -0.58536558849180     -0.74182810803891
  C   -1.66971550943614     -0.06584263920577      0.32934539120718
  H   -1.53798664243484      0.91350751645818      0.79376016385975
  H   -1.63177658490469     -0.84579452296491      1.08962810654899
  H   -2.63696818253524     -0.10482744580553     -0.17234599477460
  C   -0.61010274895857      0.66515979239445     -1.76526346264253
  N   -0.62584166653867      1.47835654969056     -2.61458739368753
  N   0.90296347121740     -1.07344991551553      1.14945248127623
  H   1.81861538712766     -1.47875951422346      1.27828753826690
  H   0.64624189402852     -0.55005244310000      1.97733922659615
  N   1.08003343390359      1.18437646774232      0.38102464214592
  H   1.11980064965045      1.78909345001812     -0.43284109073158
  H   1.97214814361584      1.25342603535321      0.85739180899045
