16
Coordinates from ORCA-job run
  C   -0.53359528951924     -0.29850150817394     -0.63734140592814
  C   0.87409519939448     -0.09470589390147     -0.02060627715854
  Br  -0.71124726424727     -2.18159488659290     -1.21355702940956
  H   1.59736048321630     -0.33806213525381     -0.81280280050161
  C   -1.66039897607553      0.03427534385512      0.32941410350918
  H   -1.58561341779417      1.09017924293396      0.59785190401308
  H   -1.56998583582965     -0.57713122478692      1.22596251973944
  H   -2.62840198612843     -0.14056851493446     -0.14083753583464
  C   -0.62471064312266      0.50952861651823     -1.84981606657308
  N   -0.70241001881647      1.15975456999298     -2.82548935516042
  N   1.00750163218019     -0.90967767847883      1.17723177036768
  H   0.88268437019888     -1.89145765448354      0.95828873813226
  H   1.94496873646135     -0.79279446890647      1.54460606775844
  N   1.00102947345227      1.31136346186765      0.29619855804821
  H   1.92689130723208      1.66201535709041      0.09744648788628
  H   0.78283222939786      1.46037737325399      1.27345032111143
