16
Coordinates from ORCA-job run
  C   -0.55112324060813     -0.07370790573881     -0.56020221747441
  C   0.61408218579787      0.30888206069617      0.37451739375423
  Br  -0.03019977688724     -1.66984506221309     -1.61094002102399
  H   0.25676183948891      1.19676416832071      0.91142045772874
  C   -1.82865532138600     -0.40051154860322      0.20055011369510
  H   -2.12687879904983      0.47915699593482      0.77898744912237
  H   -1.64446641690937     -1.22533589449556      0.88543232922315
  H   -2.63209930437010     -0.65448610145080     -0.49157903121808
  C   -0.78750359384584      1.00331312091421     -1.51727195979805
  N   -1.06039522098570      1.88128052279641     -2.24918446330551
  N   1.74839796788284      0.73293938596700     -0.42274011956000
  H   2.44966793551527      1.16457054162723      0.16640688497652
  H   2.16861021784817     -0.06114928307937     -0.89201534055112
  N   0.79154362434518     -0.73747143124381      1.36930120556797
  H   1.39374670211939     -0.40199019743019      2.11133655416075
  H   1.23751120104458     -1.54340937200169      0.94498076470233
