16
Coordinates from ORCA-job run
  C   -0.54170621982263     -0.13455399756476     -0.57315536634701
  C   0.62657125074978      0.19101433223973      0.38925985499373
  Br  -0.13772098971688     -1.76451739592238     -1.59058309819506
  H   0.26447408260431      1.06260349032422      0.96094750803594
  C   -1.84607587633628     -0.34304940085489      0.18575857759318
  H   -1.71020942680208     -1.15461437586719      0.89835413780912
  H   -2.65657383700837     -0.58054566977456     -0.50359522325145
  H   -2.10018894573618      0.57265618549519      0.72799687080615
  C   -0.67703398202928      0.95359537299758     -1.53817903565644
  N   -0.77412480130694      1.87498152660649     -2.26229835614150
  N   1.84198013405021      0.45449307241069     -0.36405413309342
  H   2.58195646886498      0.70523820526741      0.28106880524810
  H   1.72014775918454      1.22679953323041     -1.01079930725307
  N   0.79046126148518     -0.88946535383424      1.33071861842454
  H   1.35843672162492     -1.61154975385366      0.90117764027943
  H   1.25960640019473     -0.56208577090003      2.16538250674776
