16
Coordinates from ORCA-job run
  C   -0.61291476208362     -0.45011523786536     -0.40657480421859
  C   0.64526209981528     -0.27179120506348      0.47883082544084
  Br  -1.01190690605606     -2.36752533780621     -0.52635694160321
  H   0.46396190930076     -0.85916121349884      1.39028281376292
  C   -1.83710740422684      0.25796135302041      0.16346223885168
  H   -1.67391453833336      1.33691540588278      0.14715001008076
  H   -2.72125824190748      0.02945770315370     -0.43153271997801
  H   -2.01436839324124     -0.07963908678399      1.18799333109725
  C   -0.32199283548916      0.03088447500587     -1.75369378588684
  N   -0.08343594430799      0.44855458892673     -2.82592001857549
  N   0.79924020350977      1.16317274569021      0.72773632892448
  H   0.17824090828131      1.47928197185853      1.46397563064812
  H   1.74903891243493      1.34064509569489      1.03124382986533
  N   1.78740540556901     -0.83550859574392     -0.18751181587693
  H   2.54333932300852     -1.01122473103082      0.46037396215129
  H   2.10941026372618     -0.21290793144050     -0.92045888468359
