16
Coordinates from ORCA-job run
  C   -0.61123830279129     -0.35804463247900     -0.42367028692624
  C   0.61410710782646     -0.18790224051005      0.50279010256240
  Br  -0.92070224176423     -2.28444164004311     -0.72797568082115
  H   0.33047220879676     -0.65281507834135      1.45987000741384
  C   -1.87614527536967      0.22531405989155      0.19317882672019
  H   -2.07485468177312     -0.26297044588144      1.14955081382477
  H   -2.72970938702947      0.06749336900964     -0.46672044059790
  H   -1.72397108115249      1.29137390849550      0.35829035009052
  C   -0.33348895936239      0.25567669618168     -1.71867096620954
  N   -0.13608133956913      0.81062597293092     -2.73568166016926
  N   0.78497450550294      1.23175356315201      0.73309935006040
  H   1.33819959482909      1.61678351822186     -0.02606627646157
  H   1.27133512375830      1.39853456029590      1.60423816873634
  N   1.79540048435150     -0.76254089220382     -0.11931647107883
  H   1.68207172166165     -1.75618477806954     -0.28031219575213
  H   2.58963052208509     -0.63265594065074      0.49639635860818
