16
Coordinates from ORCA-job run
  C   -0.49468255242987     -0.14087398781050     -0.63749057512992
  C   0.89500351267751     -0.21929118352963      0.06046554590542
  Br  -0.34124600866157     -0.82938318997844     -2.46775030319004
  H   1.20388953826017     -1.26815012923652     -0.01291537510622
  C   -1.55760901261747     -0.96577452378207      0.08290581206171
  H   -1.21203222310515     -1.99752488000658      0.18194390394871
  H   -1.75663644384565     -0.54952879113590      1.07217814174286
  H   -2.48867715631311     -0.96477983593777     -0.48373315050641
  C   -0.89920921375175      1.26024246633219     -0.71109326063158
  N   -1.17883882833510      2.40234980856666     -0.68536128652068
  N   0.85244356778436      0.12175539089202      1.47395523579967
  H   0.48648962337191      1.05707367252644      1.61742800677554
  H   0.30987015108936     -0.53680365088698      2.01820618717421
  N   1.84519927802531      0.58261494833658     -0.66998480725482
  H   1.58982563892153      1.56404537338563     -0.61738608159128
  H   2.74821012892951      0.48302851226486     -0.22136799347716
