16
Coordinates from ORCA-job run
  C   -0.55031559775884     -0.13807875140574     -0.56334185731054
  C   0.63234720580669      0.19268455921698      0.37902434950193
  Br  -0.16782652015375     -1.78217896419436     -1.56738080415192
  H   0.28171868677198      1.07122931503007      0.94731419794788
  C   -1.84525856962943     -0.33199106631026      0.21523706951718
  H   -1.70367233298807     -1.13629006918919      0.93491666300083
  H   -2.66590252008178     -0.57331834260962     -0.46069148143880
  H   -2.08797635455098      0.59097335416394      0.75044877052616
  C   -0.69389028712282      0.93852897391741     -1.54001781136392
  N   -0.79674206106741      1.85056965628752     -2.27506228003212
  N   1.83813967480050      0.44340250109995     -0.39346337887270
  H   2.58834209201170      0.69699169250605      0.23862594933773
  H   1.71100284544951      1.20941406802261     -1.04653159699092
  N   0.80537757731461     -0.87909169052943      1.32915297264213
  H   1.28823047439031     -0.54547914738562      2.15344257179079
  H   1.36442907459144     -1.60736631662855      0.89833241606319
