16
Coordinates from ORCA-job run
  C   -0.54192022966557     -0.07762890337109     -0.56800567226059
  C   0.60413627990201      0.31549560016989      0.38564613233250
  Br  0.01848420048224     -1.65701959960021     -1.62421086681486
  H   0.22611892523820      1.19414883557380      0.92354166192080
  C   -1.82489328273500     -0.43028114221928      0.17202535924858
  H   -2.14338325362063      0.43982932789270      0.75409524729016
  H   -2.61468839640057     -0.68928958780451     -0.53378629734887
  H   -1.63817382702402     -1.25849977630355      0.85206159840100
  C   -0.78168433667567      1.00312699221974     -1.51996333115895
  N   -1.05948026682787      1.88178136888398     -2.24918217402970
  N   1.74291506268405      0.76223749855607     -0.39250784246113
  H   2.42688727732668      1.20603423627333      0.20776561834922
  H   2.18536789471174     -0.02229413269684     -0.85729864220348
  N   0.78315987871019     -0.73528858439261      1.37536109472456
  H   1.24131641040777     -1.53384121809903      0.94995710635574
  H   1.37583766348647     -0.39851091508240      2.12450100765502
