16
Coordinates from ORCA-job run
  C   -0.52823660774057     -0.06630133487209     -0.50150225478011
  C   0.65454980783549      0.24097691243133      0.46108363285256
  Br  -0.04465764914957     -1.59047088605370     -1.66259320952190
  H   0.29742673460370      1.09013384025568      1.05871028295797
  C   -1.81733557385204     -0.39994557921279      0.23634937951913
  H   -1.65693989122383     -1.27300721947887      0.86533924537979
  H   -2.08635654382335      0.44734468153643      0.87425248390096
  H   -2.63089549205413     -0.58450189884577     -0.46614530326548
  C   -0.71364220190081      1.08226253661066     -1.38317337257881
  N   -0.87260423227825      2.04459278780267     -2.03965039326142
  N   1.88728758146431      0.66839657570289     -0.17012466764832
  H   2.20098610649922     -0.02470988805058     -0.84073964599345
  H   1.76844368649516      1.55091093918597     -0.65501042601122
  N   0.82568801740832     -0.87972187682519      1.35785840398146
  H   1.54302325592205     -0.62692610036324      2.02794744910066
  H   1.17326300179430     -1.67803348982339      0.83639839536817
