16
Coordinates from ORCA-job run
  C   -0.52739787764245     -0.06179827861336     -0.58363667731770
  C   0.80878198512852     -0.30663051421722      0.18304759565594
  Br  -0.26040663843445     -0.55161425583480     -2.47228543751769
  H   1.00379129909783     -1.38097467728754      0.09476433034969
  C   -1.68150601876353     -0.88944803939637     -0.03319574010905
  H   -2.58436222030713     -0.73662044979590     -0.62569633693996
  H   -1.85986377200710     -0.60669829349231      1.00352542467659
  H   -1.41097507063172     -1.94687971981662     -0.06796365339472
  C   -0.82234434691985      1.36695995966752     -0.54385899821480
  N   -1.00324637172458      2.52367333868078     -0.43134156387290
  N   0.54363626282749     -0.00852807239959      1.57818296393314
  H   1.36298194187965     -0.28033079387423      2.11023138021034
  H   0.44165955941149      0.99616200975540      1.69546255049093
  N   1.97400454434091      0.39083932276766     -0.31847323158052
  H   2.20249938445608      0.09773107242050     -1.26042820248174
  H   1.81374733928885      1.39315739143608     -0.32733440388754
