16
Coordinates from ORCA-job run
  C   -0.53002536678334     -0.28920402831119     -0.69650170757571
  C   0.88589580258161     -0.16684273071435     -0.07667193208179
  Br  -0.74421867918258     -2.09268704127011     -1.44403323573900
  H   1.59074139648967     -0.45307159630856     -0.86182640801502
  C   -1.63898388962830     -0.04894701595693      0.32101853897423
  H   -1.55239861834406      0.96188715157534      0.72968901697763
  H   -1.57329955285482     -0.79010279359041      1.11853881745799
  H   -2.61588587852353     -0.13879288093335     -0.15424346045526
  C   -0.65115017920312      0.63979578589285     -1.81783850315243
  N   -0.78216165764118      1.37739248468509     -2.72310207344766
  N   1.02564972286252     -1.11683858814895      1.01230758698193
  H   2.00034422773743     -1.34734339490522      1.15545229789544
  H   0.66977941040629     -0.72502025388612      1.87578610550381
  N   1.10550721706929      1.24459443864278      0.21205985421884
  H   2.09551871550818      1.45195844630775      0.23627918554559
  H   0.71468732950593      1.49322201692138      1.11308591691139
