16
Coordinates from ORCA-job run
  C   -0.45001883518468     -0.29991156299460     -0.64056483991351
  C   0.93378748017484     -0.14735504162223      0.06647831020200
  Br  -0.59883601298073     -2.15069336774448     -1.31375302441079
  H   1.68884968243886     -0.44843652276709     -0.67535622637661
  C   -1.63907220747259     -0.01030291856861      0.26464412848706
  H   -1.59936655036050      1.03011086840375      0.59689514543619
  H   -2.57439309714726     -0.16097200057324     -0.27502866770095
  H   -1.60069227088280     -0.66276440093555      1.13473622637697
  C   -0.45596314678267      0.57104313486346     -1.81149211762938
  N   -0.42620024944609      1.32273048783741     -2.71526854445434
  N   0.93317189152072     -0.94148466221408      1.27738551862960
  H   0.89263810935927     -1.92869967423301      1.05603465051883
  H   1.80305403971072     -0.75543545416601      1.76220237435047
  N   1.23917234522328      1.20593615263746      0.46163591273518
  H   1.28587710037968      1.83560437573654     -0.32886387929942
  H   0.56699172144996      1.54263058634026      1.13931503304871
