16
Coordinates from ORCA-job run
  C   -0.48822974129538     -0.07455662911572     -0.61205320620734
  C   0.84708634934320     -0.20925750995042      0.18160493310150
  Br  -0.16156088690659     -0.73938376549642     -2.43886971138722
  H   1.16016595715316     -1.25793108553937      0.06460512104376
  C   -1.62156981539007     -0.88861666310600     -0.00197792007699
  H   -1.88360414666760     -0.46535639814807      0.96958965028524
  H   -1.30608480202186     -1.92839203422181      0.11673662990648
  H   -2.50508188151592     -0.86500773760881     -0.64033086780234
  C   -0.84592456374482      1.33516761380580     -0.71805669355339
  N   -1.10839476238829      2.47881260016285     -0.78490418209125
  N   0.56319188859774      0.18407665461161      1.55126086182923
  H   1.45030040593535      0.39338112608390      1.99420104143379
  H   0.12541706838941     -0.56875838822587      2.06668976804967
  N   1.92829461916795      0.62580832295175     -0.27413012480236
  H   2.20721766072213      0.38080533107695     -1.21468103729366
  H   1.64077665062160      1.59920856271964     -0.25968426243511
