16
Coordinates from ORCA-job run
  C   -0.47620289358503     -0.30228404804951     -0.66818635023964
  C   0.93649130001365     -0.25315141221351     -0.00426094995958
  Br  -0.72798739012823     -2.06071517799144     -1.50360488607458
  H   1.63686409953681     -0.65088229337102     -0.74401097619790
  C   -1.61277778534841     -0.06805296370059      0.32019783102127
  H   -1.61935908865692     -0.86849872759383      1.05962735065931
  H   -2.57288537307976     -0.06013083443239     -0.19591040559858
  H   -1.48740347985779      0.89897680574085      0.81700552313186
  C   -0.52076921930393      0.68236160547119     -1.74611839053745
  N   -0.52628901149686      1.51269710206687     -2.57874997513188
  N   0.93732099201844     -1.13847483289153      1.13799434278904
  H   0.52645863976570     -0.66739081726277      1.93708722708791
  H   1.89911042179583     -1.33840149462515      1.38463510569325
  N   1.38412705701630      1.09190147332565      0.32324468982772
  H   1.47501937548205      1.67091487346349     -0.50372802517237
  H   0.74728235582816      1.54913074206372      0.96577788870163
