16
Coordinates from ORCA-job run
  C   -0.54506589977953     -0.15186007235085     -0.56543657008462
  C   0.62878503994038      0.20101903515862      0.38013547846398
  Br  -0.15520645205526     -1.82087237871990     -1.52408517016639
  H   0.27353499158205      1.09397071639144      0.92243019801418
  C   -1.84782095009353     -0.32456388261776      0.20517422103293
  H   -2.09468009610476      0.61205515736084      0.71403151220335
  H   -1.71389553720967     -1.11035095213338      0.94644946470832
  H   -2.66205399451610     -0.58233520456512     -0.47242229258112
  C   -0.67700050253237      0.90065408492869     -1.56966024419603
  N   -0.77047573463918      1.79487240770974     -2.32746858167993
  N   1.84239528443547      0.43155118360336     -0.38662243443081
  H   2.58698558351288      0.69827402818959      0.24662323494348
  H   1.72315057599317      1.18264377814333     -1.05827634861626
  N   0.79149564651934     -0.84698987153870      1.35790608970959
  H   1.26493484151911     -0.49359313931831      2.17937559993880
  H   1.35491720342799     -1.58547489024158      0.95084584274053
