16
Coordinates from ORCA-job run
  C   -0.53501552507028     -0.03059292189245     -0.53352811046974
  C   0.72253747432308      0.20047342967463      0.36197836922378
  Br  -0.17165626857932     -1.40893391737358     -1.88118395644025
  H   0.44856086533648      1.07415951228326      0.97864287288279
  C   -1.75157258066581     -0.45451855959360      0.28025563886058
  H   -2.63991364508153     -0.51714279050943     -0.34878231387874
  H   -1.93498101778883      0.27952110341162      1.07196629377988
  H   -1.56756385650968     -1.43449647115960      0.72112731153072
  C   -0.79745497203456      1.21300856436207     -1.25303138058482
  N   -0.97726206381051      2.25178574375193     -1.77372783708299
  N   1.93360532153357      0.54561051224984     -0.33646407433972
  H   2.14709031382180     -0.16938753347275     -1.02292217804804
  H   1.84406507215843      1.43673089517947     -0.80805159800625
  N   0.98731418615568     -0.99667127596561      1.13237916536597
  H   0.35965503157034     -1.07142500348527      1.92256222612895
  H   1.93259166464113     -0.91812128746053      1.48777957107789
