16
Coordinates from ORCA-job run
  C   -0.52963284886100     -0.37371297826400     -0.42927237493655
  C   0.67778071721060     -0.23465786512197      0.53990894680229
  Br  -0.83998925459764     -2.29326034250402     -0.77418544428267
  H   0.37742658033216     -0.76048938363101      1.46140399670415
  C   -1.81591387554873      0.19705373453692      0.15793124031291
  H   -2.01747093647961     -0.26504894970631      1.12698582635396
  H   -2.65905822949585      0.00262665558330     -0.50502066123121
  H   -1.72077081023273      1.27801390777670      0.28018883221550
  C   -0.21715879414799      0.26786119433351     -1.70157776318816
  N   0.00080892586930      0.86283835073294     -2.69163295618523
  N   0.97995281374575      1.13143102048706      0.89382203524697
  H   0.23836675087625      1.57432719340025      1.41716573175344
  H   1.20146789356116      1.67191241128645      0.06497989934172
  N   1.86720735481260     -0.75121591784680     -0.09812026926778
  H   1.80220505790368     -1.74905896636052     -0.25003586197419
  H   2.65477865505207     -0.55862006470249      0.50845882233485
