16
Coordinates from ORCA-job run
  C   -0.57826027423354     -0.38480019640895     -0.37462496805551
  C   0.63830767349743     -0.18939531563501      0.58182834891751
  Br  -0.76769247133399     -2.30702545605911     -0.75743561244223
  H   0.38083168838376     -0.73367182932661      1.49700498700314
  C   -1.88532174112639      0.11441953320267      0.22731849301009
  H   -2.72217423427133     -0.08774129983590     -0.44230788324394
  H   -1.80521729420499      1.18422106491345      0.41612816676582
  H   -2.06015885161402     -0.39810354062837      1.17565373604133
  C   -0.27841614286929      0.28109006454958     -1.63820982921780
  N   0.02728370117965      0.87425751027740     -2.60670574800182
  N   0.69107365371614      1.22588196127928      0.89738808966711
  H   1.00388699922215      1.74297573636438      0.08001513723526
  H   1.40045751334942      1.35419887216658      1.61040892385800
  N   1.91066667361242     -0.69822669085447      0.11506653734683
  H   1.88375376183540     -1.70297949542319     -0.00820975946069
  H   2.15997934485718     -0.27510091858173     -0.77331861942310
