16
Coordinates from ORCA-job run
  C   -0.51293421521714     -0.30155076507789     -0.65327118049050
  C   0.87661664001246     -0.06627242111695     -0.00737597631523
  Br  -0.61828877133942     -2.17663155673494     -1.27306926517937
  H   1.62103552737510     -0.26787647801558     -0.79168731276455
  C   -1.66600318025098     -0.02738145889321      0.30035329047720
  H   -1.63018629997572      1.02390417417993      0.59392572690848
  H   -1.57079568012264     -0.65633183505129      1.18416296806824
  H   -2.61999971763290     -0.22235965628074     -0.19022240771459
  C   -0.60971051863884      0.52928003871079     -1.84974269336610
  N   -0.69465920449833      1.19845558091122     -2.81184502330529
  N   1.01639378054767     -0.90355623603953      1.17444308564337
  H   0.93249904386272     -1.88401639009751      0.93112453323425
  H   1.94143569827664     -0.76027685652452      1.56341881582670
  N   0.95262137056223      1.33533607058903      0.34284485529145
  H   1.86910574388265      1.72103055177571      0.16721210565519
  H   0.71186978315650      1.45624723766550      1.31872847803074
