16
Coordinates from ORCA-job run
  C   -0.53056365300077     -0.06619411997508     -0.50084746961913
  C   0.65193595176158      0.24271072066352      0.46214299921312
  Br  -0.03215428309448     -1.56780616434755     -1.68468175857363
  H   0.28615573244777      1.07916658841943      1.07226799064624
  C   -1.81257990397624     -0.42633759268646      0.23699497474171
  H   -1.63929863756009     -1.30567366995154      0.85352637962658
  H   -2.62631619271411     -0.61140574297687     -0.46516321423581
  H   -2.08973431583253      0.40888381501127      0.88719305211801
  C   -0.73230058443763      1.09253715219936     -1.36573400371660
  N   -0.88655014388067      2.06584799333379     -2.00693782091411
  N   1.87717742190102      0.69350682642991     -0.16688952924738
  H   2.19769919881921      0.01322254901081     -0.84738179103577
  H   1.74624991346349      1.58088886557800     -0.63954788048705
  N   0.83953927154559     -0.88803753344664      1.34271428070229
  H   1.55674916678081     -0.63632555134759      2.01334159054922
  H   1.19399105777704     -1.67498413591435      0.80900220023231
