16
Coordinates from ORCA-job run
  C   -0.48946571190675     -0.04150250527318     -0.47815780819290
  C   0.77165897426606      0.30464441725677      0.40448308450287
  Br  -0.05301418486053     -1.55494870848341     -1.66099705737206
  H   0.43272018173965      1.15122862675314      1.01707804868114
  C   -1.70835953476056     -0.40928150277338      0.35693138324429
  H   -1.50899748788083     -1.31403295899083      0.93116916288702
  H   -2.57868325873789     -0.58461880576395     -0.27600402189496
  H   -1.93440290179056      0.41273540893128      1.04359427138913
  C   -0.78637901856950      1.09829908700909     -1.33819776942133
  N   -0.99789453229448      2.06410746037284     -1.97538494259346
  N   1.92539825638601      0.74039544074397     -0.34335802455957
  H   2.35583251774440     -0.04470823137088     -0.81623383848016
  H   1.67686205376271      1.43855242869710     -1.03401961136165
  N   1.15542162130724     -0.75731590155604      1.29895427274915
  H   1.23965324710710     -1.63994209957576      0.80876495736343
  H   0.50064977848793     -0.86261215597676      2.06037789305904
