16
Coordinates from ORCA-job run
  C   -0.53481238215829     -0.02561825308902     -0.53378255898426
  C   0.72224681737692      0.19676596716419      0.36440841337705
  Br  -0.17092079802262     -1.39237984853380     -1.89346869955565
  H   0.44837458223271      1.06485212619743      0.98890765726856
  C   -1.75165001053876     -0.45713512528782      0.27559440314240
  H   -1.93682050946587      0.27083232595854      1.07248582926263
  H   -1.56648443571936     -1.44001383278595      0.70939752824525
  H   -2.63916365651557     -0.51609892989857     -0.35496262327957
  C   -0.79734401473178      1.22396931556725     -1.24269395868811
  N   -0.97820438661511      2.26669893551981     -1.75496894906176
  N   1.93361050683637      0.54810367570642     -0.33064244204824
  H   2.14367311235054     -0.15672453911238     -1.02864844091002
  H   1.84601707375824      1.44660013510972     -0.78846611923473
  N   0.98535022904438     -1.00742690801601      1.12444865043228
  H   1.93312062363929     -0.93675215593423      1.47463476149126
  H   0.36200724852892     -1.08467288856560      1.91775654854288
