16
Coordinates from ORCA-job run
  C   -0.52872390151053     -0.36523182957065     -0.44020213904467
  C   0.67636190481506     -0.24423925691344      0.53451624418812
  Br  -0.83042349611296     -2.27663095343659     -0.83399525442400
  H   0.37507199487754     -0.79195093311996      1.44294112892561
  C   -1.81842013056708      0.18463240795651      0.15923405375995
  H   -1.72896422449220      1.26260722944524      0.30899115438785
  H   -2.65993968109183      0.00300635985566     -0.50933608409853
  H   -2.01887072039432     -0.30268498389420      1.11605039771015
  C   -0.21546028689578      0.30891252340504     -1.69539940502123
  N   0.02236623300804      0.93008573858987     -2.66448942437263
  N   0.97245167803347      1.11438487289456      0.92025653705654
  H   0.22825154149074      1.54297449923217      1.45154612415948
  H   1.19540073077446      1.67415186819655      0.10480621237994
  N   1.86929472788609     -0.74203220933230     -0.11122902566838
  H   2.65442663381242     -0.56079559964990      0.50185050272564
  H   1.80817699636686     -1.73618973365857     -0.28654102266382
