16
Coordinates from ORCA-job run
  C   -0.45452409837823     -0.28658443612392     -0.64066543053690
  C   0.93782971720982     -0.14800172489263      0.05073545292819
  Br  -0.61086589220435     -2.12293323953653     -1.35124280407327
  H   1.68391488889160     -0.43238581769575     -0.70658392860674
  C   -1.63192299001238     -0.01722011456989      0.28596492404895
  H   -1.58044789343717     -0.68692349890434      1.14222478019019
  H   -2.57402009079707     -0.15938616980154     -0.24409854793886
  H   -1.59000065628351      1.01656815424099      0.63792146200954
  C   -0.48080785568111      0.60933669769252     -1.79226807106459
  N   -0.50708570393223      1.37879484136109     -2.68097958057623
  N   0.95466720376508     -0.96739115912916      1.24478726830667
  H   1.83186501872327     -0.79185433772445      1.72035332706698
  H   0.91074018197463     -1.94965053807892      1.00311508384777
  N   1.24691006331356      1.19724575430944      0.47087507646550
  H   1.27976439927793      1.84463853953148     -0.30597063961090
  H   0.58398370757016      1.51674704932161      1.16583162754370
