16
Coordinates from ORCA-job run
  C   -0.46337026191113     -0.09820665654096     -0.57344471902622
  C   0.93409068693525     -0.24505690433696      0.13924234034595
  Br  -0.28124174695551     -0.67877406996882     -2.44922112196598
  H   1.18894838637824     -1.30802075182605      0.05216364218741
  C   -1.55119842120197     -0.95139803734541      0.06843658085595
  H   -1.21634844713510     -1.99045341321786      0.11783794105054
  H   -1.76555343916502     -0.58965546794229      1.07569949322118
  H   -2.47227404768579     -0.91001800031818     -0.51326803798640
  C   -0.82778340395821      1.31324281528933     -0.57711849840875
  N   -1.07031167877813      2.46082457538353     -0.48999403788433
  N   0.85468510270217      0.08719803339761      1.54217446499148
  H   0.30501150424004     -0.58066969238753      2.06257925157227
  H   0.48253179968305      1.01858749362317      1.69047043982054
  N   1.99390931279537      0.53264736564550     -0.45322415805747
  H   2.01053573246761      0.42304960525010     -1.45864734801216
  H   1.87836892158912      1.51570310529483     -0.23568623270402
