16
Coordinates from ORCA-job run
  C   -0.41170358654519     -0.28607837204000     -0.63643505874759
  C   1.03007869063675     -0.15525836292639     -0.00696109449569
  Br  -0.60159027780173     -2.10386762639939     -1.37830567760062
  H   1.72635157735134     -0.43778881123264     -0.80359938042760
  C   -1.53969759642802     -0.05300249318794      0.35879671743491
  H   -2.50973187651207     -0.16827830069318     -0.12493402975508
  H   -1.47103851512557     -0.77326710121001      1.17443241493885
  H   -1.47993103823019      0.96173842631227      0.76096980628366
  C   -0.51472491609496      0.63834864138553     -1.75909849395523
  N   -0.60047793872093      1.43033019209795     -2.62446818955617
  N   1.25829335852013     -1.02165524587656      1.12310633801290
  H   0.81698119820968     -0.66188622571420      1.95965439868981
  H   0.92613506150510     -1.96026837473034      0.94401711650981
  N   1.33465529570970      1.20295752815853      0.37668644952569
  H   0.67887609383447      1.56548153068292      1.05724747757898
  H   1.35652446969149      1.82149459537345     -0.42310879443662
