14

C	-0.581291	-0.012607	-1.404515
C	0.0	0.0	0.0
Cl	0.177529	1.223439	-2.400366
H	1.089857	0.0	0.0
H	-1.653874	0.165458	-1.395684
N	-0.392716	-1.355829	-2.066612
O	-1.163777	-1.587503	-2.995434
O	0.497371	-2.086057	-1.650709
C	-0.554269	-1.090238	0.793535
N	-1.043035	-1.951858	1.426464
N	-0.476169	1.290684	0.650808
O	0.328771	1.891383	1.344617
O	-1.648632	1.614141	0.449072
Cl	3.190318	0.0	0.0
