14

C	-0.582571	-0.075063	-1.403743
C	0.0	0.0	0.0
Cl	-2.345153	0.024111	-1.393755
H	1.094312	0.0	0.0
H	-0.293381	-1.032687	-1.834185
N	0.012134	0.954134	-2.360908
O	-0.671664	1.891046	-2.743741
O	1.161921	0.689835	-2.684321
C	-0.458683	-1.154979	0.759759
N	-0.810529	-2.126115	1.319051
N	-0.40302	1.268048	0.691682
O	-0.269371	2.29001	0.028381
O	-0.776411	1.201433	1.856911
Cl	3.113062	0.0	0.0
