14

C	-0.560844	-0.051599	-1.412909
C	0.0	0.0	0.0
Cl	-2.316155	0.096492	-1.439208
H	1.094309	0.0	0.0
H	-0.288407	-1.012255	-1.846959
N	0.087331	0.965527	-2.353541
O	-0.565515	1.912648	-2.764165
O	1.243949	0.680825	-2.63469
C	-0.47758	-1.15972	0.738516
N	-0.839437	-2.135541	1.283023
N	-0.403182	1.266331	0.697895
O	-0.245202	2.292211	0.044253
O	-0.802193	1.18995	1.855539
Cl	3.120983	0.0	0.0
