14

C	-0.57331	-0.010584	-1.406876
C	0.0	0.0	0.0
Cl	0.196415	1.225206	-2.395814
H	1.089807	0.0	0.0
H	-1.64433	0.171728	-1.406244
N	-0.383183	-1.352157	-2.063914
O	0.476616	-2.101742	-1.61892
O	-1.129283	-1.569307	-3.013569
C	-0.555511	-1.087078	0.795712
N	-1.012853	-1.966888	1.425442
N	-0.472618	1.291576	0.650298
O	0.323344	1.879548	1.365479
O	-1.637003	1.62722	0.433049
Cl	3.184864	0.0	0.0
