18
Coordinates from ORCA-job run
  C   -0.69805654883071     -0.42420401112308      0.13236250702519
  C   0.72132354452195     -0.15773946074909     -0.38282171732455
  Br  -0.90352055734809     -2.46909164186825      0.06875233921928
  H   0.80074905973652     -0.55847233525589     -1.39354925294310
  N   -0.92224901998029      0.10875811738903      1.41274522457216
  H   -0.24854537555020     -0.22076244633776      2.09203070106240
  H   -1.86657923769813     -0.06085920368765      1.73258627665526
  C   -1.73363861957771      0.09360855327091     -0.85257699331954
  H   -1.56186499266451     -0.30475842262724     -1.85270580407079
  H   -2.73135655795844     -0.21446437212422     -0.53436619215395
  H   -1.70158410342215      1.18507042277441     -0.87453469388472
  N   1.75292773018691     -0.92441858928028      0.39252140572500
  O   2.55508793421422     -1.59152519918801     -0.25158987717388
  O   1.75830273027471     -0.78836809667913      1.61622845973163
  C   1.11959655073029      1.31082173877079     -0.32983646872344
  H   1.05872635845724      1.68624466377848      0.69027491988321
  H   0.46031455283257      1.90459624739990     -0.96329842448741
  H   2.14036655207583      1.42456403553708     -0.70222240979276
