18
Coordinates from ORCA-job run
  C   -0.67247594988628     -0.52330587201507     -0.03121976996685
  C   0.83493555069288     -0.24918264004840     -0.18209739125499
  Br  -1.14064991773245     -1.55404438048608     -1.75002751625841
  H   1.34176120412345     -1.19911289075148     -0.35921143977559
  N   -0.89067657546413     -1.29813707005144      1.12111156696501
  H   -0.32721113456936     -2.13823321242718      1.15887633643904
  H   -1.86638631242144     -1.52414980721699      1.25990963689678
  C   -1.56109061776146      0.70354303656915     -0.03135586801995
  H   -1.46696221258663      1.26703239322177     -0.95772385473353
  H   -2.60499464294978      0.39943838843835      0.07106981505157
  H   -1.28735639315983      1.33719463286537      0.81428026099113
  N   1.34537646335749      0.18669354934354      1.16828797821937
  O   1.96678123174008     -0.64831072196167      1.82140065516527
  O   1.09998610462074      1.33634292299726      1.52489026623899
  C   1.22670307795534      0.78632524380232     -1.21561864396641
  H   0.86070396962439      0.49122765606415     -2.19853629008780
  H   0.82736337420181      1.76496386538674     -0.95398290099189
  H   2.31519278021518      0.86271490626966     -1.26105284091174
