18
Coordinates from ORCA-job run
  C   -0.67364598508775     -0.47748803313127      0.05388308152028
  C   0.74437467777014     -0.07092255667281     -0.36476216611452
  Br  -0.74552562584155     -2.50982231896554     -0.23833578733667
  H   0.88842204462375     -0.35106617967358     -1.40842663881562
  N   -0.98086321456054     -0.10251986109238      1.37306715180360
  H   -1.92434754255500     -0.36266502155591      1.62821088146120
  H   -0.31550289586751     -0.46672836185910      2.04283552132337
  C   -1.70153341789710      0.08444837940205     -0.91507695601546
  H   -1.73895009871479      1.17142299378475     -0.81618157718216
  H   -2.68889120052135     -0.31651904888132     -0.67860237509378
  H   -1.46571999722141     -0.18831928279148     -1.94390934004108
  N   1.79242119691542     -0.85625844762024      0.36884898496654
  O   1.74210956157563     -0.85711788213504      1.59909400348299
  O   2.65916195179487     -1.40017627378331     -0.30679893995111
  C   1.04460715125869      1.40387278250322     -0.13461442238062
  H   2.06945864979538      1.61930496715045     -0.44574914351726
  H   0.92030603538271      1.65880634853403      0.91648734057014
  H   0.37311870915040      2.02374779678749     -0.72896961867984
