18
Coordinates from ORCA-job run
  C   -0.70102557981083     -0.58455302871288     -0.11673586183582
  C   0.81273174162243     -0.26040788637436     -0.22020961382576
  Br  -1.08924150917972     -1.58903788267249     -1.79404131422270
  H   1.34529788307225     -1.19528709370060     -0.40156678725444
  N   -1.03312590148508     -1.44735872727180      0.97534681733994
  H   -1.16810504313748     -0.92139448364735      1.83003587033593
  H   -0.34345232122943     -2.17354700560739      1.12349869318646
  C   -1.60264101216061      0.63481609076396     -0.09113489110528
  H   -1.35646796340861      1.25751482328875      0.77309516674278
  H   -1.49549530235438      1.23392761315032     -0.99371963232619
  H   -2.63746226407094      0.29998673732494     -0.01396990697278
  N   1.26332300556292      0.14355659984396      1.15687750814097
  O   1.84132987477871     -0.71096954915923      1.82819468633810
  O   0.99030335925427      1.28064004355766      1.54030528161473
  C   1.21313882632603      0.81143670978879     -1.21294102121631
  H   2.30112944854388      0.90467184502235     -1.23997709231242
  H   0.86718042594976      0.53838640636298     -2.20967326789855
  H   0.79358233172682      1.77661878804239     -0.93338463472865
