18
Coordinates from ORCA-job run
  C   -0.56556005732736     -0.29936673664982      0.42870767087243
  C   0.59893840233528      0.44970516859789     -0.24879743835712
  Br  0.07818297127932     -1.86647048960719      1.42203632669089
  H   0.16839969618548      1.39032400292736     -0.60580815476099
  N   -1.08921093362876      0.62563475290633      1.42463904171391
  H   -1.71939287303783      0.13491726005486      2.04895370414429
  H   -1.62448589943633      1.34577967618120      0.94641426844657
  C   -1.60174984114639     -0.79282564264808     -0.57329888666620
  H   -1.20074370933846     -1.55270867213548     -1.24503560656104
  H   -1.95323971053608      0.05066365963782     -1.17651008415564
  H   -2.44837263587279     -1.22216669374004     -0.03479347912449
  N   0.99017777108902     -0.25515502543932     -1.51248495784904
  O   1.75127217137142     -1.21479353506477     -1.41989745074010
  O   0.49124612238238      0.16319213518126     -2.55827956665232
  C   1.81160483219688      0.70900261887977      0.61684069213604
  H   1.47919767611194      1.14519367829363      1.55834642074788
  H   2.48555582016968      1.40616005781409      0.11372113380704
  H   2.34718019720261     -0.21708621518950      0.81424636630790
