18
Coordinates from ORCA-job run
  C   -0.70690685175254     -0.13949687806389      0.25047355513989
  C   0.66328987470032      0.20135378780373     -0.36829590031077
  Br  -0.40311089204145     -0.84197199988906      2.12965834012625
  H   0.45713630187815      0.39651034581760     -1.42437981927758
  N   -1.47928484349041      1.05362441188979      0.25345105535046
  H   -1.11106357119367      1.74638262490334      0.89265377323310
  H   -2.43808384244166      0.85721117455036      0.51368376336527
  C   -1.45808356723764     -1.23138768982312     -0.49041494331197
  H   -1.60839492618633     -0.91661399159183     -1.52645667454033
  H   -2.43118819207323     -1.38480841054488     -0.01871966191555
  H   -0.91931028778917     -2.17488826761329     -0.48097863272101
  N   1.55450810284829     -1.00916602702034     -0.38890945906672
  O   1.32959408015813     -1.83768848529452     -1.27191360385275
  O   2.43953159130303     -1.09329679048479      0.45746115891824
  C   1.38782313173866      1.37273200376957      0.26129055691126
  H   0.83833223218961      2.29270102516412      0.05676901305360
  H   2.38083034204745      1.47469240754429     -0.17787307343621
  H   1.50538131734246      1.23511075888293      1.33550055233484
