18
Coordinates from ORCA-job run
  C   -0.68118593315296     -0.60929210766721     -0.10674631786529
  C   0.81503853214726     -0.22487960420761     -0.25006779878634
  Br  -1.08273019472262     -1.59512303870573     -1.79311314216086
  H   1.37712493923545     -1.13450551261627     -0.46724024522027
  N   -0.94535943778594     -1.50465587448383      0.97707910910263
  H   -0.22105370896398     -2.20201561808566      1.09492318332716
  H   -1.08245846684573     -0.99992541741218      1.84405379342139
  C   -1.62803677585506      0.57313773998414     -0.02963035334012
  H   -1.37841643288489      1.18915194554690      0.83837297158435
  H   -2.64622294869989      0.19669955310298      0.07307457407796
  H   -1.57335610732221      1.19192602322858     -0.92353553072709
  N   1.29264441493684      0.17019185115864      1.12069347965451
  O   1.92353119411247     -0.67347863505128      1.75696320380864
  O   0.98788714236912      1.28835172982853      1.53441406904617
  C   1.14347141387783      0.88040787537776     -1.23250454454225
  H   0.69214611624224      1.82212262726923     -0.92395247815351
  H   0.78244369966463      0.61107536747389     -2.22486559199282
  H   2.22553255364746      1.01981109525910     -1.28591838123427
