18
Coordinates from ORCA-job run
  C   -0.70086689472925     -0.41333749672025      0.14939946962736
  C   0.71532522790737     -0.17367242742649     -0.38715605814208
  Br  -0.92797509652603     -2.45680471797889      0.13645234140874
  H   0.77944448363487     -0.59741455654398     -1.38956362026520
  N   -0.90600193853781      0.15218189806617      1.41901697223434
  H   -0.22918786626794     -0.16931440093795      2.09907997617746
  H   -1.84878301156567      0.00029240172624      1.75222105576059
  C   -1.74180243312021      0.09161949802866     -0.83670574779780
  H   -2.73899124982948     -0.19927887330419     -0.50111719777788
  H   -1.58447768490397     -0.33134094066877     -1.82907517431993
  H   -1.69956493491548      1.18193313674597     -0.88426855615571
  N   1.74782091700838     -0.93424540689893      0.39362957683194
  O   1.76751913098350     -0.77260332137612      1.61411015318590
  O   2.53559936912494     -1.62396613646065     -0.24439509673663
  C   1.12989718071156      1.29127057665407     -0.37069951866824
  H   1.08921352009167      1.68775465751188      0.64244841450716
  H   2.14587584947870      1.38626500510431     -0.76103231616828
  H   0.46695543145485      1.87966110447893     -1.00534467370175
