18
Coordinates from ORCA-job run
  C   -0.72311898602269     -0.52553896810880      0.11315211202162
  C   0.70654015077515     -0.20033509588635     -0.38059835826758
  Br  -0.88870309494483     -2.50669316404028     -0.00759117465739
  H   0.81979276728687     -0.56272267114084     -1.40312407128915
  N   -1.05759527206681     -0.13828306314513      1.44533375151431
  H   -1.34094189174859      0.83187427455420      1.48706890391181
  H   -0.30187193934182     -0.31756736732943      2.09341273849693
  C   -1.74513719676041      0.05487032073983     -0.85263240182537
  H   -2.73892010050876     -0.28087722337384     -0.55624973584656
  H   -1.72449350809458      1.14837128394121     -0.81574788876826
  H   -1.55372609779881     -0.26891684581464     -1.87608961406688
  N   1.73962156938670     -0.96323787591454      0.39227494477547
  O   2.50367186915814     -1.68431454075197     -0.24095606242840
  O   1.77290327783415     -0.78558477412036      1.61104245263368
  C   1.05998652478327      1.27490682953547     -0.26906834328707
  H   0.96251542631214      1.61625135451888      0.76152949182551
  H   2.09231352612573      1.43228939200134     -0.58940453078070
  H   0.41616297562515      1.87550813433526     -0.91235221396196
