15

C	-0.299334	-0.055051	-1.502523
C	0.0	0.0	0.0
Br	-2.24237	-0.382163	-1.823355
H	1.098331	0.0	0.0
C	-0.054636	1.262824	-2.112043
N	0.164868	2.252556	-2.708335
N	0.455699	-1.131137	-2.06442
H	0.432866	-1.104817	-3.076654
H	1.422625	-1.04797	-1.739208
C	-0.448627	-1.231448	0.659578
N	-0.839548	-2.155126	1.272408
N	-0.489024	1.215261	0.612575
H	0.177677	1.524895	1.307793
H	-1.390133	1.072154	1.048975
Cl	3.238294	0.0	0.0
