15

C	-0.571876	-0.010146	-1.433813
C	0.0	0.0	0.0
Br	0.371648	1.477629	-2.438045
H	1.095081	0.0	0.0
C	-0.241926	-1.228853	-2.169662
N	-0.060039	-2.214219	-2.783529
N	-1.971836	0.176143	-1.379067
H	-2.143257	0.981482	-0.783217
H	-2.372975	0.309306	-2.297818
C	-0.491076	-1.187273	0.700071
N	-0.877731	-2.118873	1.302564
N	-0.490139	1.221212	0.668669
H	-0.732605	1.005849	1.62758
H	0.29262	1.866531	0.6964
Cl	3.257306	0.0	0.0
