15

C	-0.256655	0.04322	-1.5407
C	0.0	0.0	0.0
Br	-0.023032	-1.825071	-2.31556
H	1.097326	0.0	0.0
C	-1.643549	0.387584	-1.858355
N	-2.762352	0.688954	-2.057618
N	0.645521	0.986634	-2.071239
H	0.603735	1.04644	-3.080054
H	1.598437	0.783785	-1.753255
C	-0.588555	-1.16787	0.647426
N	-1.114045	-2.054504	1.210197
N	-0.433662	1.204982	0.678353
H	-1.400965	1.423824	0.465933
H	0.156386	1.970167	0.379371
Cl	3.279277	0.0	0.0
