13

C	0.0	0.0	0.0
C	-0.553226	-0.32926	-1.377679
F	1.393943	0.0	0.0
H	-1.64918	-0.260851	-1.288745
H	-0.318387	1.009533	0.270721
H	-0.299521	-1.360809	-1.644294
C	-0.478003	-0.997443	1.028846
H	-1.570249	-0.996083	1.046233
H	-0.095856	-0.723063	2.014763
H	-0.107266	-1.995	0.776553
C	-0.083538	0.56533	-2.433674
N	0.281728	1.258176	-3.307607
Cl	-3.753354	0.0	0.0
