13

C	0.0	0.0	0.0
C	-0.494968	0.159101	-1.428416
F	1.391163	0.0	0.0
H	-0.17581	-0.70725	-2.017949
H	-0.323473	0.858585	0.593816
H	-1.593217	0.18606	-1.399913
C	-0.467748	-1.292935	0.622411
H	-0.10065	-2.136742	0.030057
H	-1.55814	-1.308919	0.663407
H	-0.057253	-1.379541	1.631658
C	0.040564	1.367166	-2.051985
N	0.487613	2.335418	-2.54175
Cl	-3.724812	0.0	0.0
