13

C	0.0	0.0	0.0
C	-0.357151	-0.190921	-1.487624
F	1.391741	0.0	0.0
H	0.215513	0.564548	-2.037684
H	-0.391972	0.964342	0.335731
H	-1.41467	-0.04986	-1.713542
C	-0.316272	-1.142392	0.964837
H	-1.36057	-1.360782	1.153399
H	0.177773	-0.904324	1.913409
H	0.174394	-2.041782	0.58008
C	0.085189	-1.498697	-2.006825
N	0.398954	-2.543457	-2.452381
Cl	-3.3283	0.0	0.0
