13

C	0.0	0.0	0.0
C	-0.214381	-0.257205	-1.508889
F	1.394014	0.0	0.0
H	0.519228	0.393277	-1.995005
H	-0.384628	0.969933	0.310313
H	0.13626	-1.27995	-1.685308
C	-0.404275	-1.128814	0.921064
H	-0.036678	-0.918228	1.932217
H	0.092764	-2.040922	0.574927
H	-1.482386	-1.265043	0.937367
C	-1.450006	-0.081734	-2.272465
N	-2.134203	0.019992	-3.221862
Cl	-3.403927	0.0	0.0
