12
Coordinates from ORCA-job run
  C   0.75323286047462     -0.29574443774445      0.69069161909264
  C   -0.32600690917041     -0.27845151812944     -0.39377774379066
  F   0.30095219353829      0.44879783107918      1.76340620754745
  H   0.06587224807773     -0.82253029358018     -1.25984938592390
  H   0.93716821821139     -1.31416309209172      1.04461184017095
  C   2.00199607238032      0.28425388605981      0.18034125613106
  N   3.02092970715300      0.69852881511614     -0.22717839312101
  N   -0.57115954075726      1.09515241891187     -0.78138845693558
  H   -1.18257560874253      1.13999503519494     -1.58597838992025
  H   -1.00452144936004      1.60030494138795     -0.01856735461008
  C   -1.51315803617045     -1.00649297736709      0.10458797804017
  N   -2.48272975563465     -1.55065060883698      0.48310082331922
