12
Coordinates from ORCA-job run
  C   0.98486829727810      0.24838991383645      0.09482328149576
  C   -0.44002150269717     -0.23430836049711     -0.19143913999450
  F   1.76822440049012     -0.11876534937646     -0.98539716593618
  H   -0.40785279854763     -1.33375344519395     -0.24289156501816
  H   0.99078365028176      1.33892408072117      0.16443586528039
  C   1.53165833638277     -0.35650892529141      1.31498460183743
  N   1.96356497058965     -0.84795474726938      2.28940559390694
  N   -0.88615799791783      0.42267892059384     -1.41155019206710
  H   -1.85879898849352      0.20688279372047     -1.59169068438511
  H   -0.33475839674939      0.08156975782398     -2.18950709871685
  C   -1.30628145882043      0.14443671567920      0.92887693134093
  N   -2.00522851179643      0.44940864525320      1.82094957225643
