12
Coordinates from ORCA-job run
  C   1.06094145273133     -0.46547438934097      0.06850659111199
  C   -0.37694141741452     -0.38191727366334     -0.45406854780288
  F   1.26908579526937     -1.69061224396358      0.65924976917553
  H   -0.47894377939656     -1.17546487694426     -1.20058573936078
  H   1.73899618239859     -0.35877289347064     -0.78118244014545
  C   1.31726065696504      0.60929888665053      1.03770932580347
  N   1.48684902791773      1.49589712835830      1.78797284708853
  N   -0.54116534482786      0.90203666806655     -1.11170001810797
  H   -1.36166844351031      0.89414111789135     -1.70383529920216
  H   -0.65826645811283      1.64031251895896     -0.42669224166538
  C   -1.33346396326880     -0.65491073509094      0.63586265855510
  N   -2.12268370875118     -0.81553390745195      1.49076309454999
