12
Coordinates from ORCA-job run
  C   0.71928771845202     -0.29163089023728      0.64737484044819
  C   -0.45053277926768     -0.33525082764075     -0.35770708559220
  F   0.34593718592896      0.49900204224957      1.71519701882568
  H   -0.13380674157251     -0.94622891604942     -1.21081938254115
  H   0.95878202845171     -1.28847669091913      1.02929147043872
  C   1.89761945444823      0.29640392100783     -0.00365058431236
  N   2.81053632705281      0.75973006077316     -0.57758926968677
  N   -0.87789290469838      0.95609593201107     -0.85038539926298
  H   -1.06991819425832      1.58257695970011     -0.07851668853302
  H   -0.16722673006330      1.36722335543431     -1.44289794590726
  C   -1.57684740116260     -1.02129410433429      0.29366196228661
  N   -2.45493796331095     -1.57815084199516      0.83704106383652
