12
Coordinates from ORCA-job run
  C   0.86978671198117     -0.25917126452959      0.61772657217796
  C   -0.47451633982452     -0.28651099412693     -0.12864797902055
  F   0.82730902573526      0.65135966937629      1.63955418702398
  H   -0.43059593426962     -1.13539507884653     -0.83031302970165
  H   1.08159352599529     -1.24500439315314      1.04398959808538
  C   1.93227811459381      0.10070626719807     -0.33349907632653
  N   2.74490636029668      0.35611307584568     -1.14064477539914
  N   -0.70950797361774      1.00421708277379     -0.75750812087575
  H   -1.69574049412632      1.15678919610714     -0.91989125437394
  H   -0.22489430244690      1.05398926009353     -1.64523426899573
  C   -1.53356175190944     -0.57573994325727      0.84398563129029
  N   -2.38705694240767     -0.82135287748103      1.61048251611568
