13
Coordinates from ORCA-job run
  C   -0.71631446401994     -0.38394248490047      0.30392447339653
  C   0.71768764218028     -0.01053449532484     -0.09934538475918
  H   -0.75139892036756     -1.43487904808708      0.59702092885323
  H   0.99440969310110     -0.63001539519697     -0.95665353950601
  H   -1.09382530015272      0.25462267944620      1.10146872561997
  N   -1.63908182269789     -0.23334849277703     -0.85906890640282
  O   -1.33652411647224     -0.86593256663085     -1.86937883701110
  O   -2.61290547733430      0.50200986459325     -0.72848301310538
  N   1.70433860198247     -0.21185022462608      0.94765521866866
  H   1.45638907004646      0.29476782909232      1.78876188081354
  H   1.79263214290158     -1.19588572941276      1.16781199295645
  C   0.74768748079277      1.39312177995762     -0.53562244762561
  N   0.73690547003998      2.52186628386668     -0.85709109189828
