13

C	-0.534771	0.046642	-1.435002
C	0.0	0.0	0.0
Br	0.315764	1.499475	-2.433266
H	1.094208	0.0	0.0
H	-1.599944	0.294703	-1.444455
C	-0.329325	-1.19577	-2.171977
N	-0.1982	-2.183473	-2.794148
C	-0.505138	-1.200861	0.650737
N	-0.904348	-2.165493	1.195235
N	-0.395551	1.222853	0.703345
H	-1.10026	1.04497	1.407482
H	0.441053	1.567237	1.157975
F	2.526488	0.0	0.0
