13

C	-0.332104	-0.017312	-1.471113
C	0.0	0.0	0.0
Br	-2.289339	-0.045199	-1.852725
H	1.103423	0.0	0.0
H	0.05295	-0.927776	-1.933904
C	0.219071	1.147894	-2.152654
N	0.631504	2.068091	-2.754257
C	-0.479672	-1.208188	0.654316
N	-0.856257	-2.180215	1.200759
N	-0.415469	1.239487	0.633557
H	-1.28127	1.141202	1.147006
H	0.323302	1.523967	1.263745
F	2.504039	0.0	0.0
