13

C	-0.443017	0.010007	-1.474821
C	0.0	0.0	0.0
Br	0.284143	1.578452	-2.402867
H	1.095237	0.0	0.0
H	-1.529181	0.116454	-1.573938
C	-0.028841	-1.185079	-2.20027
N	0.259549	-2.146683	-2.810714
C	-0.561361	-1.203756	0.604635
N	-1.029984	-2.173447	1.078513
N	-0.398866	1.178083	0.750991
H	0.3649	1.838849	0.681417
H	-1.24536	1.606603	0.393938
F	2.524794	0.0	0.0
