13

C	-0.329729	0.006823	-1.472998
C	0.0	0.0	0.0
Br	-2.283975	-0.037701	-1.859638
H	1.096747	0.0	0.0
H	0.068243	-0.890203	-1.950711
C	0.210123	1.191486	-2.129254
N	0.641569	2.137495	-2.675308
C	-0.480095	-1.219193	0.633837
N	-0.866661	-2.184761	1.184647
N	-0.419835	1.225968	0.655821
H	-1.278287	1.114477	1.179152
H	0.325438	1.507569	1.278815
F	2.506774	0.0	0.0
