13

C	-0.563268	0.077553	-1.422082
C	0.0	0.0	0.0
Br	0.325391	1.500017	-2.430484
H	1.094126	0.0	0.0
H	-1.615399	0.375162	-1.39801
C	-0.436774	-1.167023	-2.172289
N	-0.383451	-2.170724	-2.781254
C	-0.515251	-1.196795	0.649655
N	-0.957817	-2.13248	1.211142
N	-0.371896	1.221493	0.72579
H	-1.041289	1.032646	1.461138
H	0.48525	1.560798	1.147821
F	2.527199	0.0	0.0
