14

C	-0.486363	-0.047698	-1.443381
C	0.0	0.0	0.0
Br	0.207447	1.523523	-2.437502
H	1.093391	0.0	0.0
H	-0.353412	0.943298	0.430523
C	-0.038505	-1.251925	-2.147913
N	0.250358	-2.236634	-2.721537
C	-1.946264	0.023638	-1.534058
N	-3.121899	0.071438	-1.548368
C	-0.486499	-1.19947	0.803475
H	-1.576943	-1.265122	0.880113
H	-0.103385	-2.129346	0.374879
H	-0.06972	-1.120134	1.810941
H	2.825206	0.0	0.0
