14

C	-0.485333	0.032908	-1.444856
C	0.0	0.0	0.0
Br	0.21281	-1.54427	-2.424866
H	1.093373	0.0	0.0
H	-0.353092	-0.939079	0.439476
C	-1.945167	-0.044081	-1.534915
N	-3.120414	-0.09817	-1.547981
C	-0.037483	1.231243	-2.160885
N	0.305145	2.182236	-2.760392
C	-0.488177	1.206695	0.790555
H	-1.579236	1.270279	0.868091
H	-0.109812	2.133255	0.350508
H	-0.069283	1.141355	1.798707
H	2.829013	0.0	0.0
