14

C	-0.487111	-0.032575	-1.444297
C	0.0	0.0	0.0
Br	0.296258	-1.579848	-2.428442
H	1.093422	0.0	0.0
H	-0.317256	0.968225	0.408137
C	-1.938638	-0.194913	-1.540364
N	-3.108495	-0.320217	-1.558908
C	-0.09885	1.1758	-2.172899
N	0.19518	2.146705	-2.767041
C	-0.519869	-1.147939	0.849366
H	-0.219411	-2.107996	0.423028
H	-0.052586	-1.076543	1.834007
H	-1.606638	-1.140922	0.974091
H	2.808158	0.0	0.0
