14

C	-0.487639	-0.023401	-1.444038
C	0.0	0.0	0.0
Br	0.302428	-1.55889	-2.440999
H	1.093521	0.0	0.0
H	-0.317064	0.965153	0.415338
C	-1.937942	-0.193818	-1.540528
N	-3.107042	-0.323747	-1.558162
C	-0.10789	1.193411	-2.162882
N	0.177653	2.17293	-2.747394
C	-0.51917	-1.154113	0.840866
H	-1.605318	-1.144566	0.971654
H	-0.045713	-1.094154	1.823246
H	-0.225135	-2.111176	0.403716
H	2.805965	0.0	0.0
