16
Coordinates from ORCA-job run
  C   0.74108987817869      0.36678904068284      0.11458162059595
  C   -0.70891729531059      0.26408386587824     -0.39823212274336
  Cl  0.90046743322348      2.15178939838778      0.62737371604375
  H   -0.78239241014267      0.84021962590804     -1.32753961101266
  N   0.87668549010310     -0.52662410602169      1.19709444825359
  H   0.13392405480602     -0.38274827890491      1.87279219154973
  H   1.78478200973980     -0.46228432685979      1.63771677527654
  N   1.70273913971361      0.22869968738009     -0.93793434102488
  H   2.61499311452331      0.52957177180273     -0.61867322747269
  H   1.73857504048882     -0.74023709501750     -1.22890209868092
  N   -1.63455937249015      0.59084213573603      0.65361908240094
  H   -2.52220454200095      0.13389487788775      0.49380412752482
  H   -1.76420220744903      1.59208280227723      0.69542759241478
  N   -0.96372926976711     -1.17581258859384     -0.81353798089974
  O   -0.22943093297219     -1.62989078713411     -1.68388102326037
  O   -1.88882013064413     -1.78037602340888     -0.28270914896548
