16
Coordinates from ORCA-job run
  C   0.74657904322770      0.28978705214723      0.15437749164997
  C   -0.72933632660318      0.38496684274269     -0.28196922439603
  Cl  1.22648636125798      2.12206468215808      0.40023763609942
  H   -0.86150554178737      1.19575233067652     -0.99591324867341
  N   0.84681370163624     -0.40284515724542      1.38338941838275
  H   1.77270042091791     -0.78029719939540      1.53031510011502
  H   0.57833236488467      0.18784800034435      2.15814380089979
  N   1.55629514822672     -0.31151652225864     -0.82690818750809
  H   1.36280542817011      0.03366470599333     -1.75718779616238
  H   2.53879981242569     -0.18985512064077     -0.61879709103631
  N   -1.56888539082654      0.53249874692242      0.84518862671555
  H   -1.60985873545230     -0.34632552888481      1.34764067959113
  H   -2.50200861075402      0.81290306612095      0.57709037147167
  N   -1.04301752643095     -0.87597592540136     -1.10173680576268
  O   -1.49828931331813     -1.84469102316917     -0.50578507610893
  O   -0.81391083557452     -0.80797895010999     -2.30808569527747
