16
Coordinates from ORCA-job run
  C   0.59757451462284      0.18401498977790      0.34885222566435
  C   -0.71463256012484     -0.07490665722195     -0.43570669572499
  Cl  0.21423424242513      0.70703893712411      2.02619019202326
  H   -0.41934154006968     -0.23187880596197     -1.47688724935250
  N   1.36256170077745     -1.01803394025932      0.43022262790953
  H   2.30874755642760     -0.84771921903447      0.74226565977227
  H   1.34559638592128     -1.55588810682894     -0.42659215802469
  N   1.18718282062888      1.35144205734236     -0.30118167588973
  H   1.81272563354422      1.83352696160325      0.33294351423826
  H   1.72356817240749      1.03726111817290     -1.10342909016697
  N   -1.72749812427418      0.92739286614242     -0.37086101495511
  H   -1.30886530753188      1.80671896361996     -0.65079221341615
  H   -2.05203120671831      1.01304420857096      0.58510024179374
  N   -1.30320324453589     -1.38499128923929     -0.00738328849003
  O   -2.07436760636587     -1.36807938488663      0.94468475736752
  O   -0.95025143713425     -2.37994269892129     -0.63842583274877
