16
Coordinates from ORCA-job run
  C   0.73604313898244      0.14538680532625      0.38343311781590
  C   -0.49969259182909     -0.10744348828140     -0.51574186049442
  Cl  0.01181758358030      0.77239926757146      1.98683861046974
  H   -0.13883505123754     -0.62353328934197     -1.40931888457318
  N   1.52890086519981     -1.00598102440410      0.52842004150804
  H   1.00516646476086     -1.81188609666907      0.83849511131662
  H   2.30687167842035     -0.81003514821394      1.14507335154970
  N   1.57814221096551      1.19380121576445     -0.09642978254984
  H   1.02210728838295      1.99824468217350     -0.35662278943914
  H   2.07618608159030      0.84899624552770     -0.90922904166247
  N   -1.14972184592220      1.10247264430492     -0.85378063397944
  H   -1.82854638413134      0.95899923932942     -1.58864516943213
  H   -1.62709052701548      1.48463459541828     -0.04637337055169
  N   -1.44545874756026     -1.12897872060222      0.14316241600508
  O   -0.99632142451236     -2.25775742740425      0.33500035042878
  O   -2.58156873967425     -0.76031950049900      0.41371853358843
