16
Coordinates from ORCA-job run
  C   0.80619678506179      0.11169259942020     -0.04186437888698
  C   -0.61359354509176     -0.06596679130645     -0.61722393332291
  Cl  1.79203853221395      0.73736240509892     -1.55366775663505
  H   -0.56746116720101     -0.52602607359052     -1.60253835216298
  N   0.80166328019493      1.09940918295491      0.97068864339674
  H   1.58942064877872      1.00359163069607      1.59636248793622
  H   0.77418834032754      2.02895980474666      0.57532222262500
  N   1.34251486037385     -1.09662593327604      0.44023467776487
  H   2.33292471431966     -1.01029394482355      0.62779809703684
  H   1.18436646643611     -1.87178024287138     -0.18924194153481
  N   -1.29341430409475      1.17212066968575     -0.64364325813717
  H   -2.13288218380881      1.12205943743077     -1.20399451932123
  H   -1.53255657801203      1.44135904304213      0.30331467749880
  N   -1.32395823482399     -1.12239858813642      0.24355423480387
  O   -1.98629199218401     -0.72964637222502      1.19636864325038
  O   -1.17315562249019     -2.29281682684603     -0.10246954431159
