16
Coordinates from ORCA-job run
  C   0.90251635378795     -0.04881059261460     -0.11552282813450
  C   -0.59235397445138      0.11313520540127     -0.48119046299037
  Cl  1.74558717034832     -0.93169139091647     -1.41711733081291
  H   -0.66267255144268      0.67668632225773     -1.41161131633352
  N   1.54936412274041      1.24311875648248     -0.00658775636503
  H   1.64128895937254      1.68084955774608     -0.91658913353680
  H   0.96414645846586      1.83108337126189      0.57946226820468
  N   0.99738015726074     -0.82221970438209      1.09120640069918
  H   1.98193663451736     -0.95365957369300      1.29720998602788
  H   0.60509674238162     -0.27611426396747      1.85187264394809
  N   -1.25718608361285      0.78477729576464      0.59625233347628
  H   -1.55241846950373      0.09022641942210      1.27513706045831
  H   -2.08584514968720      1.26023869005374      0.26278421503740
  N   -1.24853647659795     -1.22551286113992     -0.79195978073523
  O   -1.23320784834791     -1.59195732977169     -1.96310823685199
  O   -1.75609604523109     -1.83014990190466      0.14876193790855
