16
Coordinates from ORCA-job run
  C   0.84694036204375      0.08346481990298     -0.07356702170949
  C   -0.65082433033849      0.00502753301821     -0.44915336684847
  Cl  1.73762990219707     -0.82569540779450     -1.38317369071612
  H   -0.79966609026626      0.44415496372755     -1.44237779339901
  N   1.17330809572493      1.47085477900125     -0.03146820795773
  H   2.10817441720825      1.56917680432113      0.34684617627051
  H   1.13306974960270      1.89331497790530     -0.95110008129257
  N   1.23682142675678     -0.48605288948297      1.18053638957630
  H   0.62524155328784     -0.10169833870295      1.89431954006871
  H   1.07993290935920     -1.48565518194799      1.16257172142980
  N   -1.41590314156548      0.57356931172490      0.62557728253011
  H   -1.02330606159064      1.48452307290799      0.83502481469535
  H   -2.38593440612068      0.68752018741107      0.35649805612640
  N   -1.09981737518933     -1.42172817526252     -0.63909668764664
  O   -0.91071733224164     -2.21512671195633      0.27709303820298
  O   -1.65294967886800     -1.67664974477310     -1.70753016933014
