16
Coordinates from ORCA-job run
  C   0.62307546760074      0.22600427148272      0.27247640542807
  C   -0.74701998829437     -0.12952751209888     -0.36079116203481
  Cl  0.37212428556158      0.94406032766654      1.90384851247692
  H   -0.53744479104892     -0.40908343366797     -1.39699340887387
  N   1.41027762858239     -0.95275172650739      0.42679174635886
  H   1.30944073686090     -1.60352138581050     -0.34091847141237
  H   2.38084142650476     -0.74508307404148      0.61629679710000
  N   1.13922652350329      1.31129133559443     -0.55752989043112
  H   1.79903138370440      1.87579049383955     -0.03644250630918
  H   1.62059380661954      0.90727923455076     -1.35429430924661
  N   -1.76413261631777      0.86986599226955     -0.33080907090204
  H   -2.00601625133223      1.07206725005735      0.63204329756345
  H   -1.38332601140173      1.70915824938042     -0.75194220911043
  N   -1.28019163912984     -1.38055671812018      0.26984334594541
  O   -0.96429859060040     -2.44351595501662     -0.26256097736153
  O   -1.97318137081235     -1.25147734957829      1.27198190080926
