16
Coordinates from ORCA-job run
  C   0.76459197344808      0.38485459120340      0.13920138490382
  C   -0.71584440153140      0.23957712828371     -0.28513005769383
  Cl  0.87981261176179      2.20396462490488      0.56689054159427
  H   -0.92273901542798      0.89399491165031     -1.13849366561508
  N   1.16333618311072     -0.32215974804330      1.30722036298114
  H   0.50471599136334     -0.14321548945874      2.05551817501350
  H   1.13239720940748     -1.31377720086273      1.09464171181169
  N   1.60090744435681      0.00834061408164     -0.92434847014719
  H   1.41087129475365      0.50919615767464     -1.78179449302000
  H   2.57261266637311      0.10559539515966     -0.65960215990862
  N   -1.58399105617200      0.38045083154028      0.85061353162823
  H   -1.53844762412818      1.33789740555539      1.17806947541931
  H   -2.54237197831217      0.17986296975172      0.59126016756712
  N   -0.87735107221044     -1.14817460196167     -0.85161327111747
  O   -0.98621192919593     -1.22312089058857     -2.07378366861518
  O   -0.86328829759689     -2.09328669889064     -0.06964956480171
