16
Coordinates from ORCA-job run
  C   0.63584049486571      0.51427452436101      0.21182926196979
  C   -0.78068888652821      0.23903011706046     -0.35128951747902
  Cl  0.67108637595032      2.30427720080696      0.47196255518899
  H   -0.95960104413085      0.88914365598964     -1.20734868005991
  N   0.76819115280331     -0.11931236366648      1.48795535140396
  H   1.69595385719162      0.05646506505771      1.85441749961403
  H   0.61213361921439     -1.11751320770998      1.39351072567252
  N   1.72308875724774      0.21257799774123     -0.68107036095550
  H   1.61021298958466      0.64580985356247     -1.58995942819516
  H   1.82411924181084     -0.78972675014231     -0.78767742553438
  N   -1.82691969118258      0.28306014408863      0.60204081546377
  H   -1.45396777182299      0.29352189851468      1.54241953663506
  H   -2.44424131149481      1.06459467313883      0.44990774117164
  N   -0.71863140985727     -1.15076104804303     -0.97796362451181
  O   -0.82657805338043     -1.22420716059739     -2.19918874176214
  O   -0.53299832027144     -2.10123460016244     -0.21954570862183
