16
Coordinates from ORCA-job run
  C   0.68941963540622      0.39575894109026      0.19409193606267
  C   -0.75921146727963      0.40624411763889     -0.33953724626935
  Cl  1.05930921340599      2.13763171521430      0.62105951752092
  H   -0.85759040293682      1.11218931403153     -1.16587805252333
  N   0.75329466192795     -0.34826390166849      1.42708241462439
  H   0.90875462957416     -1.32615204882219      1.21170918352528
  H   1.48666204211735     -0.00053214607688      2.02898397800140
  N   1.55796547098041     -0.12589813599653     -0.80058794343559
  H   1.45872676630339      0.34054577409416     -1.69446313297073
  H   2.52257499466874     -0.07929144081855     -0.49780281739078
  N   -1.67161578607879      0.66958414695062      0.69373390734718
  H   -2.63280266140431      0.63054306221016      0.38797646479777
  H   -1.49752204024291      0.05782729052088      1.48042482456952
  N   -0.95778857183338     -0.96128747051808     -1.01838746196675
  O   -1.18178219918937     -1.92112842395618     -0.28571570747342
  O   -0.87939428541900     -0.98977079389391     -2.24368986441918
