16
Coordinates from ORCA-job run
  C   0.75000881313463      0.04617672884382      0.20391814807591
  C   -0.72525599594120      0.08691221480412     -0.29976658179035
  Cl  0.84687851169870     -1.44572694317911      1.30602452162363
  H   -0.75795915957685      0.86877482443430     -1.06265560224750
  N   1.65534067844500      0.04501754652496     -0.86935027645393
  H   2.60624017025714     -0.01581537659920     -0.53013120819518
  H   1.45713769186142     -0.66329505654026     -1.56191590872566
  N   1.09866431066791      1.15019707877024      1.04796132263988
  H   1.07506514228139      2.00887527095375      0.51131793489691
  H   0.50809744705048      1.20941208912100      1.86523256335351
  N   -1.74311896587392      0.30412033086079      0.66507974099061
  H   -1.66989074779335     -0.32254005853672      1.45470428154690
  H   -1.78505143255994      1.26785480324784      0.95785229092570
  N   -1.04132419085349     -1.19656097503731     -1.04380878926529
  O   -1.79126644866727     -2.00197087783913     -0.51267670360926
  O   -0.48456582413063     -1.34143159982911     -2.13378573376589
