16
Coordinates from ORCA-job run
  C   0.86542793688964      0.10119132189573     -0.08936692487213
  C   -0.63439300653799      0.12180258459688     -0.45127577702176
  Cl  1.70107420316433     -0.74703419062618     -1.49229657263226
  H   -0.76828831670483      0.63814881567753     -1.40160456926648
  N   1.43183238818647      1.42051075044720     -0.02794373876312
  H   1.45107176050817      1.84392187138326     -0.94698845611828
  H   0.84733918147192      1.97803100808282      0.58633917373348
  N   1.06812832116254     -0.50907069797932      1.16580827360765
  H   2.03599163244796     -0.40345086743792      1.43995554590094
  H   0.77841884131474     -1.47743213355505      1.18257395101177
  N   -1.34940416686761      0.76579821181277      0.59345508399892
  H   -1.22477869601188      0.27212417823885      1.46802084002798
  H   -2.33040675495423      0.87944589233832      0.37590910702416
  N   -1.14904130833882     -1.28689624022595     -0.73789451656940
  O   -1.61446919457706     -1.49966353439796     -1.85319979822490
  O   -1.10750282115337     -2.09742697025100      0.18850837816344
