16
Coordinates from ORCA-job run
  C   0.74478701915090      0.50086024016392      0.12944100929625
  C   -0.69634194268419      0.23108834946835     -0.34596232940381
  Cl  0.73160638570528      2.27894238365731      0.50830870443080
  H   -0.88529762610586      0.83809169568605     -1.23915257207923
  N   1.14546716247128     -0.17420104748798      1.33031648037938
  H   0.41097571193601     -0.10718887141358      2.02713160422191
  H   1.28280450341134     -1.15366377173018      1.10932944335296
  N   1.64683225224356      0.32999760771589     -0.97369755868140
  H   1.73020452897127     -0.65858018987856     -1.17998983138119
  H   2.55741614866368      0.68131602436570     -0.70037972516904
  N   -1.64683657356537      0.37218174991888      0.73179155826140
  H   -2.57661071612699      0.17551995787772      0.38031657600525
  H   -1.63096909759232      1.33084159470049      1.05729888199594
  N   -0.87529853965134     -1.19553935471571     -0.82541473153311
  O   0.04905794615233     -2.00150790663420     -0.73232004682989
  O   -1.98679716297957     -1.44815846169410     -1.27801746286622
