16
Coordinates from ORCA-job run
  C   0.73057890620639      0.40754102742329      0.10373223382338
  C   -0.76326922948944      0.38993804289890     -0.29324978858010
  Cl  1.17724715019301      2.19590121300484      0.17717441894350
  H   -0.97208771798239      1.21685104965460     -0.96675961887471
  N   0.91279368245282     -0.23143585238540      1.35612885554661
  H   0.40663738472135      0.25617866223353      2.08588560624776
  H   1.89607639640871     -0.26991548407396      1.59373899710095
  N   1.52713955420450     -0.15285421939294     -0.95412532593347
  H   2.46500751559986      0.22352788596263     -0.94455986283120
  H   1.55992766549862     -1.16032200343552     -0.84123458883655
  N   -1.60348918218150      0.41210846259666      0.85369156013477
  H   -1.59174935756120     -0.49868396408185      1.29866062274341
  H   -2.55376398271852      0.65938166893325      0.61284397520121
  N   -0.99999582461872     -0.84568405751553     -1.15581576341634
  O   -0.94658340721883     -1.93393967389333     -0.58302956553770
  O   -1.24446955351467     -0.66759275792919     -2.34408175573154
