16
Coordinates from ORCA-job run
  C   0.82575958191297     -0.02091558963859     -0.18011406705614
  C   -0.66674606537794      0.13625729944972     -0.54078945354192
  Cl  1.63233614040063     -1.11686267647451     -1.34345475035209
  H   -0.74982367489416      0.65666273746898     -1.49384139253102
  N   1.38962787752721      1.29215354420198     -0.34648799119174
  H   0.84991589340315      1.94212956926257      0.21512147736908
  H   2.35979654290221      1.29781663084802     -0.05494332822032
  N   0.92442285122575     -0.61663237172627      1.14413868943286
  H   1.64315478871341     -1.32420383654966      1.19061391986719
  H   1.11989467589036      0.10311071140188      1.82721094746239
  N   -1.28110445378362      0.85912594990791      0.52292605788209
  H   -2.19980541745530      1.18858988265720      0.25561615879106
  H   -1.37252875928559      0.23390977018046      1.31676384252364
  N   -1.32492797417619     -1.21608952888674     -0.77686892841707
  O   -1.78882500978818     -1.79507685829851      0.20206173893284
  O   -1.36014699721472     -1.61797523380441     -1.93695292095085
