16
Coordinates from ORCA-job run
  C   0.67438653058444      0.50188043885154      0.18201464061874
  C   -0.74709102439723      0.39104033164053     -0.38679533084446
  Cl  0.92403370872600      2.23644835266525      0.54598589759391
  H   -0.84427589944625      1.06491899417369     -1.23713859828061
  N   0.75194900579553     -0.20735128372732      1.44356974754216
  H   1.57452855905378      0.08021436948116      1.95900856818967
  H   0.80413324946024     -1.20083920365584      1.24991966698911
  N   1.60910599766603      0.16918105520422     -0.87587917459213
  H   1.68552797823340     -0.83880319054271     -0.94788466173248
  H   2.52258909253505      0.55135457482533     -0.66510253041226
  N   -1.73204972857683      0.63718610937327      0.59082846666649
  H   -1.57056729163689      0.09514625268642      1.42853922998014
  H   -2.67324974800048      0.55120610701024      0.23606186341552
  N   -0.92034758720692     -0.99958700229891     -1.03108416070260
  O   -1.76994073389913     -1.07175476756414     -1.91302349476693
  O   -0.28873210889075     -1.95924113812274     -0.57902012966428
