16
Coordinates from ORCA-job run
  C   0.87290060756309      0.06228125090968      0.02770649156181
  C   -0.55759905336121      0.08986964186027     -0.54967894104690
  Cl  1.85659242052392     -0.96774315697194     -1.13675069674271
  H   -0.53057174481672      0.49792132750884     -1.55988742603113
  N   1.48804880645889      1.36135279399504      0.02765149972036
  H   0.84870751870750      2.00381743132954      0.48413871406379
  H   1.65830821435961      1.67543068353420     -0.91930869446688
  N   0.86607183435591     -0.40607053416316      1.35801203521831
  H   1.78894570087965     -0.29867385374050      1.75777872215188
  H   0.53205754303659     -1.35682442929907      1.43795444807455
  N   -1.38169853376449      0.87114235548454      0.30339341558690
  H   -2.31590070138290      0.98947927207765     -0.06518319426238
  H   -1.40437089142499      0.47683747333436      1.23517810359447
  N   -1.09352117543037     -1.32544565279085     -0.75420545093709
  O   -1.40618534255701     -1.64960856138031     -1.89562465298835
  O   -1.22178520314747     -2.02576604168829      0.25082562650336
