16
Coordinates from ORCA-job run
  C   0.78686813096993      0.36420437348316      0.14065942410245
  C   -0.70513365875423      0.25210743910607     -0.27290903061810
  Cl  0.89427988807193      2.16780464048269      0.68018008155197
  H   -0.88580986673761      0.91110755403056     -1.12991959569586
  N   1.02255271608662     -0.56679102439421      1.14982735535532
  H   1.96141169000440     -0.49709349580155      1.51641802549464
  H   0.31197774666137     -0.53126367168959      1.86926319479630
  N   1.79167403519658      0.24219976789647     -0.86151712074911
  H   1.68574242222763      0.94525145569292     -1.58064313709711
  H   1.73858865803960     -0.67948258356730     -1.27744382075376
  N   -1.55658247362698      0.42993373284692      0.87210523886542
  H   -1.67374548258253      1.41674687185347      1.05693664603346
  H   -2.45757907924689     -0.00410302386790      0.72247231405278
  N   -0.92382879696221     -1.14144580377445     -0.81752002106476
  O   -0.35552840494414     -1.39225567082127     -1.87791066071084
  O   -1.63488752440346     -1.91692056147599     -0.18899889356282
