16
Coordinates from ORCA-job run
  C   0.62823157082137      0.37138818065634      0.18077203173706
  C   -0.80569775916300      0.26272340128262     -0.39138939440891
  Cl  0.80511670033223      2.15888719836068      0.60867829267948
  H   -0.92444938286948      0.95581869370436     -1.22382889807148
  N   0.71715415962576     -0.32739589024414      1.43310880144971
  H   0.78615688856423     -1.32236082700227      1.24997101571305
  H   1.51416905314837     -0.01378296817473      1.97138000492024
  N   1.56728748082647     -0.06051894239875     -0.78528150442644
  H   2.51832667667236      0.02006273540503     -0.44953842234694
  H   1.47368382536553      0.41719245044680     -1.67365489143348
  N   -1.85138909355203      0.40233683813570      0.55697298452078
  H   -2.17943990961430      1.35600864427494      0.58931206605721
  H   -1.51289075438702      0.12160614086297      1.47063702413234
  N   -0.89560800979628     -1.11123484909925     -1.02531676442782
  O   -0.90303777257471     -1.16305324647147     -2.25170947356823
  O   -0.93761367339948     -2.06867755973883     -0.26011287252656
