16
Coordinates from ORCA-job run
  C   0.70537647526313      0.50890177116198      0.26515336191272
  C   -0.72530101614290      0.42003774063768     -0.32022025126550
  Cl  0.95262205722323      2.24346490945379      0.66518440689213
  H   -0.82322522104462      1.11016707244453     -1.15946543483424
  N   0.75947246787429     -0.24828196309016      1.48319916686034
  H   0.57139413891171     -1.22639203783930      1.28832471862922
  H   1.68569601935453     -0.15590881756008      1.88342452673648
  N   1.75720944358669      0.15501193481059     -0.65501815357515
  H   1.73737585620150     -0.83685335779461     -0.85974501494028
  H   1.70135667452704      0.67974911576058     -1.51993771392595
  N   -1.71307161377488      0.62662623625614      0.65326027942142
  H   -1.53513220267614      0.10015596339341      1.49615222383566
  H   -2.65555930771186      0.51108092491296      0.31208080088482
  N   -0.79572985872309     -0.95891141997880     -1.01042427534146
  O   -0.72865711238066     -0.97978333985056     -2.23722388883922
  O   -0.89482680048795     -1.94906473271815     -0.28374475245098
