16
Coordinates from ORCA-job run
  C   0.77050543191339      0.10026299900551      0.32651930388700
  C   -0.54770257123470     -0.04351891225050     -0.47431616404290
  Cl  0.20798161653399      0.50844824043282      2.05993548485490
  H   -0.27726533144044     -0.43640957077985     -1.45795851081063
  N   1.56803609366208     -1.05414393180926      0.24375765182925
  H   2.40275243979213     -0.93389675891047      0.80291703266750
  H   1.07234306609819     -1.89720688300048      0.49564991080681
  N   1.56719996119884      1.20830039868588     -0.09285708998676
  H   0.99242813698442      2.03505423166246     -0.19304719861316
  H   1.98422685504587      0.97455331792881     -0.98670014999012
  N   -1.22149480223597      1.19492124328785     -0.58820608820414
  H   -1.96795230012790      1.14316843015841     -1.26754327349084
  H   -1.61758038835148      1.46528776132369      0.30388023055334
  N   -1.43024954002828     -1.14895760358568      0.13460471758121
  O   -0.97028666696801     -2.28963220083530      0.13392619373184
  O   -2.53294200084212     -0.82723076131388      0.55943794922669
