16
Coordinates from ORCA-job run
  C   0.71525193620271      0.39089271755084      0.14483544238490
  C   -0.75371657795021      0.26405997902550     -0.36416738478398
  Cl  0.80666008622135      2.18951052089352      0.64683009972854
  H   -0.85272836666775      0.91434033303966     -1.23457481631551
  N   0.94896215377674     -0.51131714655869      1.19195647009859
  H   1.90274758004958     -0.43532161468674      1.52043045445969
  H   0.29797570449408     -0.41453759286565      1.95781377016027
  N   1.75623864324129      0.23016386834806     -0.82081911305447
  H   1.71888176945467     -0.70551985355027     -1.20775262392734
  H   1.66967754466869      0.90480555950932     -1.56946792698743
  N   -1.82772649991968      0.49226194723063      0.55258888688128
  H   -1.88996941346256     -0.24394033846242      1.24251702812234
  H   -1.73580574017926      1.39800146228432      0.99018610536406
  N   -0.89920312411250     -1.14138306780930     -0.88868412820191
  O   -1.42093324635926     -1.97382369364909     -0.15563812574943
  O   -0.43531244945789     -1.35819308029968     -2.00705413817960
