16
Coordinates from ORCA-job run
  C   0.80095982728339      0.01248497245542     -0.13860523900062
  C   -0.70794850911988      0.02158632469227     -0.45412026966919
  Cl  1.69676821483191     -0.72445227000002     -1.54715849833629
  H   -0.86660464532582      0.46980782307339     -1.44188566299967
  N   1.18340913810602      1.39686900790399      0.02530218839007
  H   2.10222121785836      1.44869300636008      0.44952170777591
  H   1.23141625499909      1.86333910544423     -0.87467771455078
  N   1.02896805887106     -0.80833930872365      0.99573451704176
  H   0.37168350065269     -0.57015607620915      1.72883440768119
  H   1.98677247531981     -0.76626254603453      1.31658049468776
  N   -1.37619528697379      0.62702858123273      0.66060261585419
  H   -2.37654766565776      0.66835236449977      0.51559951658413
  H   -0.99821004387230      1.55630544890850      0.79316289618322
  N   -1.22732611367755     -1.38999239858968     -0.62413244837482
  O   -1.24299558879598     -1.81351247482507     -1.77753973489313
  O   -1.60437083449924     -1.99275156018826      0.37278122362626
