16
Coordinates from ORCA-job run
  C   0.76768362059478      0.37609107795904      0.14789301451087
  C   -0.70869297069999      0.24736440958080     -0.29530550422859
  Cl  0.89814778048575      2.19553668495065      0.57232430673986
  H   -0.89643004796342      0.90207092852191     -1.15282381218593
  N   1.14310159409320     -0.33127723659927      1.32342157749941
  H   0.47891994815005     -0.13882565377646      2.06340728032085
  H   1.09961986082961     -1.32336971759722      1.11514663780023
  N   1.61308143291178     -0.01348401944875     -0.90328225634951
  H   2.58249416891859      0.07295674641054     -0.62682791729676
  H   1.43932025486840      0.48454130457605     -1.76577090568131
  N   -1.58991598417521      0.40182166761843      0.82885969306078
  H   -1.54229056356650      1.36137783763117      1.14977721418542
  H   -2.54625528643368      0.20513959028018      0.55917087891414
  N   -0.87977414577068     -1.14000403260245     -0.85994299751821
  O   -0.97183720837647     -1.21744597290768     -2.08331014268098
  O   -0.88917245386622     -2.08249361459694     -0.07473706709027
