16
Coordinates from ORCA-job run
  C   0.80214669725246      0.02452794096997      0.24748948778154
  C   -0.66367312630808      0.21622917685745     -0.22021663402880
  Cl  0.77503498578357     -1.53558217511414      1.26616282455474
  H   -0.66247047828468      1.05673879103443     -0.91785180628570
  N   1.81082925526910     -0.18652511639074     -0.73891554271906
  H   1.88333904067535      0.64594627302923     -1.31192515310829
  H   1.60345640980328     -0.98277324291646     -1.32565219106834
  N   1.14208956059709      1.17858860963529      0.97549388466916
  H   0.45313426634864      1.39284000151225      1.68310903604451
  H   2.07261492024914      1.08924908948442      1.36184327435607
  N   -1.52800929061747      0.46857600307051      0.87317855251199
  H   -1.65610577194995     -0.37396371790694      1.42036784356125
  H   -2.43286211099827      0.79326691185118      0.55987984972031
  N   -1.09572119004036     -0.97608098366507     -1.07664598062188
  O   -0.54344876720951     -1.09298313174150     -2.16959052640344
  O   -1.96035440057033     -1.72005442970987     -0.62772691896407
