16
Coordinates from ORCA-job run
  C   0.75420172867523      0.15441372416745      0.34316050233917
  C   -0.52357924029684     -0.12439726109093     -0.48686261389345
  Cl  0.10988408905372      0.86348252271268      1.94657327161965
  H   -0.20845986449683     -0.68439867121185     -1.37123093697053
  N   1.54081032869231     -0.99874155418916      0.50635096146555
  H   2.34774761164456     -0.78459458451249      1.07803578044612
  H   1.02334388902818     -1.78333482507143      0.87582419544548
  N   1.58398988367087      1.16887513592612     -0.22289290439255
  H   2.04388199017775      0.77980065619270     -1.03809126301505
  H   1.02478496302643      1.96637326380181     -0.49709557666837
  N   -1.17666508745948      1.07655773341081     -0.85029189885886
  H   -1.61419696122831      1.49987780661138     -0.04085682161433
  H   -1.88859522090880      0.90795881822120     -1.54754218268443
  N   -1.44825543312868     -1.10387609100631      0.25986460176033
  O   -1.00215770027313     -2.22840256041249      0.48152233960540
  O   -2.56673497617698     -0.70959411354949      0.56553254541587
