16
Coordinates from ORCA-job run
  C   0.66753239216590      0.24309681768858      0.28864707493217
  C   -0.69873673507588     -0.06376391638498     -0.39887879762549
  Cl  0.35936861594020      0.76897312505013      1.97016276600660
  H   -0.46212694834890     -0.32584170009674     -1.43531465066518
  N   1.60847979282953     -0.84797441296807      0.36398033649267
  H   1.71339037703599     -1.27089731952311     -0.55263803541583
  H   1.29277284653681     -1.57028717911896      1.00038736712831
  N   1.19039440654453      1.37624021937661     -0.43953800086457
  H   1.45510735690583      1.06924567926628     -1.37177932849382
  H   2.03658773188490      1.68590759840666      0.02750361955124
  N   -1.69990342008966      0.95460172435653     -0.36602986265539
  H   -2.01652439933590      1.07826013705073      0.58851162649833
  H   -1.26727287922612      1.81869053710656     -0.67195802050973
  N   -1.26526575541264     -1.32238633973699      0.18149438272160
  O   -2.08028551126931     -1.21268072641939      1.09172860007729
  O   -0.83351787108528     -2.38118424405383     -0.27527907717820
