16
Coordinates from ORCA-job run
  C   0.79212000052186      0.13243642052250      0.25490496386331
  C   -0.58251803204213     -0.08634069688720     -0.42451201452337
  Cl  0.36030362209058      0.67710977084135      1.98935946855041
  H   -0.38457001706415     -0.55679321459497     -1.39125793722229
  N   1.59717465609759     -1.01834730572786      0.20395258717184
  H   1.13572268845748     -1.84199354682398      0.56250405705839
  H   2.47119512806582     -0.84511869438221      0.68355121786044
  N   1.53751486021113      1.20867730089252     -0.31411723556041
  H   0.94489684881822      2.01976998496939     -0.43584813775535
  H   1.88883291738851      0.90592798326069     -1.21541081275047
  N   -1.28060341162118      1.13333496622190     -0.58456391295623
  H   -2.07681953278803      1.02039794560801     -1.19668614029492
  H   -1.61012528126819      1.47223049181097      0.31119802592266
  N   -1.39911215850270     -1.14525881183795      0.33979203806126
  O   -2.46992264254588     -0.79866155903993      0.82264057729519
  O   -0.92408964581895     -2.27837103483322      0.39549325527954
