16
Coordinates from ORCA-job run
  C   0.72450294430229      0.12714096858328      0.07519412570243
  C   -0.64887302293057      0.00069859658888     -0.61603415368638
  Cl  1.90489582565090     -0.91990721208221     -0.97128012308862
  H   -0.56885106878943      0.41734463921482     -1.61948814089830
  N   1.10053945023643      1.49957566012071      0.00253766506067
  H   1.48755101371284      1.72358543650706     -0.90470865101959
  H   1.77538492917167      1.73773614096789      0.71771752813229
  N   0.68783259294808     -0.30265809698152      1.41688029470888
  H   1.60641677771552     -0.26578145011417      1.84093827627231
  H   0.32192002570033     -1.24414675462024      1.48354102255897
  N   -1.73014252587137      0.61134341845247      0.09777340881529
  H   -1.64689727115403      1.61519471327902      0.00242582496489
  H   -1.64452167250080      0.38844072388280      1.08309653495484
  N   -1.01875092403165     -1.44103025694236     -0.82660210588967
  O   -1.12000810128001     -2.13126330929936      0.18841852965921
  O   -1.23299897288021     -1.81627321755706     -1.97141003624722
