16
Coordinates from ORCA-job run
  C   0.82371809527322      0.02024349834619     -0.01238562800712
  C   -0.63629419827942      0.05132918786006     -0.51930240511931
  Cl  1.76692095044406     -0.93098282485461     -1.27241720343889
  H   -0.66046947104559      0.54664125644687     -1.48956065792520
  N   1.43383348285217      1.32153630285025      0.02085573968845
  H   0.90054636976855      1.92619751059195      0.63393265995271
  H   1.49918172461834      1.72538737373895     -0.90431824106767
  N   0.88865126151395     -0.50415188679293      1.29585686576982
  H   0.52559559372991     -1.44694201914916      1.34773770779088
  H   1.83854698835596     -0.44946667423237      1.63984599122044
  N   -1.53890463844158      0.64727571934066      0.40574127107533
  H   -1.82428143720100      1.57785530065706      0.15001047358214
  H   -1.19850283008599      0.58971598072141      1.35532567753155
  N   -1.13717370204094     -1.35086444769177     -0.81707012610828
  O   -1.57638290408782     -1.56307018191534     -1.94136652518283
  O   -1.10498528537381     -2.16070409591721      0.10711440023798
