16
Coordinates from ORCA-job run
  C   0.70942147500768      0.17184266928252     -0.11889509602477
  C   -0.79382392245420     -0.01440292928632     -0.41117229644350
  Cl  1.60287642350351     -0.74369381758227     -1.51549632627436
  H   -1.01872091450081      0.45250235104195     -1.36947402589197
  N   0.97963248544191      1.56809817320230     -0.20530001916739
  H   1.08459657582306      1.85960379502067     -1.16816419774788
  H   1.81559030056776      1.81616155864133      0.30786956218898
  N   1.07103709364841     -0.32225232798470      1.15026469304928
  H   2.06792896651623     -0.24235574285113      1.30735767274009
  H   0.78714630792204     -1.28821877088980      1.25510505476048
  N   -1.66309952228988      0.48792870612751      0.61009135859373
  H   -1.29107778430138      0.23264590891341      1.51799366463419
  H   -1.66976756853335      1.49811213890638      0.55460584815784
  N   -1.13217020132265     -1.46669872528050     -0.60294018046363
  O   -1.63998155007243     -1.80114079696306     -1.66485842606005
  O   -0.90858816495591     -2.20913219029830      0.35401271394895
