17

C	0.0	0.0	0.0
C	-0.347689	-0.240686	-1.532276
Cl	1.80735	0.0	0.0
H	0.407729	0.356618	-2.06829
C	-0.383036	1.375076	0.330961
N	-0.606702	2.502723	0.57397
C	-0.624027	-0.989187	0.950637
H	-0.329639	-1.998943	0.668896
H	-1.711514	-0.845898	0.811424
H	-0.329826	-0.771729	1.980611
N	-1.640298	0.171877	-1.978976
H	-2.378709	-0.006846	-1.222932
H	-1.623092	1.17839	-2.098627
N	-0.19974	-1.671462	-1.791493
H	-0.676287	-1.82842	-2.671301
H	0.77939	-1.911537	-1.893624
F	-3.199232	0.0	0.0
