17

C	0.0	0.0	0.0
C	-0.629341	0.357303	-1.390693
Cl	1.795941	0.0	0.0
H	-1.425831	1.061533	-1.142204
C	-0.327369	1.113876	0.907014
N	-0.518679	2.033423	1.611786
C	-0.498163	-1.30069	0.608699
H	-0.23328	-2.128935	-0.048016
H	-1.58708	-1.176405	0.675238
H	-0.046278	-1.439489	1.593627
N	-1.231161	-0.851031	-1.954944
H	-1.553066	-0.59111	-2.883741
H	-2.084358	-0.898627	-1.366812
N	0.331546	1.023242	-2.25117
H	-0.184125	1.452776	-3.012099
H	0.946086	0.322528	-2.653037
F	-2.905506	0.0	0.0
