17

C	0.0	0.0	0.0
C	-0.343538	-0.195777	-1.538428
Cl	1.80769	0.0	0.0
H	0.376316	0.460274	-2.053546
C	-0.385834	1.363643	0.37194
N	-0.620619	2.482829	0.640976
C	-0.628671	-1.020196	0.91364
H	-0.335375	-0.842902	1.951644
H	-1.716277	-0.867339	0.784868
H	-0.33776	-2.019246	0.59472
N	-1.661511	0.16483	-1.958657
H	-2.391689	-0.040098	-1.199317
H	-1.690877	1.172097	-2.06462
N	-0.1194	-1.606481	-1.855433
H	0.863716	-1.777652	-2.029052
H	-0.642122	-1.767119	-2.706997
F	-3.237726	0.0	0.0
