17

C	0.0	0.0	0.0
C	-0.526415	-0.046193	-1.50162
Cl	1.793935	0.0	0.0
H	0.369971	-0.028507	-2.13076
C	-0.361592	1.286236	0.610927
N	-0.547989	2.325924	1.124886
C	-0.478025	-1.127524	0.905788
H	-0.195872	-2.082123	0.464172
H	-0.027938	-1.018667	1.896063
H	-1.567007	-1.023496	0.950048
N	-1.379908	1.066255	-1.88578
H	-2.183079	0.976124	-1.238504
H	-0.912488	1.950802	-1.712681
N	-1.220242	-1.30824	-1.6898
H	-2.07582	-1.162671	-1.130398
H	-1.51599	-1.304635	-2.661055
F	-2.922636	0.0	0.0
