17

C	0.0	0.0	0.0
C	-0.626051	0.39621	-1.358425
Cl	1.792885	0.0	0.0
H	-1.584621	0.832042	-1.049174
C	-0.339383	1.077317	0.948187
N	-0.523302	1.937268	1.72643
C	-0.514172	-1.320617	0.546563
H	-0.105984	-1.494058	1.544508
H	-1.607856	-1.188629	0.567556
H	-0.208437	-2.124565	-0.123127
N	-0.896481	-0.826832	-2.133909
H	-1.765676	-1.158809	-1.708372
H	-1.15522	-0.514148	-3.065652
N	0.196073	1.370078	-2.042076
H	0.977362	0.903613	-2.492668
H	-0.362692	1.827959	-2.751357
F	-2.907375	0.0	0.0
