15

C	-0.424579	0.148442	-1.446303
C	0.0	0.0	0.0
F	-1.813169	0.35728	-1.546878
H	1.08877	0.0	0.0
H	-0.379054	-0.919353	0.44124
C	0.298925	1.237617	-2.214406
H	-0.012829	2.205949	-1.832604
H	1.372791	1.115207	-2.042792
H	0.063993	1.157519	-3.278438
C	-0.161844	-1.157675	-2.091972
N	0.029912	-2.196294	-2.606708
N	-0.441832	1.085317	0.862935
O	-0.337127	2.250797	0.462066
O	-0.801129	0.783559	2.006399
H	2.628704	0.0	0.0
