15

C	-0.420461	0.186259	-1.444356
C	0.0	0.0	0.0
F	-1.805897	0.420772	-1.541735
H	1.088771	0.0	0.0
H	-0.37658	-0.930513	0.419163
C	0.327855	1.27625	-2.183917
H	0.034882	2.24129	-1.779948
H	1.397161	1.125475	-2.006136
H	0.100032	1.226728	-3.250582
C	-0.1875	-1.110523	-2.115508
N	-0.033982	-2.142867	-2.65284
N	-0.442401	1.063662	0.892265
O	-0.404392	2.235035	0.498138
O	-0.742293	0.735499	2.046271
H	2.634032	0.0	0.0
