15

C	-0.443682	-0.065228	-1.432962
C	0.0	0.0	0.0
F	-1.846402	0.030119	-1.531302
H	1.088524	0.0	0.0
H	-0.332758	0.933293	0.453456
C	0.178523	1.111339	-2.165508
H	-0.085859	1.079863	-3.224223
H	1.26343	1.061395	-2.03455
H	-0.195321	2.038996	-1.727481
C	-0.066144	-1.306952	-2.137163
N	0.186595	-2.177804	-2.882721
N	-0.492357	-1.079265	0.845401
O	-0.668196	-2.194364	0.342559
O	-0.624879	-0.830026	2.048579
H	2.636687	0.0	0.0
