15

C	-0.432009	-0.010689	-1.458499
C	0.0	0.0	0.0
F	-0.222746	1.26293	-1.985869
H	1.088544	0.0	0.0
H	-0.377277	-0.892446	0.504742
C	0.446364	-0.991903	-2.209507
H	0.276102	-0.895812	-3.285206
H	1.485217	-0.764467	-1.944125
H	0.217814	-2.013729	-1.897084
C	-1.862518	-0.317736	-1.665367
N	-2.971727	-0.623038	-1.899831
N	-0.600271	1.162364	0.692327
O	-1.80983	1.090435	0.94489
O	0.119269	2.119049	0.96411
H	2.845713	0.0	0.0
