15

C	-0.446063	-0.177534	-1.449754
C	0.0	0.0	0.0
F	-0.369774	1.105524	-2.011679
H	1.089106	0.0	0.0
H	-0.378845	0.937382	0.403725
C	0.462222	-1.084039	-2.253901
H	1.48681	-0.751704	-2.080944
H	0.197522	-1.020499	-3.311532
H	0.365885	-2.109942	-1.903646
C	-1.860854	-0.587059	-1.570262
N	-2.974392	-0.931539	-1.702575
N	-0.43169	-1.074519	0.87648
O	-0.572759	-0.80885	2.074549
O	-0.537	-2.215008	0.400128
H	2.659288	0.0	0.0
