12
Coordinates from ORCA-job run
  C   -0.73553127388304      0.19099941451747     -0.06519121766108
  C   0.59134432925707      0.35960967482451      0.00567189568410
  H   -1.33101162817092      1.09309170447736     -0.18000459644388
  C   -1.43004675289207     -1.12458066368545      0.00870446755201
  H   -2.05914734686997     -1.26231036188117     -0.87530468195652
  H   -2.09600815228986     -1.14245533354200      0.87680971292691
  H   -0.73362890275864     -1.96010104569525      0.08270596242418
  C   1.53772214687977     -0.69824369881696      0.15923216680263
  N   2.25966796100371     -1.61720696999719      0.28937811174123
  N   1.17973933845911      1.71925808415698     -0.07886596460501
  O   2.40511143086929      1.77735906289525     -0.04570019599744
  O   0.41078885039554      2.66558013274645     -0.17643566046712
