12
Coordinates from ORCA-job run
  C   -0.66342853987516      0.10822724683208     -0.35908136277579
  C   0.56584923473173      0.38682291359953      0.09451353989971
  H   -1.15458121439034      0.89181777751609     -0.93065400537975
  C   -1.38290690184421     -1.17593361671409     -0.13362423586784
  H   -2.32800978320328     -0.98522482868687      0.38292369143277
  H   -1.63554897536069     -1.63395730550463     -1.09419702184473
  H   -0.79743718066109     -1.88480088487015      0.45191658193433
  C   1.37292288851841     -0.50716514370240      0.86088585042037
  N   1.98379067295873     -1.29285441220728      1.48726119235986
  N   1.18673227057565      1.70556896922630     -0.18669559630988
  O   0.54185140783386      2.50710957939599     -0.84843794962418
  O   2.30976612071637      1.88038970511544      0.27618931575514
