12
Coordinates from ORCA-job run
  C   -0.21599932563917     -0.77253079766683     -0.28592648073761
  C   0.80101404827746      0.00109396257678      0.12858453139215
  H   0.07231927711796     -1.77738572674382     -0.58851131037958
  C   -1.66426757557703     -0.41895857115342     -0.37556647775664
  H   -1.82440048033981      0.63249762664628     -0.60832032639648
  H   -2.14993071391694     -1.03868880582311     -1.12982703133502
  H   -2.15215743633701     -0.60820123158827      0.58538595257638
  C   2.16079202725672     -0.43741855428429      0.14735086230113
  N   3.26529501010488     -0.83963904442264      0.16470498644942
  N   0.61415104997031      1.40185144073196      0.55219002677201
  O   -0.44924124030445      1.68877665848867      1.09379341119602
  O   1.54342535938709      2.16860304323870      0.31814185591822
