12
Coordinates from ORCA-job run
  C   -0.72279971253496      0.14889719662059      0.19234422874175
  C   0.58179505917962      0.37460364906455     -0.01220410795253
  H   -1.30781303716045      0.99180996098249      0.55203049811111
  C   -1.40549579997807     -1.15559754935849     -0.03307179996099
  H   -1.85855477810584     -1.50233151609579      0.90034124121844
  H   -0.72603070547118     -1.92432383056229     -0.40107783306093
  H   -2.22044586864668     -1.02832277343720     -0.75157175875668
  C   1.51290915787198     -0.60172334105675     -0.47927146601668
  N   2.22575083230580     -1.45481698234852     -0.86247373777554
  N   1.15813061163539      1.71877043618749      0.23965925204382
  O   0.41820184246654      2.57664029660573      0.70096735732426
  O   2.34435239843786      1.85639445339821     -0.04367187391603
