12
Coordinates from ORCA-job run
  C   -0.72977014882605      0.15383157712185      0.15642723697479
  C   0.57200965347136      0.38510701773379     -0.05919833170734
  H   -1.34228988252505      1.02327402654724      0.38226987354447
  C   -1.37500867137536     -1.18759188969775      0.10870305583530
  H   -2.17068689088382     -1.19041950942876     -0.64192048145434
  H   -0.66729625048064     -1.98313929834869     -0.12401441377511
  H   -1.84772923963429     -1.40508701325294      1.07087580271076
  C   1.53711074886131     -0.62027938905457     -0.36885488042510
  N   2.27909039084226     -1.49714639168903     -0.62045044812047
  N   1.10926836594618      1.76689996374997      0.01482042808211
  O   2.31139600068154      1.88813046550994     -0.19983503208176
  O   0.32490592392255      2.66742044080896      0.27917719041668
