12
Coordinates from ORCA-job run
  C   -0.22444185283806     -0.78689684226574      0.23270181479495
  C   0.80802823805243      0.05092487836789      0.04179872867530
  H   0.05864578052839     -1.78906548954501      0.54879024290682
  C   -1.68147929542491     -0.50704543629140      0.06333379288120
  H   -2.08698442171815     -0.09127859693327      0.99093938606298
  H   -2.21353854967297     -1.43465859677708     -0.15109141671546
  H   -1.88047395567852      0.22025516737418     -0.72167133226598
  C   2.17206283640630     -0.33974349002095      0.21010988130276
  N   3.28128758026746     -0.69363008668493      0.37225822492339
  N   0.63117676011024      1.44271680656044     -0.41256127929220
  O   1.52566674306197      1.90410607745995     -1.11485588123861
  O   -0.39094986309417      2.02331560875593     -0.05875216203515
