12
Coordinates from ORCA-job run
  C   -0.22922357993121     -0.80610979901094     -0.17309599368669
  C   0.81008976596267      0.01415002947524      0.05179493123552
  H   0.03953035523248     -1.84691187646109     -0.34157065041364
  C   -1.68008101585167     -0.45404086276075     -0.21754004841543
  H   -1.93459126082397      0.35509461968671      0.46556191549830
  H   -2.28122584002686     -1.33213617207647      0.01989097605903
  H   -1.95015190556577     -0.11709894711689     -1.22282229793076
  C   2.16753036658116     -0.42824325451206      0.09739471691551
  N   3.27610806740950     -0.81911411325042      0.11146772679431
  N   0.63675492491521      1.45313234366873      0.32893480905853
  O   1.43502882566791      1.95463027856828      1.11479060658880
  O   -0.28976870356944      2.02664775378966     -0.23580669170348
