12
Coordinates from ORCA-job run
  C   -0.63952174443837      0.06600050775119     -0.40813264065676
  C   0.55223714848216      0.40475365220696      0.10135817382356
  H   -1.10233841657919      0.79069393606600     -1.07375248797324
  C   -1.35335745842429     -1.21096494592507     -0.12831620193449
  H   -1.53876591575482     -1.74395534007437     -1.06521186904558
  H   -2.33201337480934     -0.99728664249433      0.31143078009266
  H   -0.79650120518901     -1.86201832033645      0.54518525077763
  C   1.31892351372000     -0.40826806471842      0.98957645462843
  N   1.89742964315275     -1.12661818037551      1.71906111761505
  N   1.17213429846291      1.70744273603660     -0.24769032398721
  O   2.26480507027029      1.93626105338443      0.26201255929270
  O   0.55596844110692      2.44495960847896     -1.00452081263274
