14

C	-0.694301	-0.310584	-1.335418
C	0.037023	-0.075876	-0.013381
Br	-0.199697	-2.060458	-2.006619
H	1.103965	0.140464	-0.199462
H	0.016213	-0.999342	0.570884
N	-2.136273	-0.213965	-1.368048
H	-2.514608	-0.952642	-0.786711
H	-2.387345	0.678396	-0.950662
N	-0.229704	0.771854	-2.322455
O	0.411681	0.490673	-3.318555
O	-0.595018	1.895315	-1.982454
C	-0.590325	0.975332	0.765008
N	-1.103986	1.810138	1.41585
H	2.625864	0.368256	-0.463292
