16
Coordinates from ORCA-job run
  C   0.66561459694939     -0.64429252591762     -0.65442090051989
  C   -0.58202748212355      0.23836568128677     -0.59031644178919
  H   0.38207507883683     -1.59517907505492     -1.11367850542308
  H   -1.06779578926708      0.23563080664689     -1.56936627097322
  H   1.37032522551453     -0.15765699865563     -1.33716182412666
  C   1.32986014056371     -0.89680962729961      0.69594758605682
  H   0.65391850383619     -1.40368582721699      1.38763899961647
  H   1.66460263446203      0.02824605325269      1.16813911552871
  H   2.20580718310823     -1.53559654059487      0.56474474317682
  C   -0.34525921237593      1.65579925066805     -0.11292680897287
  H   -1.27857852098617      2.22055757162468     -0.09221572776494
  H   0.08123263431793      1.67988934284013      0.88795301405705
  H   0.34116936968937      2.15057729102491     -0.80451143517557
  N   -1.57194898448404     -0.46671868487594      0.30020148397225
  O   -1.74060902729418     -0.04171110972179      1.44147445103941
  O   -2.10838635074726     -1.46741560800677     -0.17150147870213
