16
Coordinates from ORCA-job run
  C   0.97554649665131     -0.05254873421334      0.15007168276611
  C   -0.38964486873104      0.28792350277320     -0.43247259008906
  H   1.05255481281618      0.40943594186727      1.13873630025528
  H   -0.50289842574914     -0.15034683903170     -1.42616422504915
  H   1.72599377092569      0.42384675102200     -0.48979393824864
  C   1.23398710435453     -1.55301231189376      0.24116060696485
  H   1.10355527059205     -2.03778947940292     -0.72965629848218
  H   0.55304068939429     -2.03017826742411      0.94919821562883
  H   2.25279067948824     -1.74750979196511      0.58222623516299
  C   -0.68938922957526      1.77566795227551     -0.44709683476662
  H   -1.68872176111203      1.97209065132796     -0.84184390344215
  H   0.03664445272381      2.28633185322368     -1.08337991093699
  H   -0.62382224186247      2.18412865329254      0.56181314702662
  N   -1.42766557234366     -0.41012673325074      0.39683397549756
  O   -1.53945529572688     -0.04721498687549      1.56621507262873
  O   -2.07351588184564     -1.31169816172499     -0.13484753491620
