15

C	-0.114579	0.010531	-1.535943
C	0.0	0.0	0.0
F	0.061271	-1.351561	-1.936064
H	1.103819	0.0	0.0
C	-1.438155	0.369632	-2.088918
N	-2.486275	0.650036	-2.5378
N	0.907188	0.848218	-2.000103
H	1.77456	0.634835	-1.463988
H	1.026531	0.790019	-3.002213
N	-0.677282	-1.159705	0.587724
H	-0.156729	-1.968019	0.265998
H	-0.526779	-1.109548	1.59023
C	-0.509713	1.240417	0.559797
N	-0.899948	2.228135	1.063452
F	2.652919	0.0	0.0
