15

C	-0.550747	-0.014413	-1.415526
C	0.0	0.0	0.0
F	-1.985129	0.085523	-1.346795
H	1.093699	0.0	0.0
C	-0.150716	1.179762	-2.185062
N	0.112587	2.146264	-2.797606
N	-0.164657	-1.193782	-2.076496
H	-0.252594	-1.950982	-1.407467
H	-0.717845	-1.338103	-2.907892
N	-0.343938	-1.271984	0.647274
H	0.451061	-1.516855	1.225964
H	-1.173768	-1.19277	1.222079
C	-0.498706	1.159245	0.728195
N	-0.896381	2.059338	1.372304
F	2.52304	0.0	0.0
