15

C	-0.37771	-0.223083	-1.461628
C	0.0	0.0	0.0
F	0.07649	0.86862	-2.215807
H	1.10013	0.0	0.0
C	0.313788	-1.421747	-1.987762
N	0.774623	-2.392273	-2.460844
N	-1.783888	-0.41085	-1.637699
H	-2.004097	-0.535844	-2.618311
H	-2.26348	0.412897	-1.291503
N	-0.392187	-1.113602	0.852477
H	-1.175345	-1.624099	0.465757
H	0.417431	-1.714414	0.945643
C	-0.605324	1.250239	0.439208
N	-1.12745	2.247229	0.783893
F	2.525141	0.0	0.0
