15

C	-0.374764	-0.168171	-1.469312
C	0.0	0.0	0.0
F	0.049352	0.967533	-2.173991
H	1.100055	0.0	0.0
C	0.349893	-1.320806	-2.049306
N	0.844116	-2.254019	-2.560583
N	-1.776887	-0.381799	-1.652244
H	-2.273615	0.410531	-1.257854
H	-1.998185	-0.454445	-2.638661
N	-0.378461	-1.15224	0.807579
H	0.43707	-1.750356	0.862111
H	-1.156596	-1.656089	0.400687
C	-0.616695	1.225198	0.489395
N	-1.14593	2.2086	0.860237
F	2.52415	0.0	0.0
