15

C	-0.153231	-0.097392	-1.53905
C	0.0	0.0	0.0
F	-1.356532	-0.753701	-1.884521
H	1.097521	0.0	0.0
C	-0.272703	1.231117	-2.19312
N	-0.312865	2.267539	-2.746641
N	0.951962	-0.858839	-1.998595
H	1.790262	-0.615077	-1.427992
H	1.112729	-0.73323	-2.989173
N	-0.412895	-1.221012	0.678656
H	-1.216898	-1.617992	0.205411
H	0.357006	-1.873057	0.592151
C	-0.638601	1.171311	0.575425
N	-1.158959	2.109528	1.055772
F	2.631174	0.0	0.0
