15

C	-0.522835	-0.047268	-1.425688
C	0.0	0.0	0.0
F	0.002555	1.054693	-2.124627
H	1.093544	0.0	0.0
C	-0.032846	-1.258488	-2.115778
N	0.308493	-2.188819	-2.743617
N	-1.950294	-0.039906	-1.485368
H	-2.285964	0.807147	-1.039513
H	-2.259102	-0.046938	-2.450478
N	-0.36215	-1.238779	0.681459
H	-1.227459	-1.16663	1.198344
H	0.399573	-1.464032	1.309443
C	-0.516872	1.201948	0.64518
N	-0.977329	2.145263	1.178793
F	2.525858	0.0	0.0
