15

C	-0.495998	-0.042626	-1.43975
C	0.0	0.0	0.0
F	-0.353763	1.20626	-2.021108
H	1.098987	0.0	0.0
C	0.356699	-0.970855	-2.234969
N	0.917907	-1.752133	-2.908661
N	-1.884423	-0.406848	-1.501545
H	-1.985795	-1.226233	-0.911591
H	-2.141641	-0.655199	-2.450348
N	-0.362702	-1.273083	0.654858
H	-0.999448	-1.120054	1.42582
H	0.503913	-1.642615	1.029761
C	-0.543261	1.159266	0.68464
N	-0.952068	2.074621	1.300473
F	2.528133	0.0	0.0
