15

C	-0.128947	0.025261	-1.539784
C	0.0	0.0	0.0
F	0.101049	-1.291645	-1.984859
H	1.09628	0.0	0.0
C	-1.479701	0.352202	-2.049075
N	-2.562997	0.602539	-2.428195
N	0.848357	0.932869	-1.992676
H	0.963887	0.887451	-2.996688
H	1.726059	0.720041	-1.481927
N	-0.580123	-1.178682	0.615903
H	0.145559	-1.642139	1.144669
H	-1.334858	-0.933774	1.24046
C	-0.475531	1.251927	0.569509
N	-0.888361	2.217879	1.098552
F	2.619341	0.0	0.0
