15

C	-0.57375	-0.006237	-1.405598
C	0.0	0.0	0.0
F	-2.007878	0.013966	-1.309535
H	1.093491	0.0	0.0
C	-0.250239	1.222668	-2.159358
N	-0.051351	2.186013	-2.798951
N	-0.136075	-1.148247	-2.103381
H	-0.731252	-1.327925	-2.899881
H	-0.153042	-1.919774	-1.444152
N	-0.320361	-1.284245	0.635729
H	-1.15093	-1.232767	1.212577
H	0.480169	-1.523219	1.209176
C	-0.504801	1.142568	0.751591
N	-0.918866	2.024327	1.410873
F	2.521385	0.0	0.0
