15

C	-0.128235	-0.100787	-1.53669
C	0.0	0.0	0.0
F	-0.001494	-1.470103	-1.824759
H	1.102221	0.0	0.0
C	-1.446816	0.300238	-2.070839
N	-2.508467	0.594151	-2.478491
N	0.939373	0.586458	-2.176446
H	0.698727	1.546309	-2.375396
H	1.767383	0.519639	-1.550215
N	-0.703622	-1.074137	0.704969
H	-0.241662	-1.929712	0.418555
H	-0.497972	-0.965003	1.693374
C	-0.463554	1.309476	0.431686
N	-0.818426	2.373151	0.78477
F	2.642481	0.0	0.0
