17

C	0.0	0.0	0.0
C	-0.526266	-0.103692	-1.436019
Cl	1.79112	0.0	0.0
H	-1.627327	-0.247641	-1.268623
H	-0.345263	-0.872749	0.544022
C	-0.438125	1.285173	0.691993
H	-1.531571	1.335383	0.618231
H	0.047512	2.148993	0.2347
H	-0.13266	1.245796	1.741687
N	0.002269	-1.356726	-2.061896
O	0.548252	-1.297795	-3.165868
O	-0.140287	-2.401937	-1.422082
C	-0.246723	1.096167	-2.308738
H	-0.605202	0.912236	-3.322146
H	0.819941	1.326779	-2.36162
H	-0.790261	1.950292	-1.900868
F	-2.86495	0.0	0.0
