17

C	0.0	0.0	0.0
C	-0.476234	-0.188459	-1.461475
Cl	1.792479	0.0	0.0
H	0.386478	-0.058311	-2.124863
H	-0.304541	-0.892127	0.541534
C	-0.457487	1.20599	0.802116
H	-1.551313	1.166065	0.752902
H	-0.107052	1.075759	1.831322
H	-0.051883	2.132311	0.401037
N	-1.402148	0.881518	-1.983312
O	-2.278313	0.548927	-2.770832
O	-1.100551	2.048222	-1.74008
C	-1.104042	-1.555697	-1.6431
H	-2.013515	-1.513372	-1.034707
H	-1.337033	-1.7568	-2.689029
H	-0.404737	-2.316827	-1.281847
F	-2.724763	0.0	0.0
