17

C	0.0	0.0	0.0
C	-0.304457	-0.160639	-1.515602
Cl	1.79296	0.0	0.0
H	0.393419	-0.908158	-1.890677
H	-0.29135	-0.955708	0.442436
C	-0.687762	1.109723	0.74957
H	-0.43275	1.043787	1.811592
H	-1.770353	0.911272	0.610422
H	-0.416514	2.094013	0.371816
N	0.115522	1.065002	-2.274948
O	0.964173	0.918516	-3.158803
O	-0.440284	2.131022	-2.019571
C	-1.714003	-0.520671	-1.932093
H	-1.909234	-1.539652	-1.587106
H	-2.499547	0.066123	-1.419943
H	-1.761011	-0.523212	-3.028247
F	-3.40336	0.0	0.0
