17

C	-0.464476	0.014035	-1.455293
C	0.0	0.0	0.0
Br	0.303925	-1.512447	-2.484139
H	1.096372	0.0	0.0
C	-1.91932	-0.11798	-1.561829
N	-3.091856	-0.218326	-1.57856
C	-0.05274	1.228915	-2.164132
N	0.263413	2.193457	-2.757831
C	-0.489426	-1.22964	0.747839
H	-0.027308	-1.223168	1.738899
H	-0.173231	-2.149972	0.253211
H	-1.57904	-1.245907	0.871022
C	-0.436461	1.284431	0.699205
H	-0.036304	2.168352	0.196772
H	-1.526355	1.378664	0.78235
H	-0.010277	1.27265	1.706723
H	2.776105	0.0	0.0
