17

C	-0.461979	-0.024807	-1.456022
C	0.0	0.0	0.0
Br	0.303616	1.496642	-2.493398
H	1.09639	0.0	0.0
C	-0.045448	-1.243704	-2.155062
N	0.273127	-2.21156	-2.742019
C	-1.916922	0.102957	-1.566292
N	-3.089748	0.198773	-1.585268
C	-0.43802	-1.280167	0.706119
H	-1.528151	-1.37613	0.784048
H	-0.017448	-1.260662	1.715788
H	-0.033337	-2.166623	0.211813
C	-0.491057	1.234747	0.738078
H	-0.040503	1.229581	1.734406
H	-0.163989	2.15126	0.243487
H	-1.581896	1.257828	0.849134
H	2.777298	0.0	0.0
