17

C	-0.465572	0.016253	-1.453231
C	0.0	0.0	0.0
Br	0.300339	-1.510289	-2.483168
H	1.096377	0.0	0.0
C	-1.920537	-0.11674	-1.561246
N	-3.092605	-0.217742	-1.578591
C	-0.051931	1.228698	-2.164059
N	0.267627	2.193179	-2.75584
C	-0.488804	-1.229288	0.749253
H	-1.578713	-1.248031	0.870422
H	-0.029604	-1.220871	1.741537
H	-0.170515	-2.149858	0.256075
C	-0.435812	1.284297	0.699442
H	-1.52457	1.381577	0.780459
H	-0.031396	2.167136	0.198923
H	-0.012617	1.268666	1.707311
H	2.779384	0.0	0.0
