17

C	-0.457369	0.088776	-1.45576
C	0.0	0.0	0.0
Br	0.228926	1.731802	-2.348702
H	1.110214	0.0	0.0
C	0.024077	-1.042314	-2.255196
N	0.355068	-1.972623	-2.893364
C	-1.917276	0.140331	-1.561104
N	-3.094764	0.128543	-1.569553
C	-0.427231	-1.340325	0.592579
H	-1.515494	-1.449733	0.668996
H	0.000514	-1.408253	1.596718
H	-0.021866	-2.177693	0.019901
C	-0.505158	1.159982	0.840381
H	-0.057337	1.071486	1.833998
H	-0.187741	2.120306	0.430273
H	-1.596504	1.160689	0.950481
H	2.769693	0.0	0.0
