17

C	-0.464825	-0.032769	-1.453279
C	0.0	0.0	0.0
Br	0.299651	-1.595417	-2.432843
H	1.108761	0.0	0.0
C	-1.919649	-0.164248	-1.555596
N	-3.09284	-0.25536	-1.565384
C	-0.051596	1.155981	-2.203603
N	0.219784	2.119814	-2.820173
C	-0.489886	-1.203405	0.788088
H	-1.57894	-1.211689	0.918573
H	-0.021936	-1.168417	1.775868
H	-0.180886	-2.140062	0.320392
C	-0.433511	1.306815	0.657631
H	-1.523061	1.404742	0.741468
H	-0.03514	2.173744	0.125282
H	-0.003945	1.327659	1.663467
H	2.764881	0.0	0.0
