17

C	-0.469316	0.157804	-1.443054
C	0.0	0.0	0.0
Br	0.345711	-1.22351	-2.634153
H	1.109578	0.0	0.0
C	-1.918515	-0.011763	-1.565715
N	-3.087632	-0.145406	-1.592462
C	-0.107689	1.456424	-2.016524
N	0.109874	2.513894	-2.482995
C	-0.480631	-1.303479	0.617789
H	-0.193035	-2.164073	0.010287
H	-1.565756	-1.32481	0.774636
H	0.014145	-1.415262	1.586789
C	-0.437389	1.202252	0.83103
H	-0.026379	1.07576	1.837108
H	-1.527961	1.295894	0.910587
H	-0.024888	2.132859	0.433923
H	2.759745	0.0	0.0
