13
Coordinates from ORCA-job run
  C   0.81754150951675      0.57127057059518      0.47544917892043
  C   -0.41289085174132     -0.25422609898024      0.12376667963579
  F   1.34800828367363      1.06733540521064     -0.70354803063620
  H   -0.86195392741356     -0.65346766101028      1.03640453482022
  H   0.54101112385161      1.41873481773858      1.10479523895558
  C   1.81617302648484     -0.26066606011455      1.15362663068305
  N   2.61000015432943     -0.90460865349101      1.72942877226999
  N   -0.09943061439075     -1.27235870425579     -0.79310486820324
  H   0.27630890272861     -0.89256203829119     -1.65134540566237
  H   -0.89466323343554     -1.85755121381619     -1.00471718714460
  N   -1.46181714455155      0.77098601353039     -0.37912621099469
  O   -1.77423174669561      1.65027856943734      0.41719487331940
  O   -1.90605548235654      0.61783505344713     -1.50982420596341
