13
Coordinates from ORCA-job run
  C   1.02463060782208     -0.22840422067567      0.37132411601113
  C   -0.46499834127251     -0.09955304296154      0.07111378519851
  F   1.16452951741091     -1.29253466019010      1.25203876719973
  H   -0.99650980453573      0.26910377020089      0.95845584490364
  H   1.57071504044650     -0.46391587564758     -0.54243433088422
  C   1.55806022721580      0.98236561758660      1.00207151603994
  N   1.97267607649910      1.93774062809543      1.54282909914289
  N   -0.94993644265573     -1.33023106373964     -0.48941406526705
  H   -0.68147924561674     -2.10260831612544      0.10692536721421
  H   -1.95984032210302     -1.30408119370357     -0.55726801574917
  N   -0.68198625864435      0.96015846051447     -0.97657332166491
  O   -1.85660152652868      1.21899055813969     -1.21257065225698
  O   0.29974047196236      1.45196933850648     -1.52649810988774
