13
Coordinates from ORCA-job run
  C   0.77512375654511      0.54590537157768      0.46472641977889
  C   -0.51952168360832     -0.18304229066857      0.07885356126388
  F   1.34675397078670      1.04328280977601     -0.69147195821745
  H   -1.00096066275072     -0.55945771080507      0.98330993882311
  H   0.57106173243014      1.38379338567714      1.13539929452594
  C   1.69509250507327     -0.40750275905294      1.09464856903947
  N   2.39195353288471     -1.20182794428861      1.60559994455933
  N   -0.40565363564124     -1.20540661929498     -0.89370382328833
  H   0.18988679572555     -0.93926986356758     -1.66512011371781
  H   -0.10973306898632     -2.08255591042566     -0.49121314929188
  N   -1.43633768839028      0.92320293793026     -0.42833363943398
  O   -1.67731634405528      0.97010774393977     -1.62497426938376
  O   -1.81934921001331      1.71177084920257      0.43227922534260
