13
Coordinates from ORCA-job run
  C   0.86296124833795      0.46150922050964      0.51201049850616
  C   -0.46297989254061     -0.16541821819398      0.10242521765904
  F   1.56976383914739      0.75305642906174     -0.64296173824680
  H   -1.05317345269779     -0.39369703020012      0.99322670072207
  H   0.69341823241866      1.39599715869019      1.04926415743388
  C   1.63668530554549     -0.46850844900718      1.34031631919093
  N   2.25511073984254     -1.18586193478158      2.03258688281429
  N   -0.26373682631089     -1.30374014421785     -0.69774740063169
  H   -1.13143889920573     -1.75640424001499     -0.94594047254080
  H   0.25009486829698     -1.07761281730080     -1.53844686476206
  N   -1.25938152449945      0.97598460132346     -0.58064332398592
  O   -1.62959804544503      0.79585759402521     -1.73380591631865
  O   -1.46872559288950      1.96883783010626      0.10871594015955
