16

C	-0.003111	0.001139	-0.006619
C	-0.50438	0.00111	-1.461648
F	1.381274	0.021332	0.043297
H	-1.604016	0.022561	-1.340992
N	-0.482769	1.236956	0.550303
H	-1.507264	1.077204	0.567986
H	-0.140061	1.29624	1.504579
N	-0.450045	-1.234035	0.575669
H	-1.477234	-1.108302	0.57656
H	-0.12571	-1.251181	1.537908
N	-0.122708	-1.276697	-2.146447
O	1.059497	-1.420833	-2.450267
O	-1.016425	-2.092208	-2.350392
C	0.026349	1.115828	-2.230742
N	0.42774	1.996741	-2.894947
F	-2.7964	0.008132	0.088234
