15

C	-0.324385	-0.07144	-1.455888
C	0.0	0.0	0.0
Br	-2.238044	-0.209	-1.90366
H	1.100131	0.0	0.0
H	0.150298	-0.945609	-1.898631
N	0.20675	1.093631	-2.248866
O	0.16217	2.205782	-1.740085
O	0.632164	0.82684	-3.370507
C	-0.347423	-1.311443	0.705488
H	0.046307	-1.269877	1.723283
H	0.161508	-2.134195	0.194765
H	-1.422549	-1.505344	0.739621
C	-0.566317	1.127334	0.709672
N	-1.03043	1.977432	1.377641
H	2.610495	0.0	0.0
