17

C	0.0	0.0	0.0
C	-0.288854	0.114811	-1.556478
Br	1.971267	0.0	0.0
H	0.531914	0.714201	-1.960842
C	-0.382727	1.259808	0.639242
N	-0.599429	2.288955	1.163912
C	-0.651582	-1.177881	0.679194
H	-0.398533	-1.191073	1.741792
H	-0.332695	-2.111968	0.213292
H	-1.74336	-0.976871	0.532075
C	-1.594436	0.776006	-2.011698
H	-1.552591	1.837118	-1.74579
H	-2.454598	0.341372	-1.468782
H	-1.653238	0.687343	-3.101957
C	-0.131599	-1.2125	-2.158088
N	5.4e-05	-2.251293	-2.69232
F	-3.10739	0.0	0.0
