17

C	0.0	0.0	0.0
C	-0.467057	-0.024913	-1.493008
Br	1.970065	0.0	0.0
H	0.420981	-0.242917	-2.096493
C	-0.413532	1.210806	0.703251
N	-0.574681	2.218272	1.288141
C	-0.383433	-1.251828	0.798654
H	-1.476293	-1.242478	0.816801
H	0.045705	-1.193874	1.801953
H	0.008763	-2.139438	0.296411
C	-1.06022	1.302699	-1.955821
H	-0.343834	2.111129	-1.792489
H	-1.298168	1.25186	-3.021792
H	-1.965054	1.449882	-1.36856
C	-1.386953	-1.132454	-1.773625
N	-1.919478	-2.083542	-2.214786
F	-2.563973	0.0	0.0
