17

C	0.0	0.0	0.0
C	-0.630868	-0.047597	-1.394374
Br	1.965343	0.0	0.0
H	-1.732961	0.083597	-1.062789
C	-0.358185	1.272089	0.640743
N	-0.559084	2.297456	1.178712
C	-0.476762	-1.159509	0.87189
H	-0.124662	-1.022165	1.896172
H	-0.083579	-2.10391	0.491249
H	-1.572696	-1.102607	0.811567
C	-0.468051	-1.390996	-2.100574
H	0.576191	-1.719693	-2.129542
H	-0.831621	-1.311616	-3.127779
H	-1.074838	-2.141046	-1.591763
C	-0.177974	1.051924	-2.22839
N	0.174297	1.930442	-2.927421
F	-2.852081	0.0	0.0
