17

C	0.0	0.0	0.0
C	-0.468017	0.22329	-1.482538
Br	1.953921	0.0	0.0
H	0.427859	0.155016	-2.110976
C	-0.414446	1.088594	0.882386
N	-0.579845	1.983404	1.627041
C	-0.407004	-1.352448	0.591508
H	-1.501787	-1.32569	0.586443
H	-0.007091	-2.15896	-0.027121
H	-0.002297	-1.444802	1.602386
C	-1.127818	1.583448	-1.716339
H	-1.366964	1.695751	-2.778713
H	-2.034508	1.575041	-1.111481
H	-0.45395	2.392523	-1.42329
C	-1.337519	-0.860149	-1.952533
N	-1.847676	-1.749999	-2.52683
F	-2.599684	0.0	0.0
