17

C	0.0	0.0	0.0
C	-0.289559	-0.132591	-1.554832
Br	1.976971	0.0	0.0
H	0.529932	0.397389	-2.048461
C	-0.37924	1.344765	0.435198
N	-0.604288	2.439423	0.799437
C	-0.652149	-1.054468	0.857583
H	-0.39743	-0.900222	1.908788
H	-1.743756	-0.878245	0.681959
H	-0.3352	-2.050928	0.544606
C	-1.597289	0.446501	-2.1052
H	-1.647898	0.200212	-3.171262
H	-1.559544	1.534227	-2.00054
H	-2.457979	0.093989	-1.506628
C	-0.130584	-1.53881	-1.936562
N	0.000262	-2.653479	-2.283921
F	-3.112021	0.0	0.0
