16

C	-0.3231	0.037024	-1.397504
C	-0.019434	-0.099174	0.089481
Cl	-2.198244	0.4358	-1.564159
H	1.07374	-0.1735	0.042692
C	0.31714	1.192343	-2.042658
N	0.546355	2.087788	-2.770991
N	-0.0227	-1.141062	-2.105214
H	-0.21657	-1.042977	-3.092615
H	-0.52282	-1.934292	-1.723066
C	-0.687783	-1.273629	0.623949
N	-1.194083	-2.244293	1.055681
C	-0.26894	1.171924	0.893256
H	0.476276	1.883311	0.537297
H	-0.070835	0.9749	1.950027
H	-1.285556	1.554773	0.785831
F	2.223506	0.768917	-0.574748
