16

C	-0.50042	-0.051312	-1.486304
C	0.017927	-0.085884	-0.035323
Cl	0.244839	1.343306	-2.334598
H	1.109527	-0.048018	0.006608
C	-0.069896	-1.268649	-2.194219
N	0.228373	-2.256727	-2.754825
N	-1.943625	0.063305	-1.667745
H	-2.377184	-0.705943	-1.162684
H	-2.239485	0.928064	-1.227305
C	-0.549494	-1.273	0.584327
N	-1.04789	-2.220602	1.07458
C	-0.333639	1.163939	0.772841
H	-1.410114	1.361765	0.844555
H	0.079499	1.025064	1.770924
H	0.20781	2.000476	0.339631
F	2.382631	0.730659	0.328029
