16

C	0.002906	0.033094	-1.486982
C	0.025419	0.018404	0.049535
Cl	-1.708629	-0.251813	-2.098228
H	1.111661	0.082831	0.231087
C	0.331314	1.393992	-1.967955
N	0.591708	2.45639	-2.399228
N	0.872666	-0.981496	-1.961211
H	1.792915	-0.722661	-1.47286
H	0.975261	-0.895087	-2.967191
C	-0.468756	-1.265323	0.53791
N	-0.888172	-2.249066	1.024768
C	-0.730279	1.170903	0.705663
H	-0.658805	1.084053	1.792106
H	-1.78672	1.16833	0.426559
H	-0.285425	2.123073	0.410544
F	2.687673	0.081155	-0.533434
