16

C	-0.016545	-0.040978	-1.482951
C	0.023901	0.017425	0.052339
Cl	-1.726048	-0.404197	-2.057498
H	1.105317	0.122869	0.217579
C	0.265406	1.304851	-2.031373
N	0.491349	2.349845	-2.520715
N	0.877734	-1.050388	-1.920343
H	0.966651	-1.007789	-2.930436
H	1.795668	-0.741447	-1.455691
C	-0.426118	-1.256045	0.606303
N	-0.814503	-2.227703	1.140764
C	-0.759654	1.176296	0.663235
H	-0.672452	1.143777	1.751516
H	-0.348373	2.126462	0.317273
H	-1.818696	1.127859	0.398778
F	2.677105	0.130584	-0.570942
