14

C	0.0	0.0	0.0
C	-0.506865	-0.216347	-1.414618
Cl	1.822642	0.0	0.0
H	-1.604974	-0.141897	-1.370078
H	-0.122942	0.567836	-2.066012
N	-0.297936	1.491811	0.395077
O	-0.317016	2.332244	-0.494417
O	-0.434678	1.702917	1.592443
N	-0.518567	-0.917489	0.902895
H	-1.542202	-0.914453	0.79256
H	-0.283994	-0.651823	1.851658
C	-0.110283	-1.523248	-1.922233
N	0.19993	-2.557331	-2.382914
Br	-3.673276	0.0	0.0
