10
Coordinates from ORCA-job run
  C   0.46006626364320     -0.46558083448635      0.12239892339121
  C   -0.45979756839046      0.46592060025825     -0.12207294400891
  H   0.25607541235273     -1.49938023858762      0.36404137242237
  H   -0.25700506390036      1.49983293367887     -0.36418792372913
  N   1.87612481900289     -0.11458035625358      0.07511232873594
  O   2.18471064164570      1.04245901735053     -0.19530287574418
  O   2.65300193607675     -1.03884809470572      0.31714396083545
  N   -1.87583253544961      0.11453319621754     -0.07492405646492
  O   -2.18446369826172     -1.04234640710438      0.19623855950481
  O   -2.65288020671913      1.03799018363245     -0.31944734494264
