10
Coordinates from ORCA-job run
  C   -0.46229270300956      0.47180386674991     -0.08415420821959
  C   0.46209419094955     -0.47200225484167      0.08439284355029
  H   -0.26312571959205      1.51730295202906     -0.27394640829173
  H   0.26292476948317     -1.51760745865214      0.27359656207407
  N   -1.87711407520547      0.11958888722563     -0.01704512122020
  O   -2.65843667119791      1.05611647071432     -0.18668439502412
  O   -2.18056672835511     -1.05055023773490      0.19711064585657
  N   1.87691542797396     -0.11972749862226      0.01757153635691
  O   2.18037111717397      1.05107925858026     -0.19289902796514
  O   2.65823039177944     -1.05700398544821      0.18305757288296
