10
Coordinates from ORCA-job run
  C   0.63946614011111     -0.27359700349466     -0.69599144551247
  C   -0.68971784263579     -0.31032654460096     -0.62927177190678
  H   1.19036768859738     -0.60143564486562     -1.56771246974491
  H   -1.30393857773301     -0.71698098424673     -1.42188820658113
  N   1.48929447283405      0.23454902082438      0.37772967701669
  O   2.40157523985571      0.96884905261682      0.00648339489602
  O   1.25084749907600     -0.12580437356663      1.52519070620672
  N   -1.45523959070081      0.16211970331289      0.52150797026943
  O   -2.36909052429565     -0.58120207238783      0.87024904384304
  O   -1.15356450510899      1.24382884640834      1.01370310151338
