10
Coordinates from ORCA-job run
  C   0.69069428293972      0.46972039684677     -0.51974940599296
  C   -0.63934567740785      0.52893798947838     -0.52836596948122
  H   1.30619745575170      1.05143620000287     -1.19327221035868
  H   -1.19010042824650      1.20076834992952     -1.17349881019133
  N   1.45591513148489     -0.40116269075902      0.36853137475501
  O   2.38852851369289     -0.99206062038652     -0.17040734647493
  O   1.13570792379543     -0.44854375177526      1.55117053018933
  N   -1.49071052279263     -0.27604439232228      0.34392353808652
  O   -2.41230790985485      0.34043880610440      0.87285792351644
  O   -1.24457876936280     -1.47249028711886      0.44981037595182
