10
Coordinates from ORCA-job run
  C   0.67221523761312      0.14167542498468     -0.70458912027655
  C   -0.65584259274106      0.23542086112766     -0.69435152898959
  H   1.26344590792511      0.31242161747968     -1.59461736391934
  H   -1.22714253253940      0.53831375187941     -1.56197846739689
  N   1.46578109427563     -0.22738050470793      0.46478209348209
  O   2.36177734836848     -1.03793452916860      0.24222198229002
  O   1.20253883625929      0.30782062617056      1.53609263601612
  N   -1.47665515268776     -0.02878313513493      0.48453725270528
  O   -2.36744677528312      0.79323792380686      0.68456911116546
  O   -1.23867137119028     -1.03579203643739      1.14233340492339
