10
Coordinates from ORCA-job run
  C   0.68809388797271      0.10531140745594     -0.69465219849306
  C   -0.63117798310284      0.28490277713845     -0.69820769812426
  H   1.29905936900091      0.24753359965808     -1.57633771254803
  H   -1.17056106249181      0.63378526483707     -1.56896783661893
  N   1.44313042986251     -0.32692159007383      0.47859387979598
  O   2.28613676441757     -1.19245093121330      0.25621246877125
  O   1.20459447688165      0.21419365491743      1.55265586416947
  N   -1.48178794946089      0.06150486306597      0.46797195011562
  O   -1.31402494232568     -0.96348461477768      1.11955374610474
  O   -2.32346299075412      0.93462556899188      0.66417753682721
