10
Coordinates from ORCA-job run
  C   -0.47713009304643      0.44384153429138      0.13667513369792
  C   0.47713981176582     -0.44480015662964     -0.13443637105743
  H   -0.31136675925594      1.46049123720032      0.46486367060863
  H   0.31125565767283     -1.46117475672140     -0.46340630493900
  N   -1.87966069541165      0.06763680830191     -0.01071727002339
  O   -2.14552281294533     -1.07811612370526     -0.36261681535108
  O   -2.69034559264706      0.96055249161237      0.23794174303354
  N   1.87963034965010     -0.06751142994853      0.01086133102579
  O   2.14502527229321      1.07466123202231      0.37447640558776
  O   2.69097486192446     -0.95558083642348     -0.25264152258273
