10
Coordinates from ORCA-job run
  C   -0.52324217248207     -0.09144799827171     -0.40188467984604
  C   0.52281899634965      0.08881184411828      0.40255824167449
  H   -0.47740607614315     -0.45901156922057     -1.41751549391843
  H   0.47695467140846      0.45866101692006      1.41735209299540
  N   -1.86563224262294      0.22543365503902      0.07538468330749
  O   -2.76573125788430      0.06734263796243     -0.75002965994157
  O   -2.00008279622265      0.61678970883567      1.23122010991376
  N   1.86545785150454     -0.22593743928014     -0.07550065216961
  O   1.99749511067732     -0.63855701936290     -1.22411882865951
  O   2.76836791541515     -0.04208483674015      0.74153418664404
