18

C	0.0	0.0	0.0
C	-0.376134	0.04721	-1.530092
Br	1.935728	0.0	0.0
H	-1.456552	-0.102245	-1.534426
C	-0.307102	1.24663	0.83455
H	0.060471	1.067151	1.844789
H	-1.381391	1.417161	0.858322
H	0.196725	2.118244	0.417287
N	-0.729803	-1.175939	0.575761
O	-0.713864	-1.253413	1.830281
O	-0.748986	-2.21014	-0.160089
N	0.251433	-0.85902	-2.445397
H	0.028983	-1.776404	-2.070953
H	1.256205	-0.739006	-2.415621
N	-0.177723	1.442136	-2.041561
O	-1.068501	2.26248	-1.814923
O	0.862368	1.691603	-2.651232
H	-2.216679	0.0	0.0
