15

C	-0.557135	0.006336	-1.41928
C	0.0	0.0	0.0
Br	-0.036584	-1.586351	-2.415627
H	1.097877	0.0	0.0
H	-0.076656	0.818536	-1.979078
N	-2.004418	0.082182	-1.367774
H	-2.376652	0.229463	-2.297747
H	-2.207334	0.892473	-0.788893
N	-0.485438	-1.13533	0.728414
H	-1.484065	-1.072848	0.866413
H	0.000549	-1.227916	1.608294
N	-0.46892	1.300709	0.582792
H	-0.350145	1.21597	1.587509
H	0.20332	2.008754	0.296229
Cl	3.546341	0.0	0.0
