15

C	-0.410621	-0.119916	-1.468079
C	0.0	0.0	0.0
Br	-0.227159	1.654428	-2.407408
H	1.102268	0.0	0.0
H	-1.477392	-0.327434	-1.56842
N	0.373094	-1.144533	-2.057446
H	0.201353	-1.237922	-3.049313
H	1.361652	-0.959885	-1.892968
N	-0.51159	-1.226285	0.649398
H	-0.250529	-2.00708	0.054333
H	0.028447	-1.338202	1.50387
N	-0.524445	1.166638	0.669654
H	0.198467	1.5764	1.244639
H	-1.296422	0.871385	1.254846
Cl	3.483573	0.0	0.0
