15

C	-0.530738	-0.010471	-1.436979
C	0.0	0.0	0.0
Br	0.019163	-1.646695	-2.377366
H	1.098138	0.0	0.0
H	-0.043707	0.785431	-2.014486
N	-1.975122	0.042052	-1.408705
H	-2.34303	0.23617	-2.331519
H	-2.195282	0.81263	-0.780644
N	-0.492249	-1.098753	0.806781
H	0.177006	-1.854723	0.754766
H	-1.373596	-1.422201	0.424805
N	-0.511819	1.264396	0.582356
H	-0.520239	1.101418	1.5827
H	0.185278	1.983886	0.409384
Cl	3.530099	0.0	0.0
