15

C	-0.375184	-0.268478	-1.459911
C	0.0	0.0	0.0
Br	-0.620079	1.576937	-2.556615
H	1.099108	0.0	0.0
H	-1.389859	-0.637455	-1.581373
N	0.581838	-1.069642	-2.031491
H	0.434656	-1.328193	-2.993676
H	1.538771	-0.801946	-1.815764
N	-0.457059	-1.180968	0.737762
H	-1.146908	-0.866435	1.408124
H	0.329026	-1.58882	1.226162
N	-0.602308	1.191676	0.580485
H	-0.040432	1.425908	1.392392
H	-0.503435	1.96155	-0.069323
Cl	3.474463	0.0	0.0
