15

C	-0.538399	0.119458	-1.424121
C	0.0	0.0	0.0
Br	0.103165	-1.46745	-2.521362
H	1.095239	0.0	0.0
H	-0.076119	0.957549	-1.944454
N	-1.953118	0.218424	-1.401886
H	-2.356024	0.196101	-2.328387
H	-2.301677	-0.556692	-0.845998
N	-0.607224	-1.183866	0.619428
H	-0.494475	-1.049855	1.617769
H	-0.057841	-1.996413	0.358823
N	-0.402245	1.165254	0.781062
H	0.335214	1.855738	0.728795
H	-1.263775	1.549979	0.415339
Cl	3.520022	0.0	0.0
