15

C	-0.534527	0.168285	-1.419998
C	0.0	0.0	0.0
Br	0.127055	-1.368158	-2.573489
H	1.10146	0.0	0.0
H	-0.078693	1.028525	-1.907267
N	-1.948563	0.251677	-1.397888
H	-2.347964	0.268677	-2.325801
H	-2.293745	-0.544543	-0.871788
N	-0.609142	-1.203668	0.576909
H	-0.499714	-1.102159	1.580047
H	-0.053566	-2.00295	0.289328
N	-0.401158	1.141011	0.816238
H	0.331268	1.836403	0.781061
H	-1.262458	1.534104	0.457574
Cl	3.519241	0.0	0.0
