15

C	-0.526693	-0.058678	-1.436891
C	0.0	0.0	0.0
Br	0.000295	-1.735635	-2.314999
H	1.10065	0.0	0.0
H	-0.026173	0.705936	-2.040998
N	-1.968267	0.019772	-1.414478
H	-2.329688	0.182058	-2.345658
H	-2.173134	0.82067	-0.820644
N	-0.499198	-1.066963	0.843663
H	-1.37403	-1.411671	0.464263
H	0.174361	-1.821093	0.836513
N	-0.501965	1.28943	0.537368
H	0.227267	1.981565	0.394903
H	-0.570839	1.140662	1.537573
Cl	3.509316	0.0	0.0
