15

C	-0.441543	-0.002736	-1.456923
C	0.0	0.0	0.0
Br	0.225591	1.637266	-2.367693
H	1.100105	0.0	0.0
H	-1.531261	0.129884	-1.536283
N	0.108144	-1.138162	-2.128511
H	-0.01652	-1.930894	-1.506795
H	-0.337905	-1.30232	-3.020885
N	-0.445902	-1.265401	0.567574
H	0.159275	-1.520215	1.341514
H	-1.390174	-1.144676	0.926073
N	-0.633222	1.115283	0.703603
H	-0.240895	1.150834	1.639378
H	-0.375201	1.985085	0.250356
Cl	2.707265	0.0	0.0
