17

C	0.0	0.0	0.0
C	-0.477296	-0.074878	-1.469037
Br	1.963367	0.0	0.0
H	-1.571404	-0.083111	-1.39695
N	-0.475604	1.201684	0.606891
H	-1.502819	1.176917	0.542299
H	-0.209003	1.222295	1.585132
C	-0.364595	-1.26076	0.673388
N	-0.60436	-2.274924	1.219513
C	0.068066	-1.240947	-2.265954
H	1.142529	-1.148346	-2.414467
H	-0.148269	-2.178181	-1.750588
H	-0.415113	-1.269063	-3.244928
N	-0.135353	1.216114	-2.163102
O	-0.976314	2.109274	-2.131477
O	0.953046	1.293536	-2.737979
Cl	-3.467402	0.0	0.0
