13

C	-0.292286	0.049795	-1.510183
C	0.0	0.0	0.0
Br	-0.063965	-1.76835	-2.262823
H	1.093914	0.0	0.0
H	-0.295874	0.971488	0.415497
C	-1.673853	0.438499	-1.812301
N	-2.774746	0.804873	-2.003158
N	0.638868	0.925064	-2.183279
H	1.562106	0.729427	-1.76813
H	0.399586	1.88427	-1.94443
C	-0.626501	-1.061147	0.756133
N	-1.127144	-1.904373	1.404651
H	2.731376	0.0	0.0
