13

C	-0.2193	0.147818	-1.511023
C	0.0	0.0	0.0
Br	-0.091124	-1.840985	-2.258116
H	1.091858	0.0	0.0
H	-0.411645	-0.924691	0.399528
C	-1.564442	0.505749	-1.956006
N	-2.640346	0.838571	-2.295809
N	0.761291	0.990805	-1.994732
H	0.790897	1.087448	-2.999687
H	1.678605	0.782899	-1.554609
C	-0.499745	1.157916	0.719375
N	-0.899171	2.080126	1.329398
H	2.728535	0.0	0.0
