13

C	-0.276551	0.130074	-1.496414
C	0.0	0.0	0.0
Br	-0.05562	-1.753219	-2.339399
H	1.094542	0.0	0.0
H	-0.306181	0.940955	0.465964
C	-1.655946	0.459062	-1.853347
N	-2.758783	0.773426	-2.113146
N	0.641321	1.067617	-1.984612
H	0.646416	1.13142	-2.99466
H	1.577983	0.862677	-1.597003
C	-0.617438	-1.111168	0.688843
N	-1.104594	-1.980126	1.312382
H	2.721291	0.0	0.0
