13

C	-0.252674	0.070618	-1.508027
C	0.0	0.0	0.0
Br	-0.050113	-1.849352	-2.270263
H	1.102157	0.0	0.0
H	-0.304897	0.961931	0.425714
C	-1.622111	0.408639	-1.90021
N	-2.716413	0.732761	-2.18581
N	0.685343	0.972382	-2.019766
H	1.613116	0.774953	-1.606967
H	0.708877	0.99768	-3.029979
C	-0.62659	-1.083182	0.720246
N	-1.124777	-1.932183	1.36274
H	2.713775	0.0	0.0
