16

C	-0.419157	0.002609	-1.477353
C	0.0	0.0	0.0
Br	-0.035015	-1.811297	-2.189572
H	1.093686	0.0	0.0
N	-1.958611	0.15788	-1.559751
O	-2.629113	-0.723977	-1.046478
O	-2.391301	1.177564	-2.094931
N	0.199674	1.008867	-2.209958
H	1.089392	1.308769	-1.819673
H	-0.43095	1.754836	-2.475038
C	-0.50662	-1.087843	0.818545
N	-0.844488	-1.951908	1.538876
N	-0.4657	1.316498	0.581203
O	0.28742	2.275876	0.444637
O	-1.582877	1.337109	1.102303
Br	3.325832	0.0	0.0
