15

C	-0.205814	-0.039617	-1.523789
C	0.0	0.0	0.0
Cl	-1.949025	-0.25713	-1.982561
H	1.098625	0.0	0.0
C	0.21939	1.243765	-2.087131
N	0.563503	2.265296	-2.554696
C	0.636852	-1.166829	-2.103675
H	0.623949	-1.135221	-3.194497
H	1.643269	-1.01553	-1.700015
H	0.240898	-2.126068	-1.764054
C	-0.46584	-1.223796	0.625301
N	-0.819095	-2.229573	1.121443
C	-0.562392	1.176021	0.630878
N	-1.003362	2.134245	1.149617
F	2.481567	0.0	0.0
