15

C	-0.379082	-0.018462	-1.496438
C	0.0	0.0	0.0
Cl	0.317868	1.44917	-2.264086
H	1.096599	0.0	0.0
C	0.240397	-1.191467	-2.117594
N	0.662528	-2.172548	-2.606023
C	-1.879812	-0.023366	-1.756884
H	-2.081577	-0.019604	-2.830323
H	-2.324548	0.866186	-1.308006
H	-2.326257	-0.913972	-1.307494
C	-0.48858	-1.202671	0.647782
N	-0.884368	-2.18939	1.15075
C	-0.52509	1.180398	0.657519
N	-0.944719	2.142801	1.188415
F	2.434218	0.0	0.0
