15

C	-0.365141	-0.019412	-1.50129
C	0.0	0.0	0.0
Cl	0.316711	1.459377	-2.260283
H	1.096591	0.0	0.0
C	0.275298	-1.178574	-2.131102
N	0.68776	-2.127321	-2.687867
C	-1.864125	-0.04824	-1.773525
H	-2.297298	-0.948544	-1.330697
H	-2.325301	0.833779	-1.325353
H	-2.057346	-0.046575	-2.847906
C	-0.483844	-1.20973	0.638777
N	-0.880564	-2.195992	1.143669
C	-0.534376	1.176468	0.65599
N	-0.954611	2.137267	1.189463
F	2.430718	0.0	0.0
