15

C	-0.209744	-0.03272	-1.523535
C	0.0	0.0	0.0
Cl	-1.95338	-0.246114	-1.979829
H	1.098502	0.0	0.0
C	0.218511	1.25038	-2.085993
N	0.54279	2.265944	-2.579376
C	0.629734	-1.162211	-2.109795
H	1.639831	-1.012048	-1.713282
H	0.607851	-1.130535	-3.200512
H	0.233976	-2.120877	-1.768459
C	-0.465406	-1.225975	0.621632
N	-0.806504	-2.23935	1.110991
C	-0.559632	1.175225	0.635799
N	-0.98897	2.140988	1.151145
F	2.481719	0.0	0.0
