15

C	-0.364206	-0.01154	-1.501731
C	0.0	0.0	0.0
Cl	0.315756	1.473241	-2.251009
H	1.096579	0.0	0.0
C	0.278885	-1.165754	-2.138111
N	0.694084	-2.110624	-2.699589
C	-1.862948	-0.040976	-1.775463
H	-2.055117	-0.03285	-2.849989
H	-2.326116	0.837511	-1.322117
H	-2.295074	-0.944876	-1.338974
C	-0.483305	-1.213434	0.631885
N	-0.879242	-2.203005	1.130787
C	-0.535482	1.172541	0.662027
N	-0.95928	2.129004	1.2005
F	2.430552	0.0	0.0
