15

C	-0.251247	0.032376	-1.529619
C	0.0	0.0	0.0
Cl	0.256859	-1.556053	-2.199249
H	1.097282	0.0	0.0
C	-1.664542	0.208619	-1.869861
N	-2.794657	0.38198	-2.146798
C	0.63636	1.117524	-2.131979
H	0.616811	1.066173	-3.221496
H	0.281877	2.100184	-1.809787
H	1.638985	0.935569	-1.73024
C	-0.57521	-1.151985	0.66632
N	-1.029393	-2.083201	1.222476
C	-0.461421	1.239403	0.602733
N	-0.814237	2.260346	1.068502
F	2.492449	0.0	0.0
