15

C	-0.253302	0.032028	-1.52983
C	0.0	0.0	0.0
Cl	0.250094	-1.556894	-2.200006
H	1.097321	0.0	0.0
C	-1.666664	0.207647	-1.864888
N	-2.798382	0.375357	-2.135578
C	0.632658	1.117915	-2.129908
H	0.615808	1.066211	-3.219834
H	0.277581	2.101088	-1.80842
H	1.634173	0.934875	-1.722626
C	-0.571883	-1.154653	0.664999
N	-1.016092	-2.09158	1.219993
C	-0.461161	1.237981	0.606559
N	-0.81605	2.256893	1.074478
F	2.491983	0.0	0.0
