17
Coordinates from ORCA-job run
  C   0.79126923305996     -0.10446560660420      0.65614662640290
  C   -0.50836197366951     -0.31224659495819     -0.10635858344307
  F   0.90910474353351     -1.13382499266373      1.60234448154919
  H   -0.43286739887291     -1.29629341921845     -0.58789711145176
  H   0.73302871135554      0.82932911168224      1.23083209686818
  C   2.04417013811468     -0.12468270388540     -0.19184164710542
  H   2.06954868743096     -1.02694785589289     -0.80777676470529
  H   2.10042494978170      0.74968891975776     -0.84194305897963
  H   2.92177768816791     -0.12522358548218      0.45700177775991
  C   -0.69115211341303      0.75602277192838     -1.18256786114712
  H   -0.64280490609827      1.75907604942813     -0.74550657492758
  H   0.06602025368161      0.68984159457762     -1.96598299433992
  H   -1.66904791621074      0.65197848230978     -1.65876736771881
  C   -1.69524793816351     -0.32882589421765      0.85397549917979
  H   -1.80818288356212      0.64556696952336      1.34059430173948
  H   -1.56329797890642     -1.08374074838949      1.62938898067007
  H   -2.62338129622936     -0.54425249789510      0.31835819964908
