16

C	0.0	0.0	0.0
C	-0.504745	-0.288383	-1.435296
Br	1.981417	0.0	0.0
H	-1.605245	-0.256139	-1.365275
N	-0.430571	1.344131	0.288266
H	-0.055442	1.630264	1.18723
H	-1.453872	1.302051	0.356511
N	-0.420377	-1.093455	0.831456
H	-1.44298	-1.115584	0.773152
H	-0.1605	-0.89403	1.791652
N	-0.156307	-1.683783	-1.879364
O	0.926778	-1.855823	-2.43258
O	-0.989052	-2.550495	-1.645133
C	-0.010404	0.669016	-2.412245
N	0.350228	1.419234	-3.240652
Cl	-3.479808	0.0	0.0
