17

C	-0.524441	0.01162	-1.442873
C	0.0	0.0	0.0
Br	0.161604	-1.726684	-2.264009
H	1.090943	0.0	0.0
N	-1.930466	0.117032	-1.5226
H	-2.386663	-0.611355	-0.988674
H	-2.235472	0.096223	-2.486996
C	0.155556	1.132111	-2.206103
H	1.239372	1.048306	-2.11861
H	-0.179728	2.085954	-1.7881
H	-0.137941	1.08931	-3.258099
N	-0.440745	-1.236703	0.754481
O	0.41929	-1.873331	1.343992
O	-1.643894	-1.513067	0.739005
C	-0.509358	1.155696	0.731378
N	-0.885858	2.101964	1.317352
Cl	3.161478	0.0	0.0
