17

C	-0.407305	-0.031177	-1.489305
C	0.0	0.0	0.0
Br	-0.195844	1.922052	-2.140036
H	1.095209	0.0	0.0
N	0.463119	-0.901978	-2.147811
H	0.329035	-0.905006	-3.149212
H	1.440421	-0.75132	-1.897188
C	-1.864517	-0.36601	-1.738219
H	-2.088015	-0.276432	-2.80284
H	-2.522221	0.304378	-1.183993
H	-2.048855	-1.397125	-1.426621
N	-0.444097	-1.307702	0.619163
O	-1.502587	-1.308957	1.254573
O	0.258856	-2.285529	0.40092
C	-0.573114	1.089682	0.77104
N	-1.022749	1.960709	1.418829
Cl	3.214327	0.0	0.0
