17

C	-0.41009	-0.011986	-1.480395
C	0.0	0.0	0.0
Br	-2.482599	-0.385173	-1.530835
H	1.093857	0.0	0.0
N	-0.116062	1.23456	-2.025867
H	-0.530974	2.021185	-1.548151
H	-0.270155	1.278903	-3.021904
C	0.229101	-1.123091	-2.283644
H	-0.108736	-2.100983	-1.95472
H	-0.029402	-0.996693	-3.338658
H	1.311814	-1.044884	-2.143846
N	-0.439415	-1.227351	0.739801
O	0.07856	-2.280103	0.384453
O	-1.253862	-1.099516	1.65153
C	-0.502052	1.185092	0.68007
N	-0.855801	2.196609	1.161758
Cl	3.175191	0.0	0.0
