17

C	-0.503291	0.038047	-1.457002
C	0.0	0.0	0.0
Br	0.160339	-1.540904	-2.433094
H	1.09125	0.0	0.0
N	-1.944676	-0.039404	-1.48102
H	-2.278574	0.128114	-2.422963
H	-2.339038	0.659858	-0.858939
C	0.124404	1.252673	-2.135401
H	1.210442	1.233182	-2.017972
H	-0.273357	2.166531	-1.683351
H	-0.128634	1.24827	-3.198144
N	-0.526336	-1.197377	0.739351
O	-1.575961	-1.056985	1.36924
O	0.119239	-2.233351	0.644347
C	-0.474511	1.198831	0.687596
N	-0.842527	2.198472	1.184377
Cl	3.216722	0.0	0.0
