17

C	-0.411504	0.005819	-1.476066
C	0.0	0.0	0.0
Br	-2.498888	-0.297361	-1.556449
H	1.093755	0.0	0.0
N	-0.068	1.240087	-2.029225
H	-0.492005	2.034982	-1.567288
H	-0.221488	1.271928	-3.026902
C	0.177735	-1.130846	-2.280236
H	1.265936	-1.069478	-2.180948
H	-0.16269	-2.096878	-1.91972
H	-0.124635	-1.020741	-3.324846
N	-0.435562	-1.235615	0.713762
O	0.120905	-2.283441	0.377577
O	-1.286471	-1.126592	1.612614
C	-0.49938	1.171158	0.699513
N	-0.852419	2.170938	1.204592
Cl	3.036926	0.0	0.0
