17

C	-0.436886	-0.004205	-1.459249
C	0.0	0.0	0.0
Br	-2.417895	0.186428	-1.58224
H	1.09424	0.0	0.0
N	0.116992	1.214362	-2.0278
H	1.11023	1.053847	-2.21145
H	-0.362005	1.457162	-2.889342
C	-0.053181	-1.285426	-2.188711
H	-0.309115	-1.179033	-3.246287
H	-0.567327	-2.161711	-1.792555
H	1.025109	-1.429138	-2.075147
N	-0.372121	-1.235481	0.762859
O	-1.516929	-1.324206	1.220053
O	0.338882	-2.23544	0.522163
C	-0.497526	1.144117	0.729318
N	-0.853153	2.068372	1.36305
Cl	2.864272	0.0	0.0
