17

C	-0.484606	0.035932	-1.459485
C	0.0	0.0	0.0
Br	0.073162	-1.764236	-2.244248
H	1.090909	0.0	0.0
N	-1.874228	0.257397	-1.577167
H	-2.4054	-0.421017	-1.04607
H	-2.158719	0.250392	-2.548188
C	0.317757	1.083331	-2.210773
H	0.050264	2.069005	-1.818118
H	0.068449	1.049229	-3.27443
H	1.387211	0.910638	-2.074243
N	-0.495748	-1.218112	0.738474
O	0.32827	-1.906688	1.319741
O	-1.712156	-1.425501	0.713797
C	-0.497583	1.169793	0.719338
N	-0.879709	2.11821	1.297704
Cl	3.251041	0.0	0.0
