17

C	-0.517022	0.007808	-1.464582
C	0.0	0.0	0.0
Br	0.328208	1.635459	-2.239624
H	1.091374	0.0	0.0
N	-0.072693	-1.125834	-2.226376
H	0.892125	-1.351056	-1.984577
H	-0.66531	-1.924202	-2.018326
C	-2.0245	0.164874	-1.573034
H	-2.531492	-0.683246	-1.10228
H	-2.353725	1.080342	-1.08173
H	-2.284155	0.211046	-2.63102
N	-0.432182	-1.302345	0.60492
O	0.354776	-2.241006	0.536826
O	-1.53852	-1.365539	1.162741
C	-0.537045	1.085794	0.796116
N	-0.939546	1.981718	1.437388
Cl	3.047106	0.0	0.0
