17

C	-0.448881	-0.000826	-1.478739
C	0.0	0.0	0.0
Br	-2.425706	-0.15324	-1.562965
H	1.094897	0.0	0.0
N	-0.114941	1.228827	-2.145891
H	-0.480435	2.035073	-1.653247
H	0.893261	1.310545	-2.226406
C	0.143398	-1.15649	-2.266502
H	-0.174643	-2.120318	-1.87568
H	1.234084	-1.105148	-2.202431
H	-0.167948	-1.060697	-3.308001
N	-0.409202	-1.251858	0.715428
O	-1.348821	-1.203789	1.511798
O	0.30756	-2.231545	0.512541
C	-0.494129	1.161577	0.706724
N	-0.843307	2.157207	1.230329
Cl	2.682947	0.0	0.0
