14

C	-0.602168	0.019267	-1.388011
C	0.0	0.0	0.0
Br	0.099622	1.584676	-2.310265
H	1.089229	0.0	0.0
H	-0.322573	0.892468	0.539104
N	-0.181443	-1.191242	-2.236088
O	-0.917318	-1.452186	-3.180356
O	0.856552	-1.743133	-1.923537
C	-2.058255	0.095933	-1.389362
N	-3.226509	0.22454	-1.343805
N	-0.505252	-1.160068	0.779495
O	-1.095855	-2.054286	0.169394
O	-0.29277	-1.140458	1.98451
Cl	3.237744	0.0	0.0
