14

C	-0.586188	0.019148	-1.4077
C	0.0	0.0	0.0
Br	0.301788	1.437709	-2.380234
H	1.095924	0.0	0.0
H	-0.342265	0.90246	0.5129
N	-0.312662	-1.330232	-2.104733
O	0.777427	-1.494312	-2.622543
O	-1.229695	-2.143777	-2.022006
C	-2.019698	0.287273	-1.456144
N	-3.138826	0.647378	-1.487822
N	-0.527395	-1.147222	0.804
O	-1.736667	-1.37675	0.72958
O	0.267011	-1.742434	1.524046
Cl	3.340778	0.0	0.0
