14

C	-0.525725	0.036344	-1.41506
C	0.0	0.0	0.0
Br	-2.492037	0.122947	-1.428432
H	1.102056	0.0	0.0
H	-0.361315	0.867035	0.545307
N	-0.072458	1.373924	-2.05099
O	-0.064815	2.343551	-1.30925
O	0.184339	1.355344	-3.24505
C	-0.124915	-1.047601	-2.29512
N	0.142703	-1.896426	-3.063544
N	-0.475545	-1.196251	0.728619
O	-0.795719	-1.031267	1.904175
O	-0.487134	-2.271103	0.132483
Cl	3.179183	0.0	0.0
