15

C	0.0	0.0	0.0
C	-0.35869	0.013814	-1.487427
Br	1.947156	0.0	0.0
H	0.103238	0.897649	-1.933737
H	0.148973	-0.851809	-1.926928
N	-0.435454	1.278087	0.68058
O	-0.544422	1.249709	1.899267
O	-0.557347	2.272129	-0.023864
C	-0.415562	-1.228483	0.783829
H	0.024378	-1.205536	1.781124
H	-0.050239	-2.110556	0.252232
H	-1.507188	-1.189405	0.808922
C	-1.765141	-0.025208	-1.935087
N	-2.541367	-0.075492	-2.825372
F	-2.55638	0.0	0.0
