15

C	0.0	0.0	0.0
C	-0.408353	0.011956	-1.473818
Br	1.951571	0.0	0.0
H	-0.270474	1.028932	-1.848547
H	0.305611	-0.620945	-2.009723
N	-0.4326	1.26099	0.721367
O	-0.53127	1.192386	1.939611
O	-0.560043	2.281459	0.057022
C	-0.396091	-1.243032	0.774527
H	-0.051875	-2.117255	0.215117
H	0.071108	-1.242171	1.75841
H	-1.485142	-1.208811	0.830337
C	-1.753838	-0.462359	-1.856261
N	-2.480813	-0.925641	-2.665089
F	-2.544262	0.0	0.0
