15

C	0.0	0.0	0.0
C	-0.595216	0.120654	-1.388044
Br	1.958842	0.0	0.0
H	-1.712199	0.059984	-1.111963
H	-0.359832	1.091088	-1.824683
N	-0.390733	1.251269	0.785693
O	-0.507435	1.138249	1.998516
O	-0.489275	2.301166	0.160788
C	-0.472409	-1.237125	0.72784
H	-0.151668	-2.115759	0.163393
H	-1.566596	-1.139261	0.730971
H	-0.056225	-1.279173	1.732694
C	-0.147224	-0.94388	-2.262227
N	0.208933	-1.796635	-2.989554
F	-2.819353	0.0	0.0
