15

C	0.0	0.0	0.0
C	-0.625168	-0.001401	-1.379458
Br	1.938744	0.0	0.0
H	-1.743781	0.004141	-1.067551
H	-0.362619	0.902512	-1.928128
N	-0.382958	1.321075	0.672694
O	-0.501136	1.319035	1.890345
O	-0.470367	2.311741	-0.044168
C	-0.479458	-1.159445	0.845594
H	-1.572447	-1.056825	0.848806
H	-0.171338	-2.090218	0.364325
H	-0.055189	-1.111317	1.846597
C	-0.268524	-1.18047	-2.139063
N	-0.005908	-2.135373	-2.774198
F	-2.846846	0.0	0.0
