13
Coordinates from ORCA-job run
  C   0.55067221228969     -0.41439980635534      0.58479674034685
  C   -0.33676775771108      0.51393326412500     -0.28234296434392
  F   -0.20730147653179     -1.08505215487245      1.50022352202007
  H   0.29682942944388      1.18369897441301     -0.86937127071962
  C   1.26209220388406     -1.36964421645952     -0.27962593318260
  N   1.83977759351828     -2.10058677640579     -0.99577601975962
  C   1.52236833023939      0.43596238498084      1.29437776347195
  N   2.28575026954130      1.13787377024795      1.84715658769206
  C   -1.25737828376826      1.26666390394573      0.55753427301299
  N   -1.99375160029441      1.87737002623650      1.23912033383223
  N   -1.13086219597613     -0.29610744614293     -1.29343566266142
  O   -1.65050542737388     -1.32359092821233     -0.88120747784755
  O   -1.18092329726104      0.17587900449933     -2.42144989186141
