13
Coordinates from ORCA-job run
  C   0.93959420782760      0.01305066630191      0.21752686844055
  C   -0.31106499950902      0.50363151120774     -0.55262377979420
  F   1.88845830720465      0.99576959608380      0.04010103885395
  H   -0.00020094572008      0.74354893829888     -1.57209039479240
  C   0.70243392199229     -0.15595225767784      1.65559422648985
  N   0.57239995437152     -0.24744178799754      2.82009820514587
  C   1.42182872701434     -1.23911868596032     -0.38461367037244
  N   1.79594938725047     -2.22589019227602     -0.90183712284352
  C   -0.91272018353554      1.65573067493668      0.10092994192837
  N   -1.39257723362151      2.58812968133177      0.63097881695632
  N   -1.32753632609806     -0.61307988837253     -0.66054835207550
  O   -1.78209370174784     -0.81980640904003     -1.77718195655808
  O   -1.59547111542883     -1.19657184683651      0.38266617862124
