13
Coordinates from ORCA-job run
  C   0.59717700978527     -0.30441145782949      0.60489678036996
  C   -0.36894724494801      0.45787886016640     -0.33630042554719
  F   -0.08395984573021     -0.84518638462047      1.65648399806359
  H   0.20738562522890      1.04111549891490     -1.05900004488883
  C   1.28657553530022     -1.36463638866753     -0.14776190195958
  N   1.83855305958078     -2.18826398679659     -0.77850361807685
  C   1.58098550421303      0.66551502664989      1.11652689957287
  N   2.35384853808988      1.45761335289599      1.51199926118323
  C   -1.26324163302895      1.31097708405485      0.43295483197351
  N   -1.97894429909806      2.00504244481186      1.05412869228362
  N   -1.19320127734711     -0.52000276437618     -1.15720727728164
  O   -1.68573032513732     -1.46015511993314     -0.54956665957108
  O   -1.28950064690843     -0.25648616527049     -2.34865053612162
