13
Coordinates from ORCA-job run
  C   0.62345734566001     -0.31041679362948      0.57574422423042
  C   -0.39475673420492      0.45507214752014     -0.30582118524469
  F   -0.01077768016185     -0.93210302563437      1.61203147415369
  H   0.13966834280277      1.09914767767397     -1.00884301736298
  C   1.34357456626153     -1.29980545069688     -0.24181607590471
  N   1.92297098751623     -2.06498909066535     -0.91976441945653
  C   1.57325876226244      0.67738044655149      1.11700575565982
  N   2.31319757492832      1.48733917257377      1.53844253418238
  C   -1.30612842080598      1.22967224657070      0.52427541159931
  N   -2.03583992058812      1.85922212929944      1.19588345530196
  N   -1.19797582529416     -0.51183787120827     -1.16029326351058
  O   -1.37348124308829     -0.16513356117941     -2.32069266845320
  O   -1.59916775528799     -1.52554802717574     -0.60615222519488
