13
Coordinates from ORCA-job run
  C   0.95430380314887     -0.02800618474144      0.15196964091367
  C   -0.34785585568414      0.51252899840274     -0.48317163506037
  F   1.85278860560925      1.01620964677660      0.08044985351479
  H   -0.13829139216854      0.77431712729833     -1.52524318926073
  C   0.76509323080887     -0.39472663995025      1.56048843055671
  N   0.63765119019549     -0.63890321338496      2.70287355647158
  C   1.48449371277311     -1.15193035534113     -0.63183363280208
  N   1.94128457722496     -2.00337455084596     -1.30038916040857
  C   -0.83898832668426      1.67570307742880      0.24095156634007
  N   -1.22257423587858      2.61340615313968      0.83581312017380
  N   -1.43851975521144     -0.54492709287326     -0.52747618687786
  O   -1.17748300585428     -1.63460291345702     -0.03111528714868
  O   -2.47290254827931     -0.19769405245214     -1.07431707641232
