13
Coordinates from ORCA-job run
  C   0.94745014521433      0.08649047080558      0.15352556657047
  C   -0.36445922488244      0.39066716189746     -0.61111337114237
  F   1.83774597558376      1.05941168905554     -0.24356103907531
  H   -0.11983503448266      0.46711727859404     -1.67308063497943
  C   0.79407162020898      0.15659617945616      1.61113349848353
  N   0.72877905707547      0.25847375197738      2.78015820807575
  C   1.45692011711390     -1.23154716357420     -0.25426187970894
  N   1.85333227550437     -2.27858786791965     -0.61166726475594
  C   -0.98536724161336      1.61191276212383     -0.12170247768921
  N   -1.47843398823856      2.60151269283780      0.27589804734136
  N   -1.32859234164814     -0.76769230571241     -0.46952069349515
  O   -1.81363157012171     -1.19356476980935     -1.50883442500788
  O   -1.52797978971394     -1.16178987973218      0.67302646538312
