13
Coordinates from ORCA-job run
  C   0.94803247893179      0.03689116734531      0.17331428393566
  C   -0.32978322203982      0.41111709070327     -0.61795379265990
  F   1.89711261598938      0.96158328469692     -0.20147115277467
  H   -0.05923775908748      0.47474343979635     -1.67446541982213
  C   0.76626516538377      0.11204773867910      1.62741344158405
  N   0.67809769787602      0.21326330799758      2.79495258165382
  C   1.39451108677027     -1.30591302256311     -0.22743118259471
  N   1.73860210516634     -2.37337254965331     -0.57851423423864
  C   -0.89504449744097      1.66325196934504     -0.13945854595893
  N   -1.34424789446600      2.67764951718903      0.24749079545120
  N   -1.35551895139383     -0.69551778019273     -0.49737432299784
  O   -1.82068267605463     -1.11466024386557     -1.54864793523315
  O   -1.61810614963485     -1.06008391947787      0.64214548365525
