13
Coordinates from ORCA-job run
  C   0.92264915475991     -0.09335429936141      0.27483827717782
  C   -0.23420499750914      0.47877068173536     -0.57695394496935
  F   1.92626808978458      0.85013564030660      0.20338142335537
  H   0.12083624205593      0.59204307784165     -1.60623146174521
  C   0.53489132540141     -0.26710449017795      1.67971557137259
  N   0.25289013121817     -0.35973540235932      2.81660790208030
  C   1.42080021320261     -1.34731234833970     -0.30684155705200
  N   1.86308319013997     -2.30805142114535     -0.81873571932294
  C   -0.68495120291982      1.76011006023302     -0.05376834939472
  N   -1.04127141715115      2.79184060701263      0.38071625948841
  N   -1.41526847487926     -0.47542080851110     -0.64254200031015
  O   -1.32905745401816     -1.51305273570696      0.00390145398820
  O   -2.33666480008505     -0.10886856152746     -1.35408785466831
