13
Coordinates from ORCA-job run
  C   0.93406828347288     -0.06576637782474      0.23557543808093
  C   -0.25593032598910      0.53431162105409     -0.55292921742526
  F   1.96396061801078      0.83672814481542      0.08937961843547
  H   0.09466653433443      0.75934771238936     -1.56285260395153
  C   0.65257756177399     -0.23115819012552      1.66618580846087
  N   0.48733153581651     -0.33002050892765      2.82551583526061
  C   1.32346686495198     -1.34836887860483     -0.36990961161349
  N   1.62375138967774     -2.36134730689542     -0.88442560699810
  C   -0.77458643207069      1.72459364015233      0.10352048125879
  N   -1.18894544293038      2.68885936709477      0.63183444239285
  N   -1.35823496732192     -0.49345959661477     -0.69487722530726
  O   -1.70398199750274     -1.05462388700391      0.33767748884705
  O   -1.79814362222350     -0.65709573950915     -1.82469484744092
