13
Coordinates from ORCA-job run
  C   0.94454838521864      0.06634894023533      0.19551968149641
  C   -0.33938640562703      0.34176365169597     -0.62126716751043
  F   1.80374297198728      1.09766295877450     -0.12148863813702
  H   -0.08076548667751      0.32108202999272     -1.68476245990482
  C   0.68908382033509      0.08943983619641      1.64070962404290
  N   0.50690148917107      0.16139093511656      2.79936243350277
  C   1.56264698476116     -1.19931594433849     -0.22263426610456
  N   2.09186240048056     -2.17514319550432     -0.60779307247085
  C   -0.91774036671754      1.62968121154653     -0.26698372882095
  N   -1.37389520604143      2.67074481085224      0.03028872559621
  N   -1.38262273233156     -0.74499372311631     -0.42122962586105
  O   -2.39580615525529     -0.61793240008904     -1.08971774951417
  O   -1.10856969930344     -1.64072911136211      0.36899624368556
