13
Coordinates from ORCA-job run
  C   0.95713803223315      0.04739778264269      0.13092947568491
  C   -0.39088690764195      0.44657002436057     -0.51328568846062
  F   1.78124670648649      1.13894780833729     -0.04685646742154
  H   -0.21996677836626      0.63412571962650     -1.57816324609435
  C   0.82020209821466     -0.21414075144889      1.56871629227095
  N   0.73074307550425     -0.37110324648924      2.72986921814886
  C   1.54590705518951     -1.10001730435737     -0.57310492078184
  N   2.04217855133722     -1.97187667464657     -1.18474383237799
  C   -0.94470685056855      1.63173290421077      0.12478173356565
  N   -1.37654478977174      2.59141465544179      0.64712802203654
  N   -1.40833388863924     -0.68022800474239     -0.44409720736016
  O   -1.06500754466999     -1.70546815784276      0.13287233104375
  O   -2.47396875930754     -0.44835475509238     -0.99204571025417
