13
Coordinates from ORCA-job run
  C   0.94270738808965     -0.12744775022739      0.17102890789202
  C   -0.28474069407878      0.56889294848615     -0.46162608799599
  F   1.93669034474078      0.82872549302269      0.18045734254386
  H   -0.02267662733762      0.86761055140255     -1.48161518754028
  C   0.67913890350993     -0.55026060999345      1.55171931273711
  N   0.49509418479186     -0.83695689669292      2.67640366132222
  C   1.38739476500134     -1.25212325558309     -0.66321173314305
  N   1.78382123987441     -2.10321042715010     -1.36968631594263
  C   -0.68433140322631      1.73072370828046      0.31886473692045
  N   -0.99168799844217      2.66378001005142      0.96321961295947
  N   -1.46795328115022     -0.37598230953965     -0.59152650710512
  O   -1.32307598941646     -1.51215524177636     -0.15553057601070
  O   -2.45038083235641      0.09840377971968     -1.13849716663736
