13
Coordinates from ORCA-job run
  C   0.95393974287334      0.00911282143213      0.15057750411953
  C   -0.33412556710724      0.43386359885924     -0.59686065824354
  F   1.91505522490782      0.92062267636251     -0.22630127360274
  H   -0.08916435342931      0.51780290033413     -1.65817485109063
  C   0.81205764806932      0.05094786613137      1.61041755243122
  N   0.75286824753182      0.12493177140255      2.78181816977208
  C   1.35713174782147     -1.33276387163857     -0.29680073006525
  N   1.66560899002832     -2.39755914111027     -0.68703315151667
  C   -0.85690912611158      1.68679723779452     -0.07413883146223
  N   -1.27497104353401      2.70196062175801      0.34463439223767
  N   -1.38466790036412     -0.64948104727538     -0.47776802122652
  O   -1.61969127379646     -1.04506004591841      0.65742584301830
  O   -1.89613233688938     -1.02017538813185     -1.52579594437120
