13
Coordinates from ORCA-job run
  C   0.96051860334524      0.03760257528099      0.11387718590041
  C   -0.38856007985017      0.41552200852742     -0.54045953672166
  F   1.80327709144781      1.09572144686099     -0.15534256957989
  H   -0.23041740524131      0.51877170582308     -1.61879581129598
  C   0.83915036821698     -0.11345930475847      1.56880047873801
  N   0.76226228805802     -0.18176197213550      2.73939772415815
  C   1.51635655906563     -1.17074233580650     -0.51036764813772
  N   1.98657069398516     -2.09562538230980     -1.06167953297018
  C   -0.91008223378104      1.65589157306391      0.01469314679326
  N   -1.31819129866668      2.65736598780783      0.47376970079829
  N   -1.42730943603658     -0.68164140748643     -0.37341245599256
  O   -2.49634437837682     -0.46851884486818     -0.92240428601632
  O   -1.09523077216624     -1.66912604999934      0.27192360432620
