13
Coordinates from ORCA-job run
  C   0.95876864936243      0.04461535871787      0.12030994310284
  C   -0.39298883603615      0.44059106080495     -0.51824821680615
  F   1.78741634755330      1.12796250853287     -0.08399891384982
  H   -0.23134512110513      0.61018129057458     -1.58753876426336
  C   0.83327699557398     -0.19096874751405      1.56365720925458
  N   0.75348171376786     -0.32793717301665      2.72801265519897
  C   1.53474747313770     -1.11856598011111     -0.56835238569723
  N   2.02356078124834     -2.00321937289972     -1.16749749556183
  C   -0.93525202477240      1.63793173569052      0.10699446613175
  N   -1.35859718740491      2.60652855155520      0.61967080356406
  N   -1.41560082017800     -0.67978427164163     -0.42093395686604
  O   -1.07273330281917     -1.69628424020464      0.17149672656285
  O   -2.48473466832784     -0.45205072048818     -0.96357207077063
