13
Coordinates from ORCA-job run
  C   0.65611491560605     -0.40759537447036      0.39489703507257
  C   -0.43189874585309      0.44916267163662     -0.29485412341050
  F   0.02611599795692     -1.33442694647371      1.18424810622797
  H   0.02361006673536      1.07740194150227     -1.06817266972442
  C   1.54221634172514     -1.07745572411756     -0.57065735238819
  N   2.32747458957723     -1.56514137266205     -1.29585598006765
  C   1.47894588388134      0.47760046882668      1.23688336112173
  N   2.13833093793753      1.19703565109826      1.89196103673374
  C   -1.14471433964299      1.26011970865748      0.68124859456594
  N   -1.68167177989763      1.92346792193508      1.48846708473227
  N   -1.41875553501320     -0.46090222036457     -1.02929582320812
  O   -0.92831537438820     -1.43007909576735     -1.58878004325389
  O   -2.58745295862447     -0.10918762980081     -1.02908922640145
