13
Coordinates from ORCA-job run
  C   0.58750287715394     -0.49564127900164      0.40452877882477
  C   -0.36720148215287      0.50778757930327     -0.28365784292920
  F   -0.17700141948835     -1.41692120732196      1.07153091342142
  H   0.19731083758865      1.15301276636200     -0.96609861884963
  C   1.48107505095975     -1.16851969454794     -0.55182880646537
  N   2.27044965568878     -1.66917124166903     -1.26346385009848
  C   1.41960198456620      0.24220826226014      1.37038257485077
  N   2.08926915672537      0.83884180906303      2.13006924774619
  C   -1.08247600820208      1.30086938346586      0.70564257480146
  N   -1.62417672382793      1.94738504980224      1.52341224607338
  N   -1.37018393263621     -0.24497931473392     -1.16145647495060
  O   -0.93708326172739     -1.23171808400824     -1.73722867845900
  O   -2.48808673464784      0.23784597102618     -1.24183206396570
