13
Coordinates from ORCA-job run
  C   0.71080860210016     -0.55644872521966      0.13916273735956
  C   -0.40041076938583      0.20164838061201     -0.62158329193370
  F   0.56291093091777     -1.88877708032771     -0.16312604465245
  H   -0.25140033892007      0.04766688513454     -1.69284784513018
  C   2.01228983168221     -0.08255770293791     -0.35673915445112
  N   3.03818201067045      0.30404152144622     -0.78044344261170
  C   0.63941334284941     -0.37156515010300      1.59544903417499
  N   0.64942823925024     -0.23355699923789      2.76250533860972
  C   -0.41540761534608      1.61195485976870     -0.27087502070781
  N   -0.40993802691233      2.75371318949259      0.00666548989488
  N   -1.73454877633813     -0.44009339191380     -0.28544654272043
  O   -2.10412800021470     -0.33454248445674      0.87607138170874
  O   -2.29819943035308     -1.00948330225737     -1.20979263954048
