13
Coordinates from ORCA-job run
  C   0.70996136672912     -0.55175563280160      0.15899599566473
  C   -0.39278324014958      0.18992234947698     -0.62986383724675
  F   0.56850248387718     -1.88943729601091     -0.12229269750141
  H   -0.22936652032816      0.01458978093272     -1.69569048258124
  C   2.01708501204895     -0.08423912122697     -0.32804324580749
  N   3.04844212869931      0.29257423554120     -0.74711160049359
  C   0.61943506164443     -0.34227055094108      1.61082167019664
  N   0.61430910308499     -0.18497529097937      2.77551706408142
  C   -0.41508157088869      1.60680404667926     -0.30760358699214
  N   -0.41640729062108      2.75420980415127     -0.05428145006100
  N   -1.72958385626868     -0.44783411192634     -0.29831299898037
  O   -2.11445583520562     -0.32039219241291      0.85610186249403
  O   -2.28005684262216     -1.03719602048226     -1.21823669277282
