13
Coordinates from ORCA-job run
  C   0.95748374527420      0.02040093910228      0.13476131010605
  C   -0.37071162885213      0.42929247066037     -0.54336709250453
  F   1.82274986183675      1.06808666236755     -0.10179489783683
  H   -0.18668205022342      0.54687109546636     -1.61606810796078
  C   0.80232373916392     -0.14836347298632      1.58457047320958
  N   0.70072058719683     -0.23263638428056      2.75225108232977
  C   1.50810370328094     -1.18858591547955     -0.49301788478254
  N   1.97916310434214     -2.11354708883857     -1.04364978456111
  C   -0.88474232149531      1.66937301818672      0.01931583924699
  N   -1.28687902684808      2.67079258478430      0.48374098446166
  N   -1.42960266401376     -0.65327838215447     -0.41555783854429
  O   -2.48201752786574     -0.41638934534940     -0.98642897408820
  O   -1.12890952179633     -1.65301618147872      0.22624489092423
