13
Coordinates from ORCA-job run
  C   0.68038290214992     -0.57939839726296      0.18830510522891
  C   -0.38125732069678      0.17961055202808     -0.63963032858768
  F   0.46847342488295     -1.92008958735832     -0.02671056214101
  H   -0.22547589112422     -0.05360782235948     -1.69545875018222
  C   2.01068097145987     -0.20629563974008     -0.31697216497272
  N   3.06036360306653      0.09723222506542     -0.74992674783604
  C   0.59971359285796     -0.29319243302841      1.62756760724428
  N   0.60012125395394     -0.07621095505519      2.78256662816603
  C   -0.33181573670469      1.60938293204230     -0.38431643240521
  N   -0.27554415355488      2.76609584560448     -0.18536398839020
  N   -1.74962691686726     -0.37330891950594     -0.28401149619746
  O   -2.12847909867741     -0.17462944487072      0.86223901376985
  O   -2.32853663074594     -0.97458835555919     -1.17828788369653
