13
Coordinates from ORCA-job run
  C   0.56102975450618     -0.40538075538085      0.56472585857356
  C   -0.33314450120109      0.44228852824280     -0.36528543731329
  F   -0.22716650773157     -1.05474738394846      1.47376447849622
  H   0.28481089003427      0.95716860043419     -1.10894781097930
  C   1.37306554387399     -1.36492068228717     -0.20091059778378
  N   2.08615135249083     -2.07932126534920     -0.80191714287103
  C   1.46545021641636      0.51635630776210      1.27566392874104
  N   2.18311179229125      1.26537181673139      1.82825506609965
  C   -1.10926012624474      1.40487884214195      0.40479067556036
  N   -1.71737827242196      2.17840191153036      1.04645007012383
  N   -1.29895649681458     -0.42577391542160     -1.17259958820745
  O   -2.09862577742509      0.20428588138954     -1.84673808522240
  O   -1.17008786777385     -1.63860788584503     -1.09625141521740
