13
Coordinates from ORCA-job run
  C   0.67869174343565     -0.58754903282653      0.16909434159594
  C   -0.38494560002622      0.19624107454866     -0.63272997669507
  F   0.45991161646322     -1.92168802708148     -0.07826290639233
  H   -0.23840311607644     -0.01349148364452     -1.69474895827037
  C   2.00704055636818     -0.20708378666376     -0.33604377076031
  N   3.05413905202464      0.10306750561494     -0.77068638452642
  C   0.60853460377434     -0.33746115270973      1.61560757318821
  N   0.61709775731995     -0.14993958808251      2.77571780053296
  C   -0.32425988294201      1.61922290244052     -0.34405787403524
  N   -0.25593723000608      2.76970848934813     -0.11506666060743
  N   -1.75395314158739     -0.35610317998134     -0.27954392593410
  O   -2.12414518475131     -0.17929239079806      0.87316031634489
  O   -2.34277117399652     -0.93463133016432     -1.18243957444074
