13
Coordinates from ORCA-job run
  C   0.62135799959598     -0.41614347113462      0.43839280977045
  C   -0.39774758349707      0.45181409499284     -0.33755901167197
  F   -0.08220206779426     -1.25112940186173      1.26729280284962
  H   0.11159293356955      0.99707189399201     -1.13988169786544
  C   1.49152602361531     -1.19833403341540     -0.45417284760302
  N   2.26395732309968     -1.77668646614880     -1.12436052815665
  C   1.47209100929132      0.47536051650564      1.24517253441125
  N   2.15406922519375      1.19727324591651      1.87384494573144
  C   -1.08319017577866      1.36955568276700      0.56070818920135
  N   -1.59813893264975      2.12238875661819      1.30111898457492
  N   -1.41798777527712     -0.45167517794954     -1.03292906523757
  O   -0.96224801701091     -1.46340716069098     -1.54466191349074
  O   -2.57307996235782     -0.05808847959111     -1.05396520251363
