13
Coordinates from ORCA-job run
  C   0.58590670243621     -0.32758806631724      0.54723554689988
  C   -0.36037482092978      0.45991088505172     -0.39199638164684
  F   -0.16262912047116     -0.90743305753431      1.53637155397731
  H   0.21818204559013      0.90509406023266     -1.20545593090903
  C   1.31096653847495     -1.37272470867422     -0.19219929140573
  N   1.90649793671748     -2.20794876123234     -0.76552539932155
  C   1.54586504686877      0.61725579022551      1.13965669475633
  N   2.30821941736938      1.38641917525542      1.59632365208430
  C   -1.09888044015955      1.46524367341441      0.35610640018420
  N   -1.66873254115756      2.30059012244924      0.95363317808993
  N   -1.31459109995982     -0.53127491469398     -1.03837180524020
  O   -2.35433686071439     -0.77231864918533     -0.44225264862282
  O   -0.91609280406465     -1.01522554899155     -2.09152556884577
