13
Coordinates from ORCA-job run
  C   0.66005187327593     -0.38161852661235      0.41572670565738
  C   -0.43244456536940      0.42709031829700     -0.32279140857374
  F   0.03695429590423     -1.22447711109092      1.29859195922106
  H   0.01251035695323      0.97823938416655     -1.15878191603351
  C   1.51364136954442     -1.14738277956777     -0.50674102880893
  N   2.27396704232557     -1.70687542241126     -1.20607095534084
  C   1.51512110991176      0.56192618623999      1.15618168498547
  N   2.20054058356693      1.32520904183070      1.72967028500147
  C   -1.11152960693403      1.33276170281621      0.59255273060022
  N   -1.62210291246817      2.07586282791653      1.34577640683644
  N   -1.44872526912736     -0.52887898950247     -0.95163193953555
  O   -0.98567911629305     -1.55326963949514     -1.43039755253651
  O   -2.61130516129006     -0.15758699258708     -0.96108497147296
