13
Coordinates from ORCA-job run
  C   0.70991745133658     -0.55409990099362      0.16147243722527
  C   -0.39004042914647      0.18840043933195     -0.63046320382659
  F   0.56679290901480     -1.89204798112547     -0.11707574939508
  H   -0.22532333507244      0.01211060608173     -1.69598274371293
  C   2.01845491485202     -0.08906983753449     -0.32433358360965
  N   3.04972339589852      0.28966202276581     -0.74192262560218
  C   0.61565744010748     -0.34014595676801      1.61248271016948
  N   0.60285625928372     -0.17364749891976      2.77574354550585
  C   -0.41108511507801      1.60585266299749     -0.31022821121755
  N   -0.41445866235284      2.75413408362022     -0.06117228384998
  N   -1.72884948705644     -0.44683340681720     -0.30110380391321
  O   -2.27611886739304     -1.03936257339243     -1.22088868029524
  O   -2.11752647439387     -0.31495265924621      0.85147219252182
