13
Coordinates from ORCA-job run
  C   0.93433527360906     -0.07013141506202      0.23862958580258
  C   -0.26044331763993      0.41550287467553     -0.61454205300246
  F   1.93615358061487      0.85155161352154      0.01763604408992
  H   0.04470860051654      0.41359776957381     -1.66591071417600
  C   0.61324371362671     -0.08795440566114      1.67093161021903
  N   0.38516783441758     -0.05811957626002      2.82318742327640
  C   1.40034776644292     -1.38444740568327     -0.22410468228349
  N   1.81188120482042     -2.40288182697604     -0.64139065916390
  C   -0.68019717356083      1.75051122863445     -0.21374034135542
  N   -1.00572680885324      2.82881247934890      0.12032296815052
  N   -1.44664530187495     -0.52977304194716     -0.51947792678900
  O   -1.33166643446843     -1.49398705650309      0.22809926607082
  O   -2.40115893765070     -0.23268123766148     -1.21964052083902
