13
Coordinates from ORCA-job run
  C   0.94152445000391     -0.02352070251974      0.17660309785590
  C   -0.31304946189444      0.52434111599184     -0.54939475462545
  F   1.90571017966520      0.94873014033336      0.05372245947413
  H   -0.04654485400588      0.69946577938443     -1.59412435257616
  C   0.67908177367002     -0.26928002371748      1.60057900516604
  N   0.49263066778596     -0.45688822464362      2.74572846938936
  C   1.40916378274561     -1.25454961206289     -0.47713863588713
  N   1.79031305286927     -2.23179012158701     -1.00723046436092
  C   -0.79122892675959      1.73853511042292      0.09116672558846
  N   -1.16515403777947      2.73482699131886      0.58882771878878
  N   -1.38912206288906     -0.54307516430949     -0.54522380442628
  O   -2.05698873811570     -0.64265228332755      0.47640292453530
  O   -1.45633582529582     -1.22514300528363     -1.56091838892200
