13
Coordinates from ORCA-job run
  C   0.60560218349981     -0.37108843350052      0.56101056982525
  C   -0.36886625294819      0.48321624990302     -0.28683897492938
  F   -0.06362173239012     -1.00996996908321      1.56421629800123
  H   0.20035050739353      1.12783680942708     -0.96155576300536
  C   1.28570377325855     -1.35116584975076     -0.30099272002700
  N   1.84418885709107     -2.09952047054954     -1.01434216789715
  C   1.59643257057361      0.54446421648977      1.15390025885415
  N   2.36544441293173      1.29880678175398      1.62377553435357
  C   -1.23994961023016      1.27009813888241      0.57442121132629
  N   -1.93921782548631      1.90816595115450      1.26988515687726
  N   -1.22321808117692     -0.39906975670129     -1.18318202942545
  O   -1.63734088459498     -1.43987183289063     -0.69228201178858
  O   -1.42450791792162      0.03809816486518     -2.30801536216483
