13
Coordinates from ORCA-job run
  C   0.69390721736946     -0.57445386962151      0.15492490973349
  C   -0.37608049876846      0.21624731184617     -0.63132564014157
  F   0.52507127619227     -1.89986496129012     -0.16596646410288
  H   -0.19886853825858      0.06725581194427     -1.69894185789034
  C   2.02049650714878     -0.12560992355713     -0.29608685028036
  N   3.06709086439628      0.23994960972356     -0.68639718977728
  C   0.58214432215530     -0.40218125730668      1.61028485378817
  N   0.55991188688051     -0.27628291342485      2.77856516351071
  C   -0.36992293950591      1.62352311845230     -0.26846263676967
  N   -0.34961198189560      2.76262748363759      0.01916866597932
  N   -1.73442396382868     -0.39619943309425     -0.34012267379654
  O   -2.13666547525689     -0.28858517318177      0.81022106539779
  O   -2.28304867662846     -0.94642580412758     -1.28486134565084
