12

C	-0.517522	-0.107752	-1.413167
C	0.0	0.0	0.0
F	-1.846235	-0.424506	-1.4394
H	1.091772	0.0	0.0
H	0.043933	-0.849148	-1.981931
H	-0.298728	-0.922365	0.508922
N	-0.34771	1.19407	-2.157042
O	-1.307364	1.958402	-2.186164
O	0.757305	1.373499	-2.655865
C	-0.56443	1.130701	0.725924
N	-1.0386	2.02027	1.326823
Cl	3.292548	0.0	0.0
