12

C	-0.457643	-0.134552	-1.426368
C	0.0	0.0	0.0
F	-1.82516	-0.204611	-1.528389
H	1.091747	0.0	0.0
H	-0.017091	-0.983691	-1.946208
H	-0.360406	0.945632	0.410183
N	-0.061287	1.087664	-2.216114
O	0.519372	0.897867	-3.280676
O	-0.41123	2.172881	-1.760733
C	-0.512438	-1.115399	0.785074
N	-0.950835	-2.012008	1.40323
Cl	3.277642	0.0	0.0
