12

C	-0.510116	-0.119396	-1.415334
C	0.0	0.0	0.0
F	-1.830043	-0.478249	-1.448209
H	1.091683	0.0	0.0
H	0.076968	-0.838947	-1.984697
H	-0.294469	-0.925437	0.50653
N	-0.390226	1.187693	-2.160563
O	-1.327956	1.972211	-2.063061
O	0.647178	1.353652	-2.792676
C	-0.565142	1.125358	0.732944
N	-1.01892	2.012083	1.353678
Cl	3.286031	0.0	0.0
