12

C	-0.553872	0.007736	-1.408658
C	0.0	0.0	0.0
F	-0.174491	1.146541	-2.038715
H	1.092858	0.0	0.0
H	-1.642392	-0.075173	-1.45301
H	-0.303743	0.949066	0.454444
N	-0.05579	-1.172078	-2.215287
O	0.765838	-0.973419	-3.094129
O	-0.579958	-2.244011	-1.918423
C	-0.536725	-1.084229	0.817084
N	-0.984344	-1.914733	1.515527
Cl	3.281985	0.0	0.0
