12

C	-0.562149	0.065558	-1.406899
C	0.0	0.0	0.0
F	-0.096278	1.175439	-2.033097
H	1.092888	0.0	0.0
H	-1.654821	0.06864	-1.437797
H	-0.303413	0.927975	0.49599
N	-0.161598	-1.148784	-2.213317
O	0.849392	-1.085537	-2.892505
O	-0.920571	-2.109222	-2.100673
C	-0.546098	-1.122069	0.753902
N	-1.023229	-1.999571	1.373682
Cl	3.282683	0.0	0.0
