12

C	-0.499165	-0.108923	-1.417753
C	0.0	0.0	0.0
F	-1.830966	-0.415165	-1.467251
H	1.091523	0.0	0.0
H	0.06461	-0.854117	-1.976479
H	-0.304046	-0.921479	0.508139
N	-0.308116	1.191893	-2.162493
O	-1.24519	1.980712	-2.169616
O	0.782787	1.341394	-2.698382
C	-0.573324	1.129	0.720825
N	-1.0346	2.028528	1.316611
Cl	3.285702	0.0	0.0
