13

C	0.0	0.0	0.0
C	-0.421771	0.073326	-1.498408
Br	1.942696	0.0	0.0
H	0.491486	-0.011589	-2.095233
H	-0.341796	-0.907977	0.488436
H	-0.35177	0.864352	0.556452
C	-1.059516	1.41344	-1.867202
H	-0.356305	2.215318	-1.620962
H	-1.991458	1.536497	-1.318764
H	-1.264088	1.450096	-2.940674
C	-1.197588	-1.095461	-1.934796
N	-1.627181	-2.048324	-2.47113
Br	-3.559239	0.0	0.0
