13

C	0.0	0.0	0.0
C	-0.57043	0.177741	-1.401426
Br	1.940942	0.0	0.0
H	-1.653907	0.296516	-1.221633
H	-0.342723	-0.944399	0.418357
H	-0.319792	0.812204	0.649573
C	-0.360831	-1.041173	-2.297303
H	0.700092	-1.256539	-2.444317
H	-0.846328	-1.902224	-1.831652
H	-0.825746	-0.878682	-3.271733
C	-0.072064	1.393681	-2.0406
N	0.322185	2.357669	-2.584428
Br	-3.687948	0.0	0.0
