13

C	0.0	0.0	0.0
C	-0.426641	-0.016637	-1.498816
Br	1.942336	0.0	0.0
H	0.48535	-0.136392	-2.093295
H	-0.349192	0.896837	0.503868
H	-0.342016	-0.876954	0.542041
C	-1.068963	1.298825	-1.942768
H	-1.992121	1.459802	-1.387017
H	-0.358224	2.11321	-1.76255
H	-1.295611	1.267438	-3.012316
C	-1.198374	-1.214249	-1.854014
N	-1.623005	-2.219258	-2.290358
Br	-3.575435	0.0	0.0
