12

C	0.0	0.0	0.0
C	-0.500026	-0.161847	-1.447374
Br	1.948064	0.0	0.0
H	-1.387533	-0.79215	-1.369275
H	-0.319485	-0.851538	0.601235
H	0.281189	-0.653562	-2.037
C	-0.426393	1.222148	0.675703
N	-0.531691	2.225388	1.28292
N	-0.801936	1.145841	-2.017509
H	-1.702687	1.387831	-1.595807
H	-0.96049	1.029252	-3.013276
H	-2.695307	0.0	0.0
