12

C	0.0	0.0	0.0
C	-0.426732	-0.059517	-1.477752
Br	1.948156	0.0	0.0
H	-1.429954	-0.485734	-1.466647
H	-0.341177	-0.891433	0.525097
H	0.277822	-0.707522	-2.00854
C	-0.459868	1.184738	0.71829
N	-0.548945	2.193314	1.321959
N	-0.375317	1.282052	-2.057958
H	-0.482839	1.199635	-3.06299
H	-1.204625	1.762165	-1.713307
H	-2.624432	0.0	0.0
