12

C	0.0	0.0	0.0
C	-0.566708	0.002366	-1.405496
Br	1.961236	0.0	0.0
H	-1.656416	-0.050078	-1.192046
H	-0.327999	-0.89257	0.535145
H	-0.245054	-0.919624	-1.908951
C	-0.386509	1.186284	0.767534
N	-0.541942	2.147378	1.425041
N	-0.226531	1.224986	-2.118813
H	0.516302	1.071556	-2.786477
H	-1.044522	1.563619	-2.607686
H	-3.077111	0.0	0.0
