12

C	0.0	0.0	0.0
C	-0.554801	-0.013256	-1.410561
Br	1.958776	0.0	0.0
H	-1.643274	-0.059769	-1.204972
H	-0.331502	-0.886644	0.542513
H	-0.232382	-0.943241	-1.900077
C	-0.389672	1.194217	0.753214
N	-0.527422	2.152525	1.420148
N	-0.210888	1.200118	-2.132909
H	-1.01574	1.508153	-2.659631
H	0.561802	1.051139	-2.764725
H	-3.051876	0.0	0.0
