12

C	0.0	0.0	0.0
C	-0.488775	-0.054526	-1.499313
Br	1.954511	0.0	0.0
H	-0.599333	-1.118473	-1.734279
H	-0.35494	-0.844514	0.588704
H	0.335056	0.331943	-2.106613
C	-0.381396	1.252455	0.644444
N	-0.584711	2.300123	1.13647
N	-1.699537	0.639692	-1.826057
H	-2.469419	0.343214	-1.166231
H	-1.567583	1.634617	-1.670832
H	-3.436285	0.0	0.0
