12

C	0.0	0.0	0.0
C	-0.458678	-0.360422	-1.460585
Br	1.950236	0.0	0.0
H	-0.415001	-1.454778	-1.529341
H	-0.361196	-0.701855	0.749592
H	0.318943	0.032688	-2.122886
C	-0.389155	1.360927	0.34852
N	-0.611689	2.491452	0.577431
N	-1.736619	0.12858	-1.893464
H	-1.695312	1.141545	-1.946744
H	-2.492238	-0.05735	-1.181604
H	-3.526249	0.0	0.0
