12
Coordinates from ORCA-job run
  C   -0.56518919277500      0.03158378620682      0.22100914416914
  C   0.24756103816508      0.17500293738339     -1.07370130307817
  Cl  -2.33222513143232      0.13102150816382     -0.30508178085619
  H   -0.00914434423814     -0.65726807353274     -1.73632005532677
  H   -0.03584759850456      1.09848423091634     -1.58255833803509
  N   -0.23026250191232     -1.16466780672074      0.89070648702315
  H   -0.39159755685842     -1.98010065872967      0.31264234319137
  H   -0.71055871514657     -1.26473598450030      1.77549937909079
  C   -0.34225569395524      1.17760639327339      1.10695230903879
  N   -0.15526382857388      2.09968698723237      1.81009645032039
  C   1.68387031765352      0.17229154284333     -0.80748368729634
  N   2.84091320757785      0.18109513746398     -0.61376094824107
