12
Coordinates from ORCA-job run
  C   -0.66626553852321      0.01192982619598      0.04163442795671
  C   0.35465527684782      0.20791275661502     -1.08825530603337
  Cl  -2.29875830423361      0.09951026647702     -0.68894631450912
  H   0.18267618940606     -0.58236008150424     -1.82290548849684
  H   0.20111950179957      1.17787900282077     -1.56632109794963
  N   -0.50042502501316     -1.29849908512144      0.61420797875756
  H   0.42095476180976     -1.37986925195068      1.03378421162679
  H   -1.19823556921518     -1.46255947403724      1.33095610333542
  C   -0.56558103154752      1.11702150318173      1.01336409630303
  N   -0.44088537153421      1.96943089762256      1.81346046354651
  C   1.71665634313822      0.11460293730504     -0.56864634975742
  N   2.79408876706545      0.02600070239549     -0.11133272477962
