12
Coordinates from ORCA-job run
  C   -0.56520199293328      0.02857266700848      0.19863953080562
  C   0.69487227374110     -0.28215332980278     -0.63945617677698
  Cl  -1.84590275612116      0.56188296652097     -0.93610712893704
  H   1.46544013132460     -0.66735451599168      0.03635542142596
  H   0.43922268614413     -1.07135782664784     -1.35253480377573
  N   -1.07139068602704     -1.09226612205802      0.94622807291747
  H   -1.25047216254385     -1.87974975582766      0.33415791795518
  H   -0.42549394814276     -1.36014573348848      1.67982888390098
  C   -0.27516894187494      1.12204819605066      1.13417512067103
  N   -0.00216138315709      1.96195903316050      1.90838849116114
  C   1.21531520316262      0.87561082860341     -1.35943396500407
  N   1.62294157642766      1.80395359247245     -1.95024136434354
