12
Coordinates from ORCA-job run
  C   -0.45472824289003      0.15866954430095      0.27525912941980
  C   0.86619475264384      0.51311785880557     -0.42736239761441
  Cl  -1.81870147196517      0.66270003407690     -0.85174419578757
  H   1.67908608579749      0.36739480485540      0.28956144719999
  H   0.84951745312391      1.55851976082822     -0.74007016902860
  N   -0.47564595995914     -1.20940807575181      0.63479717011709
  H   -0.39186791348305     -1.80821713763904     -0.17902670496859
  H   -1.31019302869562     -1.45332546933137      1.15287214548072
  C   -0.59120445310803      0.98899076334517      1.47640088711638
  N   -0.67282824097919      1.65566989996485      2.43969346694556
  C   1.08108526571762     -0.35236420107389     -1.58288406086704
  N   1.23828575379736     -1.08174778238093     -2.48849671801333
