12
Coordinates from ORCA-job run
  C   -0.58061527200588      0.13877794514363      0.23506449946942
  C   0.73792443390783      0.56252868791984     -0.46050557856285
  Cl  -1.91707794945970      0.43913271621049     -0.92314146969784
  H   1.54552346634384      0.52827331982407      0.27828313995750
  H   0.65950131000611      1.58638658280410     -0.83383402533448
  N   -0.66031061718045     -1.23032292617932      0.66105679501720
  H   -0.51368826632878     -1.85762444035848     -0.12212681874274
  H   0.01560984260565     -1.42245933517129      1.39146641468761
  C   -0.76523609783208      1.01130014194300      1.40195097428066
  N   -0.84299479847264      1.71025150528323      2.34249468022666
  C   1.04969838389156     -0.35157423586509     -1.55374270598566
  N   1.27166556452454     -1.11266996155417     -2.41896590531547
