12
Coordinates from ORCA-job run
  C   -0.45350544428533      0.14506733285640      0.28425722570671
  C   0.83854752233972      0.53542108173860     -0.45193664938371
  Cl  -1.85899186318873      0.58278109807707     -0.81897918225145
  H   1.67044768851461      0.42962779694730      0.25009183417918
  H   0.77894835228495      1.57460024773517     -0.77981676052565
  N   -0.41744448563780     -1.21767832076141      0.66343614799389
  H   -0.33266600614503     -1.82420752567025     -0.14463406373551
  H   -1.23143265232847     -1.48285674282943      1.20343676531083
  C   -0.59335463295381      0.98840053570954      1.47582575353541
  N   -0.67239034396662      1.66849198892665      2.42996037046536
  C   1.05985940844899     -0.33847751785698     -1.59988835109849
  N   1.21098245691751     -1.06016997487266     -2.51275309019655
