12
Coordinates from ORCA-job run
  C   -0.68670517829543      0.07664104175284      0.18833343219451
  C   0.22198622085353      0.16607555858900     -1.06094470816987
  Cl  -2.37308997398867      0.17381196811396     -0.42308548342883
  H   0.06648169720746      1.11425687519533     -1.58195758141181
  H   -0.05247971361014     -0.64374971446193     -1.74322830506686
  N   -0.55763646074053     -1.11857469960080      0.97197944934600
  H   -0.67835443964964     -1.94282226147816      0.39507512144003
  H   0.34229440399541     -1.15000537394954      1.43797227175851
  C   -0.43711513294227      1.23712974055660      1.05256076422797
  N   -0.19850540616202      2.15808431229253      1.74117652761119
  C   1.62185315312801      0.02636685148558     -0.66988817485612
  N   2.73127083020429     -0.09721429849541     -0.30699331364474
