12
Coordinates from ORCA-job run
  C   -0.57273477640132      0.18371478959956      0.22389316568783
  C   0.80207920590566      0.50848480539714     -0.41357280078352
  Cl  -1.83618775669447      0.65920021015015     -0.95749682609915
  H   1.57794255932746      0.36423574142655      0.34568105265357
  H   0.83361718688785      1.55042329170174     -0.74090477811248
  N   -0.79506803146858     -1.18803832687263      0.58503661800585
  H   -0.68470887342023     -1.79301660058963     -0.22123178555134
  H   -0.16485514108526     -1.47540495831316      1.32489750127858
  C   -0.71235641000719      1.01999288883983      1.42316059302694
  N   -0.75144846722915      1.68120782691074      2.39303094181475
  C   1.06168377144049     -0.38374304452216     -1.53805144227659
  N   1.24203673274474     -1.12905662372814     -2.42644223964442
