12
Coordinates from ORCA-job run
  C   -0.58232210661961     -0.01260088896268      0.17572470892883
  C   0.31669220334883     -0.01244052124797     -1.06888080630685
  Cl  -2.29022768648220     -0.30279998619879     -0.46226741637891
  H   0.24231689317374     -0.99308274251942     -1.54893645832882
  H   -0.04741324102807      0.72983826948297     -1.78203622757366
  N   -0.14431716089206     -0.97760786099431      1.10768847972103
  H   -0.68710664147955     -0.97068453787182      1.96150976707728
  H   -0.13186754632782     -1.90876885436574      0.71041090897207
  C   -0.60450918814630      1.31166279816066      0.80345662473530
  N   -0.61117372736200      2.37612721089371      1.29965864867185
  C   1.70873888003934      0.26675437523582     -0.72486394739289
  N   2.83218932177573      0.49160273838758     -0.47246428212522
