12
Coordinates from ORCA-job run
  C   -0.52143549859652      0.14893429714271      0.13799848092951
  C   0.84282525716849      0.44415367032451     -0.50060214140221
  Cl  -1.81096071724605      0.43670732582689     -1.06661049672729
  H   0.86214814191126      1.47830051883491     -0.85239646307054
  H   1.61966369012479      0.33884656540683      0.26497628057630
  N   -0.58348028649848     -1.23095004504224      0.53713065992294
  H   0.12961474114467     -1.43049053736023      1.23067473555655
  H   -1.49253818245718     -1.45387654602587      0.92533458355727
  C   -0.73215985777253      1.10756914720901      1.24161744904622
  N   -0.86541503230993      1.80684398944712      2.17735951400774
  C   1.13268554082204     -0.46324517825616     -1.60712137377704
  N   1.41805220370945     -1.18279320750750     -2.48836122861944
