12
Coordinates from ORCA-job run
  C   -0.57580769662821      0.03690307386002      0.19378322945037
  C   0.29070465150787      0.08175437667089     -1.07275596378873
  Cl  -2.31895076589738      0.03616645225577     -0.41345502770052
  H   0.00741873174869      0.94461827856275     -1.67879467858021
  H   0.08515941226478     -0.81625313693081     -1.66359136293212
  N   -0.24224664238721     -1.08165682851431      0.98744037929012
  H   -0.35680817283290     -1.95154529001930      0.48220398100020
  H   -0.76110326784470     -1.11278808938781      1.85550433170489
  C   -0.42013485606323      1.26650208793095      0.97617675388765
  N   -0.28413104018151      2.25841801345011      1.59022120379909
  C   1.71351531446323      0.14443772354524     -0.74749720317230
  N   2.86138433185060      0.19544333857651     -0.51023564295842
