12
Coordinates from ORCA-job run
  C   -0.42687788853340     -0.03337558708425      0.27412956142118
  C   0.70270901271327     -0.25455174287390     -0.74109796265105
  Cl  -1.86748094859845      0.62642464780695     -0.64751149829062
  H   1.55648354005100     -0.66989478264802     -0.19866449965729
  H   0.36631324829626     -0.99336876273201     -1.47477179317747
  N   -0.68943292317112     -1.25745864329370      0.94654588088516
  H   -1.38664841195316     -1.14259275036836      1.67202057181672
  H   -1.00371331222989     -1.96660892239611      0.29432022265470
  C   -0.05154635993372      0.99114954134265      1.25272589968487
  N   0.26583173817878      1.79461906531908      2.04843736887502
  C   1.09904809321990      0.96646386814514     -1.43318139963839
  N   1.43631421196054      1.94019406878252     -1.99395235192282
