12
Coordinates from ORCA-job run
  C   -0.53346668197272      0.07010257929249      0.15177488594823
  C   0.74075083936996      0.52697988773790     -0.57297808011885
  Cl  -1.89064672877098      0.02832689610981     -1.01041725003222
  H   1.54718763706604      0.62478752182033      0.16231418073503
  H   0.57268136668183      1.51236047794171     -1.01385042425534
  N   -0.34808998556916     -1.25843068171381      0.66993806846288
  H   0.41007820354441     -1.27230713620308      1.34392169578617
  H   -1.19351873130193     -1.59257271791339      1.11753353656733
  C   -0.86619531298304      1.07963021950252      1.17717644423985
  N   -1.08285866474569      1.84782868205287      2.04040157355767
  C   1.14348775304019     -0.41831597087644     -1.61006359469846
  N   1.50059030564112     -1.14838975775093     -2.45575103619227
