12
Coordinates from ORCA-job run
  C   -0.44967031582203     -0.03567763419001      0.23598265352107
  C   0.78548304875435     -0.27567386069079     -0.64328218047600
  Cl  -1.82535705548609      0.44516376274673     -0.87549069128196
  H   1.60235011534949     -0.58593156625039      0.01405183127279
  H   0.56339800950722     -1.09713486466194     -1.33111344355577
  N   -0.71040291817443     -1.20840666439811      0.99537670832043
  H   -1.48162394155647     -1.07279448737056      1.63763157054049
  H   -0.91959565448287     -1.99202493606488      0.38769627184360
  C   -0.22903941094972      1.09478196516358      1.14225452377910
  N   -0.03414765995853      1.99075649960261      1.87616325348866
  C   1.18152715937445      0.90058609513168     -1.40895565372930
  N   1.51707862344465      1.83735569098211     -2.03031484372312
