12
Coordinates from ORCA-job run
  C   -0.56942356939597      0.04235597615039      0.18711923475595
  C   0.69475276824499     -0.28943799014091     -0.63652906567513
  Cl  -1.80868799957596      0.65108212545117     -0.95554409354000
  H   0.42565234511776     -1.05015895862443     -1.37516031967624
  H   1.43959170406951     -0.71846625181523      0.04173178521412
  N   -1.12824147906356     -1.07979604755047      0.89396972570101
  H   -1.32213065672527     -1.84395818633035      0.25736320726076
  H   -0.50687798700755     -1.38944980008523      1.63226815578149
  C   -0.25945572709498      1.09917170779429      1.15780991342842
  N   0.02382770060369      1.90911061873883      1.95975381269945
  C   1.26927502948053      0.86862662361598     -1.31368979380026
  N   1.74071787134681      1.80092018279598     -1.84809256214956
