12
Coordinates from ORCA-job run
  C   -0.43347427710091     -0.03913190461147      0.26313075375354
  C   0.73562668190487     -0.25924913236473     -0.70664249059789
  Cl  -1.87108905038512      0.51248169309527     -0.73167856842468
  H   1.58950712553014     -0.60851708026434     -0.11954594768357
  H   0.45462808710352     -1.04796468571076     -1.41104474312466
  N   -0.66524044118165     -1.23987109468729      0.98677879627737
  H   -1.38816369403858     -1.12084141251273      1.68592245627863
  H   -0.92950537247540     -1.99242088637848      0.36160048428082
  C   -0.13223208169254      1.04651818148210      1.20040936531267
  N   0.12707758869030      1.90263953486032      1.96164347691791
  C   1.10103551027414      0.94289189203541     -1.44697604807633
  N   1.41382992337123      1.90346489505673     -2.04359753491381
