12
Coordinates from ORCA-job run
  C   -0.48596073921088      0.19032564306481      0.19801851953896
  C   0.90062686637397      0.39706490902939     -0.42797808849267
  Cl  -1.72393702125907      0.95212907159657     -0.84256046948169
  H   1.09257001342354      1.46679715930632     -0.54011598998702
  H   1.65689944941786     -0.00685944859335      0.25420462553908
  N   -0.77617722597237     -1.21560557114641      0.28072464304177
  H   -1.70698701475801     -1.37098163043134      0.64988014203741
  H   -0.10214525658884     -1.68052856971651      0.87982389254974
  C   -0.51351846245179      0.89431628477582      1.49602734886565
  N   -0.49953983449582      1.39360819263027      2.56031569419585
  C   1.01406904230351     -0.26236659573836     -1.72555458076332
  N   1.14310018321789     -0.75789944477720     -2.78078573704374
