12
Coordinates from ORCA-job run
  C   -0.69681197722079      0.10034077782685      0.13396248998828
  C   0.30461970540431      0.12389429300375     -1.04557619748425
  Cl  -2.32987112863498      0.21270029644339     -0.60607063377575
  H   0.06205870253199     -0.70414890638332     -1.71802088653101
  H   0.21170417039179      1.05572614098369     -1.60919500081185
  N   -0.65682062041359     -1.06784128453931      0.96625294044083
  H   -0.75802846978966     -1.90971921232068      0.41152787983654
  H   0.20578627415047     -1.10405532647720      1.49783704513323
  C   -0.48310534343978      1.28612103045704      0.97314663568726
  N   -0.26883638835140      2.22847212312705      1.64047054665002
  C   1.66735573502128     -0.03435491493397     -0.54557304005895
  N   2.74194934035037     -0.18713501718727     -0.09876177907432
