12
Coordinates from ORCA-job run
  C   -0.52293475905891     -0.03350924612013      0.09618194825521
  C   0.76737642808521     -0.28759426701651     -0.69301582652422
  Cl  -1.78219402177064      0.55715433694971     -1.02355820541584
  H   0.53252211645673     -1.02307693965158     -1.46575459118793
  H   1.51120503731471     -0.72429144635187     -0.01779590500570
  N   -0.96820149037537     -1.29509326066204      0.64176647800990
  H   -0.30976568049093     -1.61385474065975      1.34586284233744
  H   -1.87453096017045     -1.18383033820761      1.08284060553911
  C   -0.30647468050392      1.01192023134869      1.11354016772866
  N   -0.12370446859680      1.77364295704644      1.99030143564876
  C   1.31557222247287      0.92477201338787     -1.29113201362994
  N   1.76213025663748      1.89376069993678     -1.77923693575551
