12
Coordinates from ORCA-job run
  C   -0.69598554597238      0.08296165438083      0.14920508692254
  C   0.27032560501716      0.05907287801846     -1.05917646167726
  Cl  -2.35224547902617      0.08649985532828     -0.54638199778553
  H   0.03993106355885     -0.82219267704749     -1.66493451421368
  H   0.12719492968144      0.94515192063035     -1.68288854325187
  N   -0.58936649666864     -1.02256983601028      1.05785281910139
  H   -0.67433032273218     -1.90385855444436      0.56505033077351
  H   0.28871641454864     -0.99141462066012      1.56386190270826
  C   -0.50280134865191      1.33162947997387      0.89720625083010
  N   -0.30723898967358      2.33249818939598      1.47967521826039
  C   1.65160009111064     -0.01401416699682     -0.59133582934548
  N   2.74420007880811     -0.08276412256864     -0.16813426232240
