12
Coordinates from ORCA-job run
  C   -0.51605696315927     -0.04619158898308      0.13246382764082
  C   0.72019690282717     -0.25576295564608     -0.75117035604114
  Cl  -1.85967777649014      0.55123396018046     -0.88022765742829
  H   0.44399231017159     -0.97608761834390     -1.52447903882510
  H   1.51679353841550     -0.69489671489317     -0.14087230784322
  N   -0.90141552328206     -1.33003198357819      0.67192794378867
  H   -0.19057488940083     -1.65530887104113      1.31983833122013
  H   -1.77683159539683     -1.24762279843464      1.17707570913439
  C   -0.24451145395305      0.97585459563383      1.16008732920515
  N   0.00001382675316      1.72654379802506      2.03122316331851
  C   1.20472703340376      0.98137942399402     -1.35344030358403
  N   1.60234459011098      1.97089075308686     -1.84242664058589
