12
Coordinates from ORCA-job run
  C   -0.50140280093137      0.15168436581313      0.19594632958479
  C   0.85345911469084      0.47163146718999     -0.45051652901435
  Cl  -1.81467379302402      0.76175945077480     -0.85306830061452
  H   1.65149494199517      0.16135336333687      0.23339985559066
  H   0.94149319991532      1.55107761547048     -0.59438122275882
  N   -0.65584011415375     -1.27224608224511      0.32191554589326
  H   -1.56341193910724     -1.50421952012743      0.70823594152572
  H   0.06637853091061     -1.65407961783040      0.92350518571161
  C   -0.58652791289694      0.88628932440567      1.47431378898010
  N   -0.60969941293637      1.40630736143275      2.52869103512684
  C   1.02076348152431     -0.21429368719795     -1.72856270448164
  N   1.19696670401347     -0.74526404102283     -2.75947892554367
