12
Coordinates from ORCA-job run
  C   -0.55894308040256      0.02418957867817      0.22117857925688
  C   0.66779735025323     -0.26802114034610     -0.67117533750323
  Cl  -1.88278974896476      0.57907965868796     -0.85120481970557
  H   0.38496625587135     -1.04418568974612     -1.38832221000234
  H   1.46502106692852     -0.66413774994145     -0.03369123352183
  N   -1.03583580319366     -1.11264263831258      0.96450451948843
  H   -1.24645385112541     -1.88410695154997      0.34209214879141
  H   -0.35706985701684     -1.40119062491710      1.65969054038649
  C   -0.23196414502096      1.09811588436476      1.16715648795084
  N   0.08018109559632      1.92307177856110      1.94266565119223
  C   1.15940489234516      0.90394870502640     -1.38838526266108
  N   1.55668582472960      1.84587918949489     -1.96450906367229
