12
Coordinates from ORCA-job run
  C   -0.38999503248668      0.20184592551107      0.33927999231522
  C   0.88799404641590      0.40851550102153     -0.48994380826887
  Cl  -1.76476491628986      1.01318671107746     -0.57470076097748
  H   1.01139420381252      1.46758566994744     -0.72233662541866
  H   1.73818174320010      0.07345764275210      0.11092675341385
  N   -0.59837689917055     -1.17348260069656      0.59827979369221
  H   -1.40182796917222     -1.32982944130246      1.19361597700253
  H   -0.70271416879695     -1.70115310316583     -0.26114006299382
  C   -0.25693379187231      0.92943987870219      1.60570504831161
  N   -0.11919555325251      1.51040714227648      2.61693588223336
  C   0.83178477111506     -0.37189476769199     -1.72223946346886
  N   0.76445356649746     -1.02707855843142     -2.69338272584112
