12
Coordinates from ORCA-job run
  C   -0.38221572386824      0.22943988310169      0.33030091997314
  C   0.94871544243543      0.33011926694166     -0.43315700795075
  Cl  -1.61876477684370      1.21806284046496     -0.60605382957378
  H   1.19344148039600      1.37822475255104     -0.61326701659341
  H   1.72912931495053     -0.11693474481176      0.18912088042038
  N   -0.74613204774115     -1.12457014543799      0.51974675827568
  H   -0.86478123531723     -1.60378039172007     -0.36580831966778
  H   -1.58854210268740     -1.21741302546089      1.07301777644143
  C   -0.23338909354396      0.88896922929273      1.63177728688081
  N   -0.08870382546244      1.40760424289943      2.67541585197240
  C   0.86996392192046     -0.39146100702213     -1.69948278877138
  N   0.78227864576166     -0.99726090079867     -2.70061051140674
