12
Coordinates from ORCA-job run
  C   -0.52462922892023      0.22965960713114      0.29000775552834
  C   0.81576157780711      0.44673248193521     -0.45638972212320
  Cl  -1.82407994435809      0.93049084389100     -0.72928233265346
  H   1.63477813629935      0.16054032000679      0.21190299488198
  H   0.94030720223286      1.50030146954792     -0.71763811068820
  N   -0.87399371056670     -1.13242188971183      0.58187356202581
  H   -0.21785868711818     -1.54188359561957      1.23700557341759
  H   -0.90496338769467     -1.68342139641256     -0.26895795732238
  C   -0.45739804134847      0.98270530700492      1.54909941451692
  N   -0.33146698479445      1.56153657307730      2.56316107843838
  C   0.86708241699379     -0.38163371453358     -1.65615641491661
  N   0.87746065146771     -1.07260600631671     -2.60462584110514
