12
Coordinates from ORCA-job run
  C   -0.45236463685404      0.17167550264454      0.26997470682445
  C   0.78627918224239      0.48932192800334     -0.58362223810308
  Cl  -1.91878206582364      0.30757301585818     -0.83245490954261
  H   1.64650731858816      0.56674492305082      0.08729408416490
  H   0.64770026840481      1.44230160445706     -1.09695302292889
  N   -0.31395272246286     -1.08883297006261      0.89764746929611
  H   -0.21174706362415     -1.83259418196399      0.21619672382937
  H   -1.09197299394966     -1.29443248515380      1.51155161843442
  C   -0.60968305375158      1.21635577540911      1.28709115097615
  N   -0.70859267512081      2.05039516523374      2.10783256126539
  C   1.02628671247202     -0.57330999508396     -1.55506385427038
  N   1.20032172987937     -1.45419828239245     -2.31049428994582
