12
Coordinates from ORCA-job run
  C   -0.50885434488882      0.26298129450330      0.29013302277817
  C   0.85442206763729      0.39119729315128     -0.43580388592086
  Cl  -1.73569874018598      1.08792162302988     -0.72551166956171
  H   1.63918717730630      0.02479386636282      0.23435064941096
  H   1.06472939908302      1.43782352110808     -0.66842140536070
  N   -0.96768575013355     -1.07385658468440      0.54423550002530
  H   -0.35352629956131     -1.55029162896018      1.19468666948495
  H   -1.03361811449404     -1.59964128771832     -0.32037995782724
  C   -0.39822111826511      0.97920815973340      1.56762680692406
  N   -0.24310434291038      1.53810055608858      2.58877560428556
  C   0.85569489047108     -0.40984013007760     -1.65496411784998
  N   0.82867517594151     -1.08739668253680     -2.61272721638850
