12
Coordinates from ORCA-job run
  C   -0.45263616976050      0.16128521226197      0.27693410686429
  C   0.77865942030263      0.50800040332212     -0.57613968772382
  Cl  -1.92593114385904      0.31002565857683     -0.81427374641957
  H   0.62913475805426      1.47052801651503     -1.06821834500813
  H   1.64240972566571      0.57849701124305      0.09097715094780
  N   -0.30051416671590     -1.11196266988025      0.87516608788320
  H   -0.19596476867350     -1.83916862713808      0.17641402568918
  H   -1.07378254028023     -1.33779224360644      1.48799480873491
  C   -0.61214463228649      1.18179814992647      1.31795532731003
  N   -0.71547112422622      2.00026029773376      2.15374896221886
  C   1.02222083201806     -0.53070210515705     -1.57235433938450
  N   1.20501980976120     -1.39276910379741     -2.34720435111225
