12
Coordinates from ORCA-job run
  C   -0.56556020276689      0.20190961402697      0.22611170737126
  C   0.75981936733391      0.45848809975462     -0.53502608897077
  Cl  -1.90784058384289      0.45230220872310     -0.93736344364718
  H   1.58070878592874      0.45580864932308      0.18978314111333
  H   0.73619742231240      1.43658164769981     -1.02136784711725
  N   -0.71922252716967     -1.10118353872162      0.80894647492895
  H   -0.04022679203533     -1.25181311887032      1.54608442865614
  H   -0.63174759336734     -1.82256624040137      0.10171161819386
  C   -0.66924222624484      1.21246412785736      1.28699181319013
  N   -0.68254543690672      2.01753064698622      2.14188857540914
  C   0.98882820570127     -0.59240663597338     -1.52043452133430
  N   1.14883158105735     -1.46611546040444     -2.28732585779332
