12
Coordinates from ORCA-job run
  C   -0.69244676079096      0.07563405112032      0.16591911002666
  C   0.24717946956012      0.10610508122921     -1.06331130948825
  Cl  -2.36355670414034      0.10305037284040     -0.49282604644507
  H   0.08794304561766      1.01716627073257     -1.64571219318605
  H   0.00556168282053     -0.74955946854903     -1.70062085999046
  N   -0.56321502430072     -1.06683828067469      1.02448352260054
  H   0.32456482163550     -1.05283457195016      1.51403201529872
  H   -0.65449833438672     -1.92689660883311      0.49653169945205
  C   -0.48613245586478      1.29128231734382      0.96309001033624
  N   -0.28320384431638      2.25674978605760      1.60022497135853
  C   1.63841008642459      0.01684138562832     -0.62909729426706
  N   2.73939401774152     -0.07070033494528     -0.23171362569587
