12
Coordinates from ORCA-job run
  C   -0.51979094780380     -0.06037568117972      0.10978366065911
  C   0.76575129285442     -0.27449476923532     -0.69866022918161
  Cl  -1.83464084914669      0.40820863288371     -1.00390477184223
  H   0.55719962817641     -1.05510571755817     -1.43374362424177
  H   1.54866952328063     -0.63804695809766     -0.02430537078700
  N   -0.87940273083501     -1.32060242615515      0.71841284844695
  H   -1.78206076167767     -1.24289611547883      1.17391086228296
  H   -0.18980072996100     -1.56940580873576      1.42085186759249
  C   -0.34215258105485      1.03954118226147      1.07565794060523
  N   -0.17427314264888      1.85808010820654      1.90279777669738
  C   1.23065306485424      0.94026542063250     -1.35947116553573
  N   1.62084823396220      1.91483213245641     -1.88332979469578
