18

C	-0.306949	0.063334	-1.494923
C	0.0	0.0	0.0
F	-0.30594	-1.187152	-2.093937
H	1.092768	0.0	0.0
N	-1.763887	0.492691	-1.739911
O	-1.99094	1.39067	-2.545933
O	-2.608921	-0.148299	-1.119535
N	0.561612	0.979317	-2.076853
H	0.463911	1.028977	-3.080603
H	1.521604	0.79664	-1.784769
N	-0.462031	-1.268895	0.639036
O	-1.311882	-1.192066	1.527648
O	0.066781	-2.309745	0.262332
C	-0.499363	1.218878	0.744791
H	-1.586897	1.241037	0.810199
H	-0.090051	1.212014	1.755252
H	-0.134336	2.109554	0.231755
Cl	3.279194	0.0	0.0
