18

C	-0.257587	-0.03366	-1.499425
C	0.0	0.0	0.0
F	0.023692	-1.305538	-1.945661
H	1.105179	0.0	0.0
N	-1.708431	0.211404	-1.93744
O	-2.183824	-0.532448	-2.786709
O	-2.266828	1.183542	-1.443455
N	0.531265	0.954538	-2.114162
H	1.48677	0.881908	-1.75775
H	0.53588	0.821471	-3.118813
N	-0.546755	-1.224328	0.635689
O	-1.652939	-1.605333	0.242537
O	0.088415	-1.726652	1.556177
C	-0.476287	1.204669	0.789662
H	-1.560265	1.217961	0.897391
H	-0.159037	2.113617	0.280193
H	0.001742	1.167704	1.770967
Cl	3.300212	0.0	0.0
