18

C	-0.467844	0.010094	-1.446347
C	0.0	0.0	0.0
F	0.10102	-0.969929	-2.174313
H	1.091581	0.0	0.0
N	-2.006502	-0.344253	-1.463318
O	-2.331805	-1.517511	-1.592604
O	-2.776393	0.606825	-1.320585
N	-0.235359	1.248837	-2.075582
H	-0.317276	1.138182	-3.078012
H	-0.887902	1.945673	-1.746466
N	-0.454631	-1.282948	0.629412
O	0.13774	-2.307685	0.307584
O	-1.409539	-1.232231	1.411346
C	-0.474011	1.195268	0.801915
H	-1.557335	1.312105	0.799174
H	0.012502	2.08533	0.400181
H	-0.137036	1.077434	1.831493
Cl	3.296917	0.0	0.0
