18

C	-0.322384	-0.047486	-1.503781
C	0.0	0.0	0.0
F	-0.434651	-1.340683	-1.915661
H	1.093627	0.0	0.0
N	-1.716766	0.559181	-1.732221
O	-2.670376	-0.174268	-1.504113
O	-1.781919	1.744057	-2.052975
N	0.605065	0.642917	-2.306063
H	0.357084	1.617155	-2.395851
H	1.543407	0.537199	-1.91904
N	-0.51443	-1.206834	0.706984
O	-1.559424	-1.090686	1.354693
O	0.132413	-2.242958	0.594804
C	-0.469155	1.271169	0.675759
H	-0.046016	2.130268	0.152812
H	-1.555624	1.35337	0.702639
H	-0.090511	1.284923	1.698391
Cl	3.288567	0.0	0.0
