18

C	-0.55541	-0.026384	-1.421785
C	0.0	0.0	0.0
F	-0.027901	1.06144	-2.057742
H	1.104302	0.0	0.0
N	-0.006393	-1.235028	-2.202305
O	0.673868	-2.052473	-1.593128
O	-0.273687	-1.250723	-3.397352
N	-1.96279	0.025108	-1.625389
H	-2.422468	-0.606657	-0.98409
H	-2.276247	0.975155	-1.48021
N	-0.467517	-1.168196	0.799309
O	0.020722	-1.304118	1.914292
O	-1.34458	-1.902899	0.33119
C	-0.439629	1.259056	0.736766
H	-0.126672	2.131872	0.163608
H	0.069785	1.28681	1.69946
H	-1.521943	1.289997	0.897971
Cl	3.281102	0.0	0.0
