12

C	0.0	0.0	0.0
C	-0.521253	-0.0635	-1.42578
F	1.382903	0.0	0.0
H	-1.473284	0.4669	-1.475451
H	-0.362138	-0.848051	0.581232
H	0.222115	0.447468	-2.047158
C	-0.381415	1.260697	0.672735
N	-0.552139	2.268953	1.247384
N	-0.631042	-1.468693	-1.830764
H	-1.550834	-1.769783	-1.519072
H	-0.63697	-1.516792	-2.842639
Cl	-3.468567	0.0	0.0
