12

C	0.0	0.0	0.0
C	-0.470481	0.096824	-1.432873
F	1.389226	0.0	0.0
H	-1.561114	0.064284	-1.40344
H	-0.355103	-0.927998	0.446318
H	-0.147451	1.067227	-1.835811
C	-0.39494	1.150553	0.830955
N	-0.591425	2.063088	1.543214
N	0.063031	-1.05601	-2.15693
H	-0.479296	-1.204118	-2.99691
H	1.022082	-0.879007	-2.426357
Cl	-3.559511	0.0	0.0
