12

C	0.0	0.0	0.0
C	-0.447989	0.345317	-1.431826
F	1.383726	0.0	0.0
H	-0.100557	1.364168	-1.632939
H	-0.355743	-0.990807	0.295165
H	0.138799	-0.324811	-2.071565
C	-0.434565	0.998071	0.989218
N	-0.690529	1.838697	1.767267
N	-1.840683	0.228584	-1.766387
H	-2.177162	-0.718121	-1.64741
H	-2.457137	0.775718	-1.171599
Cl	-4.542537	0.0	0.0
