12

C	0.0	0.0	0.0
C	-0.522596	0.161968	-1.426733
F	1.383022	0.0	0.0
H	-1.314286	0.914321	-1.43533
H	-0.358777	-0.933913	0.432493
H	0.32699	0.520543	-2.01812
C	-0.375835	1.129844	0.873947
N	-0.548341	2.021876	1.616327
N	-0.969987	-1.137761	-1.927151
H	-1.885772	-1.266146	-1.495127
H	-1.140147	-1.049944	-2.923152
Cl	-3.408289	0.0	0.0
