12

C	0.0	0.0	0.0
C	-0.428789	-0.143731	-1.454586
F	1.388235	0.0	0.0
H	0.113502	0.625608	-2.016751
H	-0.369895	-0.825487	0.609692
H	-1.499965	0.037112	-1.523452
C	-0.401519	1.283562	0.611513
N	-0.593914	2.309861	1.148568
N	-0.109958	-1.454999	-2.008436
H	0.814182	-1.734373	-1.700277
H	-0.778686	-2.125128	-1.646076
Cl	-3.422234	0.0	0.0
