14

C	-0.458042	0.069986	-1.445917
C	0.0	0.0	0.0
Cl	-2.215284	0.266113	-1.59167
H	1.093766	0.0	0.0
H	0.026105	0.92089	-1.918214
N	-0.026341	-1.146359	-2.220439
O	-0.585673	-2.211752	-1.982843
O	0.886929	-0.964325	-3.019561
C	-0.518295	-1.172669	0.71129
N	-0.960397	-2.041099	1.36833
N	-0.366322	1.261764	0.64113
H	0.37762	1.511742	1.281627
H	-1.232057	1.171882	1.156036
Cl	3.215584	0.0	0.0
