14

C	-0.387686	0.074524	-1.478328
C	0.0	0.0	0.0
Cl	-2.137014	0.295002	-1.716463
H	1.094942	0.0	0.0
H	0.128914	0.914892	-1.936735
N	0.060843	-1.141628	-2.245869
O	-0.566354	-2.183507	-2.086136
O	1.050043	-0.980141	-2.95149
C	-0.553322	-1.18963	0.653474
N	-1.016874	-2.112303	1.214493
N	-0.366706	1.194726	0.741089
H	-1.251731	1.58279	0.445081
H	0.372835	1.876153	0.642576
Cl	3.212914	0.0	0.0
