14

C	-0.590133	-0.000205	-1.401792
C	0.0	0.0	0.0
Cl	0.070299	-1.279771	-2.419602
H	1.095279	0.0	0.0
H	-1.674168	-0.099316	-1.376062
N	-0.348205	1.326136	-2.077248
O	0.666481	1.944493	-1.790676
O	-1.205974	1.666465	-2.891254
C	-0.456984	-1.217302	0.671086
N	-0.849209	-2.158662	1.254285
N	-0.516995	1.198348	0.682428
H	-0.911487	0.954434	1.580995
H	0.278594	1.805265	0.844659
Cl	3.28542	0.0	0.0
