14

C	-0.4387	-0.026032	-1.460657
C	0.0	0.0	0.0
Cl	0.300742	1.284595	-2.365391
H	1.101081	0.0	0.0
H	-0.160689	-0.967726	-1.92779
N	-1.950196	0.052865	-1.549
O	-2.515427	-1.024345	-1.361322
O	-2.493097	1.12669	-1.758187
C	-0.453968	-1.209025	0.68749
N	-0.769993	-2.17746	1.271499
N	-0.5682	1.180036	0.667174
H	-0.301827	1.122069	1.646173
H	-0.073225	1.986712	0.300069
Cl	3.278451	0.0	0.0
