16

C	-0.579002	-0.036163	-1.403704
C	0.0	0.0	0.0
Cl	0.21503	1.108404	-2.472585
H	1.089998	0.0	0.0
H	-1.644583	0.172896	-1.397771
N	-0.462382	-1.441264	-1.948519
O	-1.466907	-2.136078	-1.778654
O	0.584156	-1.800987	-2.463949
C	-0.474	-1.146112	0.883608
H	-1.563028	-1.238348	0.89714
H	-0.034882	-2.080169	0.532737
H	-0.098968	-0.968848	1.893072
N	-0.470461	1.271399	0.645259
O	-1.557318	1.740495	0.290826
O	0.225533	1.723472	1.546063
Cl	3.290105	0.0	0.0
