16

C	-0.585686	0.00201	-1.399587
C	0.0	0.0	0.0
Cl	0.179873	1.19518	-2.436339
H	1.090019	0.0	0.0
H	-1.654496	0.190767	-1.378927
N	-0.444048	-1.380197	-1.985493
O	0.63803	-1.724622	-2.43796
O	-1.457867	-2.080532	-1.903696
C	-0.479238	-1.173514	0.843426
H	-0.033524	-2.094354	0.466547
H	-0.114408	-1.030064	1.861917
H	-1.567426	-1.266594	0.845193
N	-0.481863	1.250587	0.676196
O	0.276751	1.787947	1.474577
O	-1.637533	1.619691	0.439979
Cl	3.334468	0.0	0.0
