16

C	-0.470733	-0.015622	-1.44403
C	0.0	0.0	0.0
Cl	0.347174	-1.24478	-2.384119
H	1.092699	0.0	0.0
H	-0.309535	0.954642	-1.9061
N	-1.973481	-0.238027	-1.457747
O	-2.619695	0.735912	-1.076671
O	-2.436056	-1.328678	-1.762158
C	-0.518115	-1.151643	0.829736
H	-1.596184	-1.092296	0.992498
H	-0.01794	-1.152064	1.796432
H	-0.277516	-2.086065	0.31976
N	-0.371826	1.328267	0.600995
O	-0.833175	1.336259	1.740725
O	-0.13771	2.331052	-0.067377
Cl	3.241795	0.0	0.0
