16

C	-0.462014	4.1e-05	-1.447446
C	0.0	0.0	0.0
Cl	0.345909	-1.233554	-2.390236
H	1.092692	0.0	0.0
H	-0.282642	0.971149	-1.90154
N	-1.967377	-0.201128	-1.474899
O	-2.442978	-1.283579	-1.79077
O	-2.602485	0.779779	-1.091253
C	-0.524829	-1.157796	0.815663
H	-1.605432	-1.104596	0.963431
H	-0.039272	-1.160456	1.790201
H	-0.271765	-2.088478	0.304997
N	-0.373912	1.323943	0.609294
O	-0.885897	1.323354	1.729267
O	-0.096772	2.331559	-0.036931
Cl	3.250517	0.0	0.0
