16

C	-0.576988	-0.022729	-1.403913
C	0.0	0.0	0.0
Cl	0.223086	1.126328	-2.46417
H	1.089999	0.0	0.0
H	-1.639853	0.19705	-1.39614
N	-0.473303	-1.422358	-1.957269
O	-1.47755	-2.112647	-1.774052
O	0.565673	-1.784208	-2.487942
C	-0.474152	-1.150572	0.876983
H	-0.092617	-0.98098	1.884369
H	-0.041598	-2.084515	0.517433
H	-1.56273	-1.23831	0.895426
N	-0.466426	1.269735	0.655911
O	-1.532809	1.765967	0.283818
O	0.217313	1.693262	1.579707
Cl	3.307891	0.0	0.0
