16

C	-0.559735	-0.063758	-1.406182
C	0.0	0.0	0.0
Cl	-2.33375	0.000893	-1.428335
H	1.092715	0.0	0.0
H	-0.256294	-1.011685	-1.84672
N	0.006319	0.973497	-2.368448
O	-0.673701	1.932747	-2.699521
O	1.137261	0.704053	-2.750728
C	-0.424965	-1.204491	0.818553
H	0.071598	-1.164408	1.786693
H	-1.502735	-1.253369	0.971582
H	-0.080729	-2.106153	0.306352
N	-0.416142	1.276265	0.659005
O	-0.176769	2.310156	0.040616
O	-0.939648	1.22382	1.770974
Cl	3.241072	0.0	0.0
