14

C	-0.487659	-0.040119	-1.437525
C	0.0	0.0	0.0
Cl	0.267838	1.214704	-2.415647
H	1.097137	0.0	0.0
H	-0.379109	-0.905509	0.485584
C	-0.257191	-1.342548	-2.059088
N	-0.073703	-2.391917	-2.555078
N	-2.021706	0.162748	-1.4399
O	-2.639303	-0.747557	-0.891902
O	-2.506261	1.182398	-1.90023
N	-0.478081	1.230173	0.626648
H	0.342617	1.716455	0.96609
H	-1.07138	1.025242	1.418582
F	2.602685	0.0	0.0
