14

C	-0.479531	0.163117	-1.412537
C	0.0	0.0	0.0
Cl	-0.072275	1.77887	-2.053289
H	1.101982	0.0	0.0
H	-0.372085	0.848803	0.58241
C	0.054007	-0.864051	-2.302651
N	0.502425	-1.687556	-3.008247
N	-2.023179	0.079921	-1.495097
O	-2.642917	0.532495	-0.539802
O	-2.522527	-0.391977	-2.510762
N	-0.476724	-1.303148	0.455588
H	0.296993	-1.764836	0.916645
H	-1.249503	-1.21429	1.102052
F	2.595711	0.0	0.0
