14

C	-0.525247	-0.006004	-1.419434
C	0.0	0.0	0.0
Cl	-2.301355	0.274456	-1.502763
H	1.092335	0.0	0.0
H	-0.337465	0.94603	0.443957
C	0.119425	1.007221	-2.249997
N	0.592257	1.849644	-2.918531
N	-0.225078	-1.378899	-2.044262
O	0.942947	-1.5272	-2.373815
O	-1.120159	-2.203026	-2.118535
N	-0.44988	-1.191563	0.70106
H	-1.214728	-1.005418	1.334539
H	0.34467	-1.534445	1.226554
F	2.584164	0.0	0.0
