14

C	-0.484007	-0.065781	-1.42889
C	0.0	0.0	0.0
Cl	0.085677	-1.560071	-2.2096
H	1.102277	0.0	0.0
H	-0.356573	-0.910105	0.495077
C	-1.938813	0.012276	-1.563619
N	-3.113002	0.045891	-1.597717
N	0.076882	1.106606	-2.259862
O	-0.380878	1.214449	-3.396394
O	0.920311	1.818406	-1.743854
N	-0.52944	1.228162	0.592159
H	-1.136329	1.030194	1.374594
H	0.266592	1.759116	0.922641
F	2.61255	0.0	0.0
