14

C	-0.27685	0.054721	-1.495562
C	0.0	0.0	0.0
Cl	-2.022848	0.453567	-1.862725
H	1.09494	0.0	0.0
H	-0.330549	0.943411	0.445918
C	0.635103	1.118595	-2.098833
H	0.323133	2.098307	-1.727866
H	1.638531	0.891166	-1.714196
H	0.590981	1.115174	-3.189417
C	-0.019526	-1.244135	-2.123008
N	0.196771	-2.285485	-2.622567
C	-0.61392	-1.114896	0.687651
N	-1.10376	-2.011488	1.26916
F	2.583436	0.0	0.0
