14

C	-0.211164	0.073592	-1.511846
C	0.0	0.0	0.0
Cl	-1.952333	0.358373	-1.987819
H	1.095004	0.0	0.0
H	-0.411456	-0.914812	0.428878
C	0.678707	1.165842	-2.088353
H	0.674423	1.154626	-3.178851
H	1.675744	0.96249	-1.676617
H	0.326162	2.137014	-1.731146
C	0.151612	-1.225873	-2.08733
N	0.425773	-2.271061	-2.550142
C	-0.516394	1.169131	0.680393
N	-0.917113	2.121321	1.241867
F	2.579011	0.0	0.0
