14

C	-0.456856	0.038147	-1.460718
C	0.0	0.0	0.0
Cl	0.193128	-1.4407	-2.265256
H	1.092962	0.0	0.0
H	-0.345125	-0.942095	0.439767
C	-1.970032	0.036065	-1.644244
H	-2.238128	0.012128	-2.701997
H	-2.391798	0.931692	-1.182407
H	-2.382669	-0.846647	-1.151564
C	0.116847	1.199633	-2.150184
N	0.52207	2.159001	-2.693821
C	-0.561806	1.112874	0.736999
N	-1.022788	2.018436	1.330535
F	2.52508	0.0	0.0
