15

C	0.0	0.0	0.0
C	-0.47733	-0.071638	-1.443336
F	1.395906	0.0	0.0
H	-1.555968	0.14833	-1.45849
H	-0.355925	0.949072	0.400499
N	-0.492975	-1.085167	0.741674
H	-0.671522	-0.861852	1.70689
H	0.085336	-1.902723	0.622923
N	-0.265544	-1.38524	-2.112444
O	0.548152	-2.17322	-1.634067
O	-0.9146	-1.562475	-3.138677
N	0.278023	0.943507	-2.24926
O	1.039391	0.560201	-3.131412
O	0.089326	2.107742	-1.913785
Br	-3.648662	0.0	0.0
