14

C	0.0	0.0	0.0
C	-0.475335	0.281986	-1.434163
Cl	1.80096	0.0	0.0
H	-1.545063	0.063246	-1.431605
H	0.044462	-0.433108	-2.078977
C	-0.414314	1.027615	0.960124
N	-0.597233	1.879348	1.74891
C	-0.401952	-1.338035	0.449847
N	-0.584397	-2.438557	0.817906
C	-0.233448	1.718416	-1.866823
H	-0.864103	2.393023	-1.285679
H	0.811146	2.020559	-1.755127
H	-0.508381	1.831706	-2.918292
Cl	-3.359306	0.0	0.0
