14

C	0.0	0.0	0.0
C	-0.471021	-0.301944	-1.432384
Cl	1.795421	0.0	0.0
H	-1.534109	-0.054725	-1.449049
H	0.078058	0.381592	-2.087208
C	-0.40316	1.346128	0.423581
N	-0.577952	2.461193	0.749613
C	-0.422321	-1.011327	0.973446
N	-0.595635	-1.86494	1.762059
C	-0.267201	-1.755648	-1.826447
H	0.762459	-2.090755	-1.678986
H	-0.93623	-2.391758	-1.245137
H	-0.519597	-1.884576	-2.882096
Cl	-3.358124	0.0	0.0
