14

C	0.0	0.0	0.0
C	-0.50573	0.131046	-1.442505
Cl	1.798098	0.0	0.0
H	-0.033792	1.027626	-1.857257
H	-1.584434	0.294701	-1.347148
C	-0.399053	1.153609	0.814099
N	-0.604418	2.109734	1.464614
C	-0.410946	-1.258116	0.633824
N	-0.60484	-2.30099	1.138259
C	-0.230093	-1.100837	-2.289255
H	0.832829	-1.352612	-2.33049
H	-0.783398	-1.958336	-1.899626
H	-0.577482	-0.919742	-3.308731
Cl	-3.457671	0.0	0.0
