14

C	0.0	0.0	0.0
C	-0.484354	-0.135991	-1.451411
Cl	1.798079	0.0	0.0
H	-1.553007	-0.352282	-1.377902
H	0.040731	-0.998643	-1.872744
C	-0.419299	1.255715	0.631095
N	-0.580848	2.313069	1.117508
C	-0.400648	-1.159599	0.805532
N	-0.569152	-2.137411	1.434448
C	-0.258466	1.122548	-2.273496
H	-0.883952	1.933138	-1.894815
H	0.785858	1.445184	-2.267627
H	-0.55056	0.934141	-3.309225
Cl	-3.386082	0.0	0.0
