16
Coordinates from ORCA-job run
  C   0.72126328084806     -0.12176602223195     -0.16146769284714
  C   -0.73861448486830      0.12879902250253      0.24836968447493
  Cl  0.75815575189576     -0.35488824711482     -1.98943503980781
  H   -0.68279758887114      0.25188852910960      1.34180794786152
  N   1.18896875326846     -1.26243826704906      0.53848224840180
  H   0.50270268703356     -2.00483086067879      0.45507230159336
  H   2.08778059005438     -1.56841682083464      0.18764264212867
  N   1.51259842946953      1.06731143974848      0.09081822813326
  H   2.31961430789380      1.09449641022312     -0.51911620091084
  H   1.83692155491919      1.01205470402649      1.05067125252976
  N   -1.51435470692384     -1.07392351341803      0.00231693051040
  H   -1.79944704592253     -1.05403056121920     -0.97163578244621
  H   -2.35290941406041     -1.06805635884845      0.56925262721489
  N   -1.25534905382462      1.29304555177822     -0.44360997527381
  H   -2.05435482017939      1.66024566777091      0.05859292533104
  H   -0.53117824073253      2.00350932623557     -0.45776209689383
