16
Coordinates from ORCA-job run
  C   0.75563299940145     -0.22780137852508     -0.08985261724475
  C   -0.75287785104913     -0.04549083800799     -0.29770475162550
  Cl  1.47886796136229      0.44660736493909     -1.85201369384041
  H   -1.02295462518334     -0.56360938569206     -1.22687150526330
  N   1.14447921833834     -1.55982419780132      0.04189581101483
  H   0.68068006411786     -2.15163293822882     -0.63256371859477
  H   2.14636900491674     -1.67702130061650     -0.03209992779420
  N   1.21948419249280      0.59197032224119      0.93158952382875
  H   0.90335869819323      1.54272791237668      0.79213551263731
  H   2.21672766579373      0.53515636508977      1.08310983409644
  N   -1.02071915945711      1.39483505970050     -0.36140433960927
  H   -0.73774092690510      1.75715644112652     -1.26523141309729
  H   -2.01520927571148      1.54999868471697     -0.25460842582693
  N   -1.43392119694857     -0.70474826653973      0.79102378846691
  H   -2.43639326512698     -0.58766189351914      0.70456007890004
  H   -1.12578350423470     -0.30166195126009      1.66803584395215
