16
Coordinates from ORCA-job run
  C   0.79261086717836     -0.05345009520817      0.00616210259974
  C   -0.63780925570968      0.49798021440912      0.04935954214812
  Cl  1.57082052195916      0.99477249298151     -1.53618718336863
  H   -0.56807000885298      1.59114879866809      0.11906695218272
  N   0.79519330825319     -1.40417462038765     -0.31948096434102
  H   1.71874172781299     -1.80641812902128     -0.39653413603078
  H   0.23165118073810     -1.56970977223384     -1.14309492823083
  N   1.54270856138150      0.24960713980902      1.14121395246604
  H   1.40923108921983      1.20800621778048      1.43086433382573
  H   2.52873748136618      0.06592972749513      1.01082155287760
  N   -1.26307456617922      0.01611951497744      1.25791414505740
  H   -2.22144304277195      0.33938129179543      1.31415161183415
  H   -1.25272712561407     -0.99702524720248      1.25587554884275
  N   -1.31996974787078      0.05701044346446     -1.17151374266598
  H   -2.31650426962901      0.19489597416355     -1.06017213736487
  H   -1.00809672128163      0.61392604850920     -1.95944664983216
