16
Coordinates from ORCA-job run
  C   0.71508330244400     -0.09685364131381     -0.21744513481494
  C   -0.80404850875107      0.14099165689141     -0.21160784159588
  Cl  0.97994110018105     -1.20096540865320     -1.80922327374061
  H   -1.05793754885502      0.58576597893622     -1.18427621715515
  N   1.08842888793838     -0.79161075620227      0.93258428043352
  H   0.41944643062588     -1.54006232692696      1.08324765161651
  H   2.03393424167422     -1.14774833340765      0.89591781342314
  N   1.44171092485465      1.10307296445239     -0.38358660502306
  H   2.43392445089770      0.95866194537984     -0.24491659767903
  H   1.29649280537279      1.48572680765739     -1.30883526112680
  N   -1.16396200390990      1.03297567356215      0.88078588676660
  H   -1.59780331059215      1.86876893989387      0.51471663685784
  H   -0.33387510774872      1.31216625307783      1.38689826481412
  N   -1.46666730191300     -1.13847531845014      0.01173227210604
  H   -1.65768405163158     -1.61974305293387     -0.85703074991894
  H   -2.32598431058724     -0.95367138196321      0.51003887503664
