14
Coordinates from ORCA-job run
  C   -1.01833958806632     -0.07871082302582      0.13823547443437
  C   0.50007761300164     -0.05829887126291      0.48398306109237
  Br  -1.74607295291910     -1.86915994441338      0.49670913242765
  H   0.57834507660757     -0.36609979430724      1.53297487763254
  C   -1.22907610535490      0.23056939284263     -1.27418512496829
  N   -1.35881864485769      0.47506879335608     -2.41713929420585
  C   -1.74726594978117      0.86455997647928      0.98400391818842
  N   -2.30854254319073      1.62438417939911      1.68450910325583
  C   0.96834250919322      1.32624427879707      0.37288154362806
  N   1.36288956567465      2.42738315436813      0.26216753794506
  C   1.33800979919092     -0.97776830001882     -0.40569692453569
  H   1.01135615531134     -2.01247140087173     -0.30579944512579
  H   2.38363775267214     -0.91270678025451     -0.10074833533379
  H   1.26645731251845     -0.67499386108789     -1.45189552443489
