14
Coordinates from ORCA-job run
  C   -1.01937457182334     -0.10512503620574      0.11520680777628
  C   0.49088068780840     -0.05639490500452      0.49236576128712
  Br  -1.71029432010718     -1.91984061685687      0.41927716609892
  H   0.55548185739693     -0.38500882533923      1.53599396808020
  C   -1.20908690861179      0.23046603808075     -1.29419071889338
  N   -1.32231077315547      0.49391353954872     -2.43464517195954
  C   -1.78754716566570      0.80158263080242      0.96619282198200
  N   -2.38176583274650      1.53184195335062      1.67101831188994
  C   0.92885128644380      1.34060380285313      0.42105091376504
  N   1.30327040418438      2.45194092017755      0.34505561735470
  C   1.36842510185007     -0.93665613658614     -0.39890802240521
  H   2.40670940640219     -0.84787174565362     -0.07535326977407
  H   1.06934490964466     -1.98168484221916     -0.32214361312315
  H   1.30541591837955     -0.61776677694793     -1.44092057207884
