14
Coordinates from ORCA-job run
  C   -1.02794330232590      0.26084568077717      0.11806579287231
  C   0.48371306525554      0.33646323665053      0.47164316998375
  Br  -1.96162382953000      1.82143421267979      0.85192820326633
  H   0.54056460132410      0.39899511544184      1.56433803851817
  C   -1.61167719905822     -0.93666512966188      0.72056824217094
  N   -2.03910032108007     -1.91069952988486      1.22184497187427
  C   -1.21732423336256      0.24093383446305     -1.33083379760335
  N   -1.33149118236665      0.21001028957746     -2.50090195705721
  C   1.05788192205011      1.55913351122084     -0.09101184821079
  N   1.55878799032037      2.51360312116689     -0.55758851114204
  C   1.24081312026065     -0.89845483389576     -0.02832490424617
  H   2.29178345396754     -0.81400084378923      0.25271274111191
  H   0.83468840489462     -1.80582755315666      0.42210586129625
  H   1.18192750965045     -0.97677111158919     -1.11554600283435
