14
Coordinates from ORCA-job run
  C   -0.96775705619151      0.02737802371382     -0.22730640542733
  C   0.53675883729652      0.31461051390846      0.04998568527901
  Br  -1.17583796401059     -1.41635413536564     -1.53941707926335
  H   0.54303715047650      1.16204064982694      0.74857270992475
  C   -1.61968077791332      1.22177155242876     -0.76137792982691
  N   -2.13287684113564      2.19982129254315     -1.16544180853672
  C   -1.62440072196180     -0.38276600108966      1.01305494786419
  N   -2.14142292233890     -0.68736670285124      2.02418266463791
  C   1.18391125542600      0.75465268489697     -1.18632759003930
  N   1.72533231675365      1.11735461325825     -2.16339075612837
  C   1.27525645113298     -0.86537051607828      0.68259157100038
  H   1.30802439149914     -1.71592336389446      0.00211482564591
  H   2.29917820476210     -0.56456529283590      0.90983216388399
  H   0.78947767620486     -1.16528331846117      1.61292700098585
