14
Coordinates from ORCA-job run
  C   -0.98086602015659      0.37817891285610      0.18669831962777
  C   0.51534498881592      0.13838992589376      0.53376204903238
  Br  -1.69075215122235      1.84298681669220      1.27973803645474
  H   0.55128590681647     -0.06965478821665      1.60930352981740
  C   -1.75170893587895     -0.82595383485219      0.49253759614518
  N   -2.33232912360535     -1.81484324890803      0.75249210157241
  C   -1.13184986221542      0.72970445375028     -1.22368175651730
  N   -1.21878318149543      0.99077818035505     -2.36697847792242
  C   1.28010320979038      1.35884397756452      0.27427951084333
  N   1.93159687994205      2.30903821195857      0.04562636740395
  C   1.09332378896181     -1.04195465185072     -0.25407371032744
  H   2.13727645918530     -1.18597901445449      0.02849159209021
  H   1.05227214810695     -0.85016901695661     -1.32790605366208
  H   0.54508589295521     -1.95836592383181     -0.02928910455815
