14
Coordinates from ORCA-job run
  C   -1.02285880376953     -0.09332368422197      0.08175780137067
  C   0.47522685718645     -0.07578473539017      0.50631113123372
  Br  -1.74761064710011     -1.90496343160921      0.31908736932559
  H   0.50323175344408     -0.43197627011830      1.54245672330236
  C   -1.16427458345793      0.27950066554814     -1.32408402890044
  N   -1.23804005942798      0.57339041632290     -2.46029711603746
  C   -1.80604087156662      0.80312472301476      0.93006234571535
  N   -2.41309826873603      1.52388829076961      1.63372477211616
  C   0.93412631241459      1.31605791270656      0.48418740571380
  N   1.32346212524003      2.42398061887692      0.44607654441595
  C   1.36740775986199     -0.94578123679780     -0.38065489214798
  H   1.34185101668439     -0.59848533118798     -1.41523801112677
  H   2.39632419899287     -0.88200828334516     -0.02298853235907
  H   1.05029321023379     -1.98761965456832     -0.34140151262190
