12

C	0.0	0.0	0.0
C	-0.525066	-0.110417	-1.420777
F	1.380669	0.0	0.0
H	-0.281336	0.812747	-1.954371
H	-0.284813	-0.908571	0.548779
H	-1.62932	-0.184357	-1.296331
N	-0.523484	1.205351	0.563475
H	-0.334289	1.193756	1.561619
H	-1.551341	1.073864	0.468795
C	0.009071	-1.261368	-2.134436
N	0.41878	-2.198586	-2.713446
H	-3.058522	0.0	0.0
