12

C	0.0	0.0	0.0
C	-0.480707	0.010048	-1.449259
F	1.394722	0.0	0.0
H	-0.238015	0.976154	-1.905247
H	-0.321441	-0.93348	0.467414
H	-1.583913	-0.076376	-1.351247
N	-0.526277	1.075971	0.772357
H	-0.431458	1.933193	0.230874
H	-1.544832	0.860846	0.78574
C	0.080112	-1.05843	-2.265094
N	0.534162	-1.918887	-2.922176
H	-3.023469	0.0	0.0
