12

C	0.0	0.0	0.0
C	-0.522871	-0.06521	-1.423943
F	1.3805	0.0	0.0
H	-0.290332	0.877407	-1.924922
H	-0.285799	-0.924673	0.520217
H	-1.625125	-0.152452	-1.301579
N	-0.522594	1.18795	0.599716
H	-0.337426	1.143959	1.598363
H	-1.550878	1.060053	0.498301
C	0.023691	-1.184037	-2.176664
N	0.446333	-2.093813	-2.7878
H	-3.051416	0.0	0.0
