12

C	0.0	0.0	0.0
C	-0.480664	0.010196	-1.450466
F	1.394816	0.0	0.0
H	-0.239683	0.976172	-1.907227
H	-0.321445	-0.934558	0.465301
H	-1.584152	-0.077075	-1.352354
N	-0.527767	1.073867	0.772187
H	-0.429567	1.933707	0.238092
H	-1.547138	0.861096	0.782853
C	0.080253	-1.058793	-2.265424
N	0.530773	-1.923629	-2.920161
H	-3.02559	0.0	0.0
