12

C	0.0	0.0	0.0
C	-0.481816	-0.0185	-1.452758
F	1.387488	0.0	0.0
H	-0.095134	-0.891269	-1.986613
H	-0.331625	-0.935873	0.457517
H	-1.585769	-0.086732	-1.349646
N	-0.517208	1.071883	0.778989
H	-1.537976	0.878277	0.79169
H	-0.398796	1.940868	0.266998
C	-0.104917	1.192945	-2.168316
N	0.195811	2.180048	-2.728968
H	-3.032685	0.0	0.0
