12

C	0.0	0.0	0.0
C	-0.635894	0.03475	-1.367521
F	1.403861	0.0	0.0
H	-0.373568	-0.851147	-1.952509
H	-0.323418	-0.911595	0.50582
H	-1.746856	0.015649	-1.09696
N	-0.424668	1.127693	0.756695
H	-0.112062	1.046926	1.713404
H	-0.046291	1.973218	0.348709
C	-0.285059	1.234011	-2.109018
N	-0.003981	2.210975	-2.699651
H	-3.245939	0.0	0.0
