12

C	0.0	0.0	0.0
C	-0.514258	0.117583	-1.421149
F	1.401109	0.0	0.0
H	-1.619511	0.08282	-1.307532
H	-0.284074	-0.994202	0.372646
H	-0.185132	-0.741444	-2.011173
N	-0.511317	1.083192	0.773032
H	-1.540485	0.978665	0.668855
H	-0.302117	0.909365	1.751411
C	-0.078487	1.3438	-2.074475
N	0.281381	2.320398	-2.619022
H	-3.041587	0.0	0.0
