18

C	-0.65049	0.03398	-1.563339
C	0.108616	0.0807	-0.235604
F	-0.437541	1.234245	-2.271628
H	1.177962	0.167177	-0.473362
C	-0.113786	-1.04531	-2.416621
N	0.275086	-1.855187	-3.172517
C	-2.150273	-0.141002	-1.415418
H	-2.354377	-1.078519	-0.898706
H	-2.622361	-0.15799	-2.400363
H	-2.55943	0.693321	-0.84346
N	-0.058357	-1.197215	0.431848
H	0.816832	-1.277685	1.025073
H	-0.824934	-1.113104	1.095514
C	-0.264115	1.293067	0.613498
H	-0.173784	2.234457	0.062958
H	0.426864	1.292521	1.459284
H	-1.284612	1.20812	1.00421
H	2.168894	-0.860341	1.813191
