18

C	-0.398006	-0.037047	-1.447633
C	-0.015673	-0.082209	0.022771
F	-0.079196	-1.294278	-2.000931
H	1.084024	-0.179292	0.022257
C	-1.85975	0.118069	-1.629518
N	-3.005231	0.308769	-1.805461
C	0.378207	1.017318	-2.211707
H	-0.021335	2.012554	-2.006054
H	1.424783	0.976444	-1.873243
H	0.290595	0.816843	-3.28273
N	-0.739125	-1.201537	0.645247
H	-0.438925	-1.253433	1.613478
H	-0.414675	-2.055132	0.203117
C	-0.345169	1.217276	0.7326
H	-0.15165	1.096687	1.803251
H	-1.394341	1.502478	0.604615
H	0.321852	2.005718	0.381476
H	2.963669	0.711036	-0.31
