18

C	-0.458751	0.029085	-1.510627
C	0.052325	0.131054	-0.066314
F	-1.856649	-0.126473	-1.512123
H	1.124738	0.350082	-0.131835
C	-0.196142	1.284781	-2.247505
N	0.020637	2.278018	-2.836037
C	0.145363	-1.150004	-2.240456
H	1.233067	-1.052011	-2.266829
H	-0.103357	-2.03626	-1.658631
H	-0.253731	-1.216471	-3.255544
N	-0.070118	-1.163299	0.574185
H	0.916943	-1.378221	0.887052
H	-0.649696	-1.079274	1.401748
C	-0.643304	1.257621	0.68936
H	-0.177383	1.352472	1.672923
H	-0.563315	2.220942	0.175897
H	-1.70405	1.025346	0.822294
H	2.514369	-1.147152	1.054475
