17

C	-0.319783	0.096327	-1.487906
C	0.0	0.0	0.0
Br	-0.251874	1.942617	-2.111487
H	1.107604	0.0	0.0
C	0.676538	-0.731901	-2.266385
H	1.661598	-0.444598	-1.882357
H	0.575762	-0.584569	-3.341204
H	0.505124	-1.781469	-2.02307
N	-1.748562	-0.351417	-1.758819
O	-1.967212	-0.998276	-2.779577
O	-2.598048	-0.03326	-0.929417
N	-0.38177	-1.344324	0.433324
H	0.375069	-1.721693	0.990479
H	-1.237826	-1.331787	0.97041
C	-0.537367	1.050829	0.852022
N	-0.92972	1.834466	1.638788
F	2.574958	0.0	0.0
