17

C	-0.324786	0.074559	-1.491122
C	0.0	0.0	0.0
Br	-2.2078	0.539287	-1.855149
H	1.094704	0.0	0.0
C	0.610883	1.055819	-2.166756
H	0.546027	0.985714	-3.254183
H	0.34201	2.0681	-1.857098
H	1.61421	0.817645	-1.79332
N	-0.085589	-1.32966	-2.045314
O	1.091909	-1.596251	-2.260359
O	-1.028653	-2.093833	-2.196448
N	-0.471315	-1.216026	0.63007
H	-1.392295	-1.107715	1.036972
H	0.19192	-1.469275	1.351597
C	-0.422195	1.229825	0.665565
N	-0.75344	2.189387	1.261226
F	2.563379	0.0	0.0
