17

C	-0.317589	0.135894	-1.490489
C	0.0	0.0	0.0
Br	-2.180556	0.673209	-1.848031
H	1.094755	0.0	0.0
C	0.653507	1.106568	-2.130302
H	0.587653	1.077236	-3.220058
H	0.419495	2.115477	-1.785354
H	1.647198	0.824231	-1.760622
N	-0.119345	-1.256556	-2.08678
O	-1.086433	-1.977244	-2.291483
O	1.05209	-1.561783	-2.280606
N	-0.480345	-1.237995	0.577898
H	-1.395156	-1.137105	0.999465
H	0.186618	-1.533157	1.279211
C	-0.417935	1.203005	0.714021
N	-0.757898	2.136682	1.344733
F	2.567381	0.0	0.0
