17

C	-0.577073	0.000795	-1.413974
C	0.0	0.0	0.0
Br	0.395011	-1.307435	-2.490615
H	1.109087	0.0	0.0
C	-2.056847	-0.299175	-1.48423
H	-2.605973	0.491667	-0.962403
H	-2.221193	-1.251513	-0.980283
H	-2.401333	-0.353068	-2.514881
N	-0.315003	1.34253	-2.091451
O	-0.986327	1.601197	-3.090825
O	0.548524	2.066451	-1.611339
N	-0.320935	-1.291514	0.637472
H	0.557249	-1.614408	1.029184
H	-0.984564	-1.178957	1.393526
C	-0.548951	1.114456	0.753934
N	-1.032185	1.968317	1.405741
F	2.521224	0.0	0.0
