17

C	-0.587372	-0.036721	-1.410421
C	0.0	0.0	0.0
Br	0.396688	-1.35202	-2.467812
H	1.094684	0.0	0.0
C	-2.062659	-0.35744	-1.45996
H	-2.617909	0.434474	-0.946442
H	-2.415993	-0.433298	-2.485715
H	-2.210187	-1.30301	-0.939507
N	-0.345655	1.295411	-2.114856
O	-1.056887	1.55036	-3.0874
O	0.54635	2.01349	-1.681585
N	-0.316477	-1.273571	0.674185
H	0.564281	-1.586452	1.069439
H	-0.980654	-1.143458	1.426547
C	-0.547791	1.135222	0.725283
N	-1.034706	2.005172	1.351851
F	2.523776	0.0	0.0
