17

C	-0.241136	0.174817	-1.490057
C	0.0	0.0	0.0
Br	-2.153279	0.267015	-1.955313
H	1.099342	0.0	0.0
C	0.525142	1.373993	-2.00633
H	0.114454	2.288585	-1.576415
H	1.550918	1.225523	-1.645001
H	0.477527	1.426011	-3.092881
N	0.309685	-1.042139	-2.241227
O	0.850162	-1.931524	-1.596873
O	0.215237	-1.012423	-3.466421
N	-0.583417	-1.213331	0.56253
H	0.186782	-1.789434	0.8766
H	-1.172031	-0.992325	1.354653
C	-0.442478	1.194233	0.698691
N	-0.807165	2.131323	1.310408
F	2.566972	0.0	0.0
