17

C	-0.625053	-0.007948	-1.386323
C	0.0	0.0	0.0
Br	0.03809	1.454155	-2.484406
H	1.092629	0.0	0.0
N	-0.160594	-1.282049	-2.153357
O	-0.899391	-1.662006	-3.063256
O	0.882873	-1.82148	-1.822198
N	-2.041038	0.03076	-1.326291
H	-2.426638	-0.127679	-2.249623
H	-2.294812	-0.74394	-0.716309
N	-0.498519	-1.263858	0.630036
H	0.297939	-1.896171	0.616931
H	-0.67145	-1.048268	1.605522
N	-0.433949	1.195067	0.674426
H	0.195306	1.379171	1.444466
H	-1.397822	1.145516	0.983891
F	2.638183	0.0	0.0
