17

C	-0.698422	-0.006489	-1.34753
C	0.0	0.0	0.0
Br	0.204843	1.377398	-2.565483
H	1.093274	0.0	0.0
N	-0.450117	-1.292953	-2.112183
O	0.63299	-1.835663	-1.979734
O	-1.363839	-1.671514	-2.847107
N	-2.066098	0.200609	-1.219875
H	-2.550667	0.282255	-2.100953
H	-2.202794	0.986223	-0.593456
N	-0.457683	-1.179723	0.7026
H	-1.310151	-1.002753	1.220393
H	0.286736	-1.484432	1.316265
N	-0.456067	1.252724	0.677909
H	-0.1308	1.143076	1.634732
H	0.135598	1.989853	0.296484
F	2.626849	0.0	0.0
