17

C	-0.518018	0.058635	-1.394955
C	0.0	0.0	0.0
Br	-2.743589	0.38488	-1.181386
H	1.103792	0.0	0.0
N	-0.190966	1.278588	-2.225726
O	0.40414	2.204077	-1.698588
O	-0.519427	1.217636	-3.410622
N	-0.284202	-1.045102	-2.134823
H	-0.67224	-1.045582	-3.06437
H	-0.365935	-1.878537	-1.566227
N	-0.323297	-1.349821	0.493974
H	-1.179106	-1.331357	1.036717
H	0.449695	-1.635608	1.08479
N	-0.412994	1.121321	0.80201
H	0.323518	1.31166	1.468236
H	-1.291893	0.949993	1.274659
F	2.564311	0.0	0.0
