17

C	-0.531333	-0.000305	-1.39152
C	0.0	0.0	0.0
Br	-2.750669	0.30055	-1.16196
H	1.101157	0.0	0.0
N	-0.218142	1.19208	-2.26563
O	-0.589729	1.106353	-3.436203
O	0.418054	2.11686	-1.785222
N	-0.288012	-1.126269	-2.097074
H	-0.690423	-1.164836	-3.019733
H	-0.357867	-1.942415	-1.502142
N	-0.319885	-1.326032	0.552797
H	0.439342	-1.565406	1.180503
H	-1.19181	-1.293354	1.071743
N	-0.40753	1.15805	0.755777
H	0.356027	1.405072	1.371695
H	-1.254718	0.989845	1.283894
F	2.564577	0.0	0.0
