17

C	-0.36063	0.114935	-1.432799
C	0.0	0.0	0.0
Br	-2.615161	0.762656	-1.534902
H	1.107505	0.0	0.0
N	0.153648	1.319843	-2.180436
O	0.381398	2.340013	-1.547514
O	0.306695	1.184532	-3.392779
N	-0.207756	-0.998069	-2.154745
H	-0.440292	-1.818846	-1.606807
H	-0.407837	-0.953322	-3.139984
N	-0.394915	-1.348015	0.432507
H	0.398207	-1.713363	0.950998
H	-1.170741	-1.244784	1.077049
N	-0.43748	1.047023	0.892664
H	-1.179159	1.595626	0.475317
H	0.357469	1.649435	1.062679
F	2.54481	0.0	0.0
