14

C	0.0	0.0	0.0
C	-0.424249	0.26928	-1.482191
Br	1.946215	0.0	0.0
H	0.479019	0.560391	-2.031951
H	-0.323708	0.802774	0.65187
C	-0.450106	-1.279469	0.533399
N	-0.575689	-2.368919	0.958387
C	-1.31806	1.423908	-1.573065
N	-1.862659	2.432194	-1.839381
C	-1.02562	-0.951721	-2.179376
H	-1.946145	-1.186108	-1.649926
H	-0.320336	-1.785838	-2.146054
H	-1.227261	-0.711088	-3.227397
F	-2.350703	0.0	0.0
