14

C	0.0	0.0	0.0
C	-0.422634	0.117115	-1.500591
Br	1.949686	0.0	0.0
H	0.480631	0.354513	-2.076663
H	-0.323335	0.865095	0.567126
C	-0.453472	-1.215523	0.663887
N	-0.586957	-2.244024	1.21906
C	-1.320468	1.255741	-1.71189
N	-1.856322	2.235158	-2.080487
C	-1.00919	-1.173257	-2.069907
H	-1.200975	-1.049066	-3.139907
H	-1.932565	-1.361583	-1.527855
H	-0.302101	-1.997627	-1.937988
F	-2.348658	0.0	0.0
