14

C	0.0	0.0	0.0
C	-0.482565	0.032213	-1.465752
Br	1.935576	0.0	0.0
H	-1.586151	-0.098062	-1.262038
H	-0.378894	0.882489	0.505849
C	-0.441614	-1.202563	0.701787
N	-0.602375	-2.210245	1.28396
C	0.06644	-1.046217	-2.275306
N	0.475979	-1.871668	-3.007323
C	-0.217018	1.384942	-2.12138
H	-0.738242	2.155109	-1.548228
H	0.849765	1.623515	-2.168123
H	-0.613307	1.391679	-3.139786
F	-2.537319	0.0	0.0
