14

C	0.0	0.0	0.0
C	-0.424998	0.266154	-1.482405
Br	1.944533	0.0	0.0
H	0.476677	0.562444	-2.033225
H	-0.328112	0.800694	0.65198
C	-0.449086	-1.280895	0.531484
N	-0.574149	-2.3691	0.960503
C	-1.325357	1.418728	-1.574906
N	-1.855901	2.434343	-1.840061
C	-1.01081	-0.96335	-2.173947
H	-1.933879	-1.201765	-1.650642
H	-0.304702	-1.797262	-2.119243
H	-1.202163	-0.739097	-3.228365
F	-2.354833	0.0	0.0
