14

C	0.0	0.0	0.0
C	-0.572925	-0.120575	-1.410149
Br	1.946221	0.0	0.0
H	-1.69112	-0.206263	-1.070022
H	-0.351334	0.932796	0.435204
C	-0.411007	-1.111504	0.858609
N	-0.592493	-2.034039	1.562477
C	-0.083118	-1.292472	-2.105292
N	0.287917	-2.228075	-2.71603
C	-0.375922	1.158002	-2.215287
H	-0.930997	1.960693	-1.724313
H	-0.781616	1.037178	-3.222214
H	0.677403	1.442953	-2.301822
F	-2.648534	0.0	0.0
