14

C	0.0	0.0	0.0
C	-0.53498	-0.218957	-1.418394
Br	1.949095	0.0	0.0
H	-1.648624	-0.279403	-1.119044
H	-0.358267	0.960317	0.361077
C	-0.418319	-1.056781	0.919307
N	-0.584408	-1.95694	1.655705
C	-0.025105	-1.440172	-2.012002
N	0.39968	-2.415145	-2.51597
C	-0.28491	0.989853	-2.313496
H	0.778779	1.23407	-2.396352
H	-0.671259	0.802278	-3.318284
H	-0.822269	1.846748	-1.899719
F	-2.604328	0.0	0.0
