18

C	0.0	0.0	0.0
C	-0.540001	0.186444	-1.442343
Cl	1.803176	0.0	0.0
H	-1.629654	0.149027	-1.307442
C	-0.505851	1.04683	0.97819
H	-0.178324	0.809604	1.992684
H	-0.119103	2.030309	0.707563
H	-1.599971	1.037292	0.930256
C	-0.363809	-1.346209	0.463824
N	-0.585796	-2.439479	0.832742
N	-0.169826	-0.884371	-2.357377
H	0.825717	-1.068511	-2.294741
H	-0.660535	-1.73239	-2.095946
C	-0.161479	1.531173	-2.042725
H	-0.606823	1.584454	-3.036535
H	0.922839	1.635623	-2.144834
H	-0.544782	2.363172	-1.450798
Br	-3.91735	0.0	0.0
