18

C	0.0	0.0	0.0
C	-0.413943	-0.675451	-1.366091
Cl	1.80118	0.0	0.0
H	0.303553	-0.253856	-2.081324
C	-0.519097	1.420815	0.119449
H	-0.115935	1.901416	1.012861
H	-1.610429	1.389634	0.185862
H	-0.215213	1.995864	-0.759415
C	-0.410953	-0.796384	1.156182
N	-0.691083	-1.469071	2.077789
N	-1.731447	-0.386267	-1.856762
H	-1.859848	0.601628	-2.031903
H	-2.483942	-0.646105	-1.217158
C	-0.226305	-2.185365	-1.301987
H	-0.33369	-2.594296	-2.307541
H	0.749894	-2.466185	-0.901057
H	-1.004084	-2.62375	-0.672394
Br	-4.4787	0.0	0.0
