18

C	0.0	0.0	0.0
C	-0.38577	-0.087879	-1.523349
Cl	1.806333	0.0	0.0
H	0.373078	-0.739727	-1.967912
C	-0.599085	1.179538	0.736466
H	-0.274151	2.115335	0.2816
H	-1.691161	1.096614	0.677357
H	-0.298956	1.16991	1.785414
C	-0.350852	-1.253818	0.675433
N	-0.5765	-2.270407	1.22036
N	-0.299928	1.191746	-2.206269
H	0.557847	1.677624	-1.971057
H	-1.089744	1.770812	-1.945052
C	-1.748418	-0.712885	-1.765136
H	-1.95755	-0.628267	-2.834841
H	-1.752082	-1.767625	-1.487576
H	-2.565671	-0.235124	-1.218936
Br	-4.777331	0.0	0.0
