16

C	-0.138185	0.006215	0.002511
C	-0.467007	0.206502	-1.525578
F	1.265023	0.156972	0.106514
H	0.488821	-0.077501	-1.983273
C	-0.676046	1.013823	0.928043
N	-0.772659	1.921308	1.670713
C	-0.422924	-1.37085	0.42708
N	-0.471813	-2.513336	0.695945
C	-0.751829	1.674125	-1.801452
H	0.022975	2.319246	-1.378898
H	-0.79833	1.824442	-2.881394
H	-1.715602	1.941656	-1.363117
N	-1.496184	-0.620562	-2.106337
H	-1.246401	-1.599079	-2.013106
H	-2.354373	-0.48311	-1.568323
Cl	-3.357005	-0.001174	0.361056
