16

C	-0.3144	0.147382	-1.493336
C	0.0	0.0	0.0
F	-1.605202	0.549741	-1.715459
H	1.095083	0.0	0.0
C	0.671811	1.078458	-2.149665
H	0.58041	1.032019	-3.237102
H	1.667928	0.796425	-1.796679
H	0.446548	2.093224	-1.813139
N	-0.196806	-1.238143	-2.11959
O	0.941155	-1.671495	-2.251802
O	-1.234502	-1.813697	-2.430505
C	-0.568499	-1.189036	0.606153
N	-1.014613	-2.162212	1.092345
C	-0.43043	1.202522	0.694179
N	-0.754924	2.189988	1.243083
F	2.486755	0.0	0.0
