16

C	-0.315561	0.078312	-1.49417
C	0.0	0.0	0.0
F	-1.639521	0.365549	-1.73363
H	1.095073	0.0	0.0
C	0.593375	1.071278	-2.173736
H	0.506537	0.991608	-3.257214
H	1.610616	0.868581	-1.828592
H	0.294657	2.07472	-1.86108
N	-0.093174	-1.316917	-2.075219
O	1.054373	-1.610538	-2.38883
O	-1.076237	-2.04556	-2.162558
C	-0.559464	-1.159057	0.671244
N	-1.007591	-2.097536	1.219235
C	-0.434633	1.231651	0.6401
N	-0.768467	2.24186	1.139781
F	2.481618	0.0	0.0
