16

C	-0.185102	-0.090912	-1.515728
C	0.0	0.0	0.0
F	0.18699	1.107754	-2.042945
H	1.097975	0.0	0.0
C	0.65669	-1.190604	-2.105678
H	0.292892	-2.167231	-1.787433
H	0.633643	-1.119792	-3.19484
H	1.662364	-1.012875	-1.710288
N	-1.65319	-0.272256	-1.900277
O	-2.145322	-1.361501	-1.614469
O	-2.233204	0.659123	-2.450946
C	-0.439171	-1.184181	0.713251
N	-0.738419	-2.132	1.341188
C	-0.565398	1.214135	0.555024
N	-1.018028	2.198166	1.012261
F	2.485427	0.0	0.0
