16

C	-0.206588	-0.089537	-1.514287
C	0.0	0.0	0.0
F	0.128978	1.117679	-2.046284
H	1.098011	0.0	0.0
C	0.642581	-1.172422	-2.122012
H	0.30659	-2.154714	-1.794934
H	0.593092	-1.108158	-3.211384
H	1.652904	-0.978488	-1.747689
N	-1.683637	-0.288115	-1.85445
O	-2.335586	0.692455	-2.198335
O	-2.117465	-1.430582	-1.722629
C	-0.44366	-1.187609	0.705114
N	-0.752809	-2.133879	1.331307
C	-0.560782	1.211164	0.567628
N	-0.991242	2.194918	1.046375
F	2.483179	0.0	0.0
