16

C	-0.3324	0.335261	-1.452655
C	0.0	0.0	0.0
F	-1.640031	0.720149	-1.612221
H	1.107377	0.0	0.0
C	0.61541	1.381195	-1.984832
H	1.62567	1.087802	-1.678813
H	0.516864	1.473489	-3.068052
H	0.357899	2.337063	-1.519692
N	-0.168686	-0.939805	-2.275671
O	-1.153396	-1.372759	-2.865949
O	0.959475	-1.41434	-2.296136
C	-0.590012	-1.241553	0.457277
N	-1.073953	-2.243708	0.834715
C	-0.400847	1.115909	0.840401
N	-0.664139	2.048564	1.504903
F	2.478669	0.0	0.0
