16

C	-0.312898	0.271003	-1.47523
C	0.0	0.0	0.0
F	-0.036046	-0.859774	-2.18014
H	1.107036	0.0	0.0
C	-1.712055	0.731497	-1.807447
H	-2.416991	-0.03609	-1.482158
H	-1.93391	1.668252	-1.297295
H	-1.801933	0.866349	-2.88849
N	0.649595	1.345227	-1.974334
O	1.285708	1.118892	-2.993141
O	0.632906	2.391764	-1.337637
C	-0.515177	-1.300325	0.37894
N	-0.922691	-2.358074	0.693613
C	-0.513417	1.02143	0.889963
N	-0.93488	1.827053	1.636419
F	2.426534	0.0	0.0
