16

C	-0.31273	0.002878	-1.499623
C	0.0	0.0	0.0
F	-0.019506	-1.230659	-1.993528
H	1.10723	0.0	0.0
C	-1.716774	0.378883	-1.907626
H	-2.411151	-0.331738	-1.454407
H	-1.95414	1.386422	-1.567483
H	-1.805614	0.323289	-2.995862
N	0.637859	0.984126	-2.179876
O	1.29816	0.584347	-3.126349
O	0.589417	2.131619	-1.752172
C	-0.513418	-1.214164	0.601586
N	-0.919069	-2.200856	1.097303
C	-0.517311	1.161126	0.694791
N	-0.94294	2.083135	1.288529
F	2.42592	0.0	0.0
