16

C	-0.203522	-0.066917	-1.515362
C	0.0	0.0	0.0
F	0.135834	1.148718	-2.0279
H	1.098003	0.0	0.0
C	0.647593	-1.140233	-2.137111
H	0.603911	-1.058391	-3.225131
H	0.309288	-2.129114	-1.82714
H	1.65692	-0.951558	-1.757099
N	-1.678166	-0.259769	-1.865523
O	-2.321866	0.717779	-2.234151
O	-2.117703	-1.399295	-1.724499
C	-0.443099	-1.198209	0.687107
N	-0.751185	-2.159579	1.289998
C	-0.562775	1.202129	0.583229
N	-1.007864	2.178395	1.063457
F	2.484424	0.0	0.0
