16

C	-0.205136	-0.112463	-1.512797
C	0.0	0.0	0.0
F	0.134909	1.084923	-2.0631
H	1.097959	0.0	0.0
C	0.644995	-1.204749	-2.101499
H	0.306616	-2.181709	-1.760605
H	0.600416	-1.156423	-3.191646
H	1.653816	-1.004912	-1.72652
N	-1.681698	-0.313923	-1.85121
O	-2.121272	-1.449502	-1.682268
O	-2.328052	0.658016	-2.229231
C	-0.442777	-1.177033	0.723478
N	-0.749014	-2.114526	1.363783
C	-0.563561	1.218629	0.547661
N	-1.01577	2.206026	0.997856
F	2.48475	0.0	0.0
