16

C	-0.322083	0.132733	-1.492191
C	0.0	0.0	0.0
F	-0.006037	-1.044154	-2.096021
H	1.105942	0.0	0.0
C	-1.737688	0.509688	-1.854434
H	-2.40996	-0.257008	-1.466431
H	-1.836118	0.553458	-2.942185
H	-1.996891	1.474013	-1.421102
N	0.599744	1.192408	-2.087371
O	1.252814	0.895887	-3.075642
O	0.535425	2.293973	-1.554609
C	-0.514862	-1.263016	0.492749
N	-0.930516	-2.28544	0.899138
C	-0.519057	1.091324	0.799491
N	-0.947119	1.947729	1.483075
F	2.427348	0.0	0.0
