17

C	-0.467547	0.097948	-1.431947
C	0.0	0.0	0.0
F	-0.067938	-1.076173	-2.100467
H	1.091516	0.0	0.0
H	-1.564091	0.134475	-1.520384
C	0.23082	1.26372	-2.10805
H	-0.203441	2.216122	-1.799454
H	0.1229	1.173163	-3.19213
H	1.290992	1.218862	-1.823841
N	-0.52682	-1.28631	0.571635
O	0.228956	-1.979688	1.252499
O	-1.720599	-1.562184	0.386358
C	-0.547846	1.094202	0.891206
H	-0.072695	2.041142	0.634534
H	-1.63592	1.193859	0.812677
H	-0.285956	0.874421	1.928953
F	2.624872	0.0	0.0
