16

C	0.0	0.0	0.0
C	-0.448428	0.214049	-1.446094
Cl	1.869568	0.0	0.0
H	0.043888	-0.53501	-2.073597
H	-1.528253	0.027033	-1.441758
N	-0.473866	1.038804	0.821534
H	-0.123416	1.944506	0.547986
H	-0.306976	0.872611	1.80318
C	-0.459883	-1.34238	0.519969
H	-0.08549	-1.516606	1.532363
H	-0.098328	-2.146734	-0.123297
H	-1.555095	-1.322749	0.526568
N	-0.21947	1.536423	-2.004446
H	0.722534	1.85024	-1.804729
H	-0.886729	2.18386	-1.606228
Br	-4.103577	0.0	0.0
