16

C	0.0	0.0	0.0
C	-0.315313	0.286162	-1.4942
Cl	1.799122	0.0	0.0
H	0.26968	1.170902	-1.762552
H	0.09606	-0.554508	-2.065313
N	-0.491427	1.091996	0.808881
H	-1.507395	1.089414	0.700744
H	-0.30822	0.88558	1.786075
C	-0.488949	-1.366975	0.446877
H	-0.171285	-1.566739	1.474645
H	-1.58334	-1.371618	0.418656
H	-0.101139	-2.162194	-0.195219
N	-1.678895	0.514092	-1.898778
H	-2.325209	-0.197069	-1.575777
H	-2.036412	1.375427	-1.50758
Br	-4.359211	0.0	0.0
