17

C	0.0	0.0	0.0
C	-0.381956	0.005238	-1.500726
F	1.391377	0.0	0.0
H	0.40041	0.61422	-1.971412
N	-0.272819	1.402065	0.589327
O	-0.767719	1.477795	1.709477
O	0.090242	2.356967	-0.093771
N	-0.573907	-0.999952	0.758695
H	-0.935764	-0.642844	1.633829
H	-1.312506	-1.452513	0.233019
N	-1.649088	0.547728	-1.878628
H	-1.66796	1.54919	-1.739432
H	-2.43392	0.161105	-1.344198
N	-0.367525	-1.392834	-1.920499
H	0.575364	-1.761541	-1.884717
H	-0.704368	-1.410283	-2.875012
Cl	-4.187314	0.0	0.0
