17

C	0.0	0.0	0.0
C	-0.385697	-0.106912	-1.492815
F	1.403704	0.0	0.0
H	0.35565	0.516214	-2.011195
N	-0.273941	1.428124	0.504064
O	-0.64595	1.567235	1.665927
O	-0.023929	2.342758	-0.276476
N	-0.549002	-0.954326	0.834457
H	-1.224204	-1.519792	0.337705
H	-0.950209	-0.544929	1.666781
N	-1.686757	0.342876	-1.881392
H	-1.72965	1.352935	-1.858565
H	-2.443575	0.010078	-1.276149
N	-0.292828	-1.524916	-1.823977
H	0.673821	-1.825614	-1.828534
H	-0.684524	-1.626556	-2.75181
Cl	-4.261017	0.0	0.0
