17

C	0.0	0.0	0.0
C	-0.429379	0.150863	-1.493336
F	1.385435	0.0	0.0
H	-0.518331	-0.898716	-1.816831
N	-0.236449	1.286982	0.849885
O	-0.408264	2.364327	0.294661
O	-0.140252	1.12487	2.066843
N	-0.550332	-1.121987	0.610655
H	-1.550184	-1.146592	0.40181
H	-0.434502	-1.059898	1.615655
N	0.61664	0.880776	-2.204686
H	0.252719	1.02156	-3.138671
H	1.46878	0.339296	-2.255253
N	-1.664285	0.80392	-1.812838
H	-1.634322	1.745822	-1.444152
H	-2.478372	0.35211	-1.39537
Cl	-4.112437	0.0	0.0
