17

C	0.0	0.0	0.0
C	-0.419992	-0.083479	-1.48615
F	1.371397	0.0	0.0
H	-0.171999	0.89409	-1.92045
N	-0.288637	1.408562	0.603989
O	-0.190189	2.383021	-0.134732
O	-0.512623	1.451696	1.8113
N	-0.519719	-1.026282	0.773556
H	-0.522174	-0.785795	1.756162
H	-1.458421	-1.254688	0.453975
N	-1.784724	-0.503006	-1.579248
H	-2.482087	-0.003379	-1.021574
H	-2.085221	-0.493416	-2.543798
N	0.363036	-1.079331	-2.207427
H	1.350781	-0.888546	-2.092815
H	0.161315	-1.977297	-1.77989
Cl	-4.451805	0.0	0.0
