16

C	-0.345443	0.063531	-1.482587
C	0.0	0.0	0.0
Cl	-2.15497	0.041293	-1.719666
H	1.097953	0.0	0.0
H	-0.003076	-0.862017	-1.950246
C	0.251163	1.267888	-2.171095
H	1.331086	1.244549	-1.996379
H	0.053254	1.249635	-3.24529
H	-0.151777	2.179689	-1.733264
N	-0.42879	-1.233755	0.659813
H	0.280621	-1.943351	0.51811
H	-1.300434	-1.562933	0.258086
N	-0.468405	1.200795	0.669906
H	-1.446096	1.067071	0.912042
H	0.045193	1.264538	1.541714
Cl	3.47333	0.0	0.0
