16

C	-0.336373	-0.002687	-1.492535
C	0.0	0.0	0.0
Cl	-2.115814	0.1838	-1.776699
H	1.105	0.0	0.0
H	-0.087529	-0.985088	-1.902875
C	0.414244	1.079173	-2.240634
H	0.235433	1.012772	-3.31591
H	0.093643	2.066522	-1.901302
H	1.482549	0.964578	-2.033589
N	-0.576957	-1.178261	0.644263
H	-0.065185	-1.995909	0.322574
H	-0.362214	-1.076536	1.629788
N	-0.440373	1.163461	0.741165
H	0.188536	1.937663	0.571304
H	-1.38208	1.41747	0.465585
Cl	3.533867	0.0	0.0
