16

C	-0.343584	-0.007254	-1.483753
C	0.0	0.0	0.0
Cl	-2.148778	0.086804	-1.727445
H	1.097815	0.0	0.0
H	-0.063799	-0.983781	-1.878164
C	0.331765	1.108841	-2.247883
H	1.407845	1.03588	-2.066985
H	-0.019813	2.082829	-1.901541
H	0.133345	1.029785	-3.318191
N	-0.4802	-1.226229	0.610261
H	-0.046544	-1.283127	1.526185
H	-1.48157	-1.136616	0.763473
N	-0.41522	1.203728	0.719059
H	-1.31312	1.535169	0.377201
H	0.276299	1.933548	0.587994
Cl	3.524989	0.0	0.0
