16

C	-0.530637	-0.096564	-1.427188
C	0.0	0.0	0.0
Cl	0.057995	-1.615919	-2.183231
H	1.093996	0.0	0.0
H	-0.082796	0.70723	-2.018193
C	-2.045872	-0.079589	-1.505063
H	-2.38276	-0.168606	-2.540375
H	-2.432024	-0.914065	-0.920459
H	-2.44681	0.84748	-1.085234
N	-0.53425	-1.104473	0.807057
H	0.19976	-1.795401	0.913568
H	-0.733043	-0.718819	1.721223
N	-0.448828	1.27307	0.596281
H	-0.765491	1.91443	-0.121335
H	0.370045	1.700933	1.015412
Cl	3.51838	0.0	0.0
