18

C	-0.561504	0.004316	-1.43868
C	0.0	0.0	0.0
Br	0.329724	-1.374384	-2.515255
H	1.096307	0.0	0.0
C	-2.05371	-0.218164	-1.546633
H	-2.28873	-1.168576	-1.075209
H	-2.370664	-0.215624	-2.589148
H	-2.592753	0.578286	-1.029006
N	-0.191089	1.333051	-2.081944
O	-1.110459	2.010878	-2.551903
O	0.986458	1.663436	-2.055049
N	-0.521219	-1.198245	0.674355
H	-0.271604	-1.047174	1.646703
H	0.057225	-1.975029	0.36093
N	-0.414472	1.166626	0.748546
H	0.236932	1.922232	0.57533
H	-1.364306	1.457444	0.554379
H	2.938603	0.0	0.0
