18

C	-0.476588	0.077576	-1.435983
C	0.0	0.0	0.0
Br	-2.440643	0.431536	-1.532027
H	1.094052	0.0	0.0
C	0.259872	1.146615	-2.202931
H	0.021862	1.11466	-3.26875
H	1.329304	0.980544	-2.03633
H	-0.016063	2.111796	-1.781889
N	-0.226787	-1.276814	-2.08747
O	-1.125296	-2.101806	-2.175938
O	0.933645	-1.448198	-2.444336
N	-0.410881	-1.237091	0.62436
H	0.277003	-1.466985	1.334384
H	-1.329239	-1.159238	1.049112
N	-0.321708	1.259974	0.660011
H	0.428746	1.446033	1.321974
H	-1.204701	1.195544	1.157652
H	2.761867	0.0	0.0
