18

C	-0.414918	-0.097813	-1.474503
C	0.0	0.0	0.0
Br	-0.08604	1.591891	-2.417167
H	1.100201	0.0	0.0
C	0.343967	-1.201265	-2.167346
H	0.114517	-1.241997	-3.232106
H	1.40841	-1.012049	-2.000015
H	0.07007	-2.145212	-1.698409
N	-1.918754	-0.324294	-1.578461
O	-2.651479	0.472232	-0.989686
O	-2.321306	-1.296159	-2.211729
N	-0.467032	-1.249739	0.615725
H	-1.069392	-0.97994	1.384981
H	0.356502	-1.686829	1.028248
N	-0.422629	1.166713	0.746778
H	0.333625	1.836532	0.712715
H	-1.250841	1.586071	0.350006
H	2.84033	0.0	0.0
