18

C	-0.604659	0.017949	-1.413362
C	0.0	0.0	0.0
Br	0.132123	-1.450927	-2.463296
H	1.091172	0.0	0.0
C	-2.114527	-0.113435	-1.424474
H	-2.503444	-0.058913	-2.443184
H	-2.352037	-1.078663	-0.982227
H	-2.573681	0.6754	-0.827439
N	-0.203911	1.320122	-2.098241
O	0.862388	1.398291	-2.687381
O	-0.995104	2.259076	-1.946486
N	-0.462134	-1.228839	0.65708
H	-0.853199	-0.927905	1.541441
H	0.37426	-1.769589	0.863503
N	-0.397685	1.181685	0.769205
H	-0.979981	1.818557	0.241002
H	0.466157	1.671734	0.990223
H	2.824445	0.0	0.0
