18

C	-0.491382	0.065914	-1.431917
C	0.0	0.0	0.0
Br	-2.451527	0.442795	-1.496935
H	1.094124	0.0	0.0
C	0.246676	1.120804	-2.217347
H	-0.017127	1.088458	-3.27694
H	-0.0032	2.09227	-1.79456
H	1.317203	0.938485	-2.075956
N	-0.276307	-1.299407	-2.074101
O	0.873528	-1.495344	-2.457509
O	-1.190941	-2.109691	-2.134275
N	-0.407146	-1.23176	0.640032
H	-1.324038	-1.151843	1.064105
H	0.280409	-1.452055	1.35144
N	-0.313171	1.266071	0.654225
H	-1.189512	1.205042	1.1598
H	0.441202	1.4547	1.307709
H	2.764299	0.0	0.0
