18

C	-0.565336	-0.002882	-1.42364
C	0.0	0.0	0.0
Br	0.244173	-1.45865	-2.460959
H	1.094838	0.0	0.0
C	-2.072334	-0.117911	-1.511854
H	-2.399765	-1.078687	-1.111775
H	-2.397371	-0.048157	-2.547753
H	-2.504163	0.690487	-0.920064
N	-0.161243	1.281979	-2.150697
O	0.702277	1.984136	-1.643577
O	-0.726057	1.519577	-3.216719
N	-0.359065	-1.190773	0.748507
H	-1.212298	-1.628657	0.430729
H	0.407641	-1.847966	0.665453
N	-0.552799	1.189401	0.673894
H	-0.699006	0.888948	1.631308
H	0.194729	1.880222	0.687151
H	2.881105	0.0	0.0
