18

C	-0.669189	0.000863	-1.368076
C	0.0	0.0	0.0
Br	0.074741	-1.419778	-2.514168
H	1.09512	0.0	0.0
C	-2.17306	-0.148634	-1.315434
H	-2.416113	-1.066013	-0.780016
H	-2.578134	0.70433	-0.766711
H	-2.601514	-0.163202	-2.316507
N	-0.30848	1.301854	-2.075282
O	0.838009	1.705563	-1.952762
O	-1.191225	1.843603	-2.743517
N	-0.45874	-1.184144	0.757393
H	0.167906	-1.203679	1.561018
H	-0.18199	-2.002201	0.218777
N	-0.438727	1.219831	0.665506
H	0.374028	1.628088	1.114062
H	-1.130468	0.984707	1.365243
H	2.870071	0.0	0.0
