14
Coordinates from ORCA-job run
  C   0.77565456932585     -0.21343547719032     -0.09751394125367
  C   -0.63386716987353      0.18216248665310     -0.58270676239262
  Br  1.69039126499700     -0.90097654764792     -1.76748288793270
  H   -0.54250404232249      0.92784277268006     -1.37535041967431
  N   1.39565908241687      0.89866177750492      0.50123111667877
  H   1.49299542484303      1.68412317240020     -0.13109093613027
  H   2.28537162498682      0.67102227281488      0.92553933174627
  C   0.74805239804095     -1.34226889821988      0.82821507938156
  N   0.77383614966096     -2.24574570557247      1.57994347474459
  N   -1.33714006982672      0.88168635821227      0.56675381501933
  O   -1.71030065137335      0.17266455589545      1.49074581245112
  O   -1.42947853303056      2.09884178267383      0.46893220976707
  C   -1.42548911342967     -0.95530675511817     -1.02275402586997
  N   -2.08318093441518     -1.85927179508595     -1.38346186653517
