14
Coordinates from ORCA-job run
  C   0.81419431079684     -0.09716867668019     -0.18486333068486
  C   -0.70001392018587     -0.19141428382315     -0.50530804439964
  Br  1.77462482500899      0.60491891864172     -1.74001188218183
  H   -0.84309475707264     -0.72155815193611     -1.44872276028869
  N   1.02778170727266      0.79344034276906      0.91456490907026
  H   0.49541080980372      0.50740344524240      1.73087173307753
  H   2.01122204600663      0.84757734413423      1.15076065147748
  C   1.30073508817701     -1.47452736760802      0.00609829047679
  N   1.69489315220688     -2.56198054860740      0.22367304848736
  N   -1.28556464002737      1.19417939372817     -0.69086291245558
  O   -1.66484479506355      1.77462809896646      0.31760819944655
  O   -1.31373312091007      1.60430514335104     -1.84451224788300
  C   -1.39415476119153     -0.86086457458595      0.58886484424265
  N   -1.91645594482170     -1.41993908359226      1.48083950161498
