14
Coordinates from ORCA-job run
  C   0.83843935313748     -0.25343009974500     -0.19076748531006
  C   -0.60865142529700      0.15710784921451     -0.60317794346472
  Br  1.65235589438546     -0.90018325892267     -1.87072997180096
  H   -0.54394092828001      0.90068074159874     -1.39987786854964
  N   1.63183258579574      0.79864736099778      0.34284280627848
  H   1.56236526145590      1.65590845447394     -0.19031708812796
  H   1.45713415084506      0.96142885615187      1.32625292312486
  C   0.80636791058107     -1.37020678627679      0.75241313422960
  N   0.80059179269398     -2.25133287754460      1.53072833531230
  N   -1.22187319692992      0.87205756790542      0.57926966222211
  O   -1.66073488519712      0.17553310195365      1.48696757932584
  O   -1.15728189642082      2.09772666736423      0.54743334633488
  C   -1.44220274981752     -0.96777379231273     -0.99240578533521
  N   -2.11440186695230     -1.87516378485835     -1.31663164423951
