14
Coordinates from ORCA-job run
  C   0.79316498900812     -0.22316893500178     -0.03794233887713
  C   -0.70511804118557     -0.20632066225550     -0.41683594028406
  Br  1.75659539065874      0.46884345148530     -1.69312013141888
  H   -0.86793868150187     -0.84968867457417     -1.28289902024647
  N   1.06208759040003      0.46405878428025      1.15006880621910
  H   2.02465305827022      0.38052495734678      1.44792816314021
  H   0.75198648284259      1.42696855419202      1.12784940537807
  C   1.20827373153789     -1.62100235321999      0.07329484088360
  N   1.52391322149819     -2.74848643640552      0.17901779753584
  N   -1.15285548836362      1.17447648378544     -0.85116540302599
  O   -1.75254116167422      1.23817978729174     -1.91429979525382
  O   -0.89450928588762      2.10218958477409     -0.09153179965080
  C   -1.53170168583404     -0.62638225631726      0.71004731927473
  N   -2.21401011976884     -0.98219228538140      1.59758809632559
