14
Coordinates from ORCA-job run
  C   0.71899757966617     -0.21282635760679     -0.05982044921989
  C   -0.71890616306645      0.35833161530834     -0.01615813671748
  Br  0.85581366753217     -1.57649167818025     -1.44308349948119
  H   -0.74733775094700      1.12356126769112      0.76635479241853
  N   1.58122340084175      0.88795534946129     -0.42363593667443
  H   2.49698919203763      0.54674171069120     -0.69257350079960
  H   1.69071776718932      1.51780241412639      0.36631151535190
  C   1.06553401575794     -0.84656554423148      1.21988834522283
  N   1.43443500974650     -1.28272224358177      2.24871569572840
  N   -1.71005226687831     -0.69488963730081      0.43024160823508
  O   -2.30621312983731     -1.31942322591695     -0.43693577671016
  O   -1.79776151054511     -0.83580725441959      1.64628740531470
  C   -1.10909095745555      0.92478142626590     -1.29716636296270
  N   -1.45434885404166      1.40955215769346     -2.30942569970608
