14
Coordinates from ORCA-job run
  C   0.76951842083492     -0.23784057271377     -0.09190375213315
  C   -0.62464600239637      0.19435700180644     -0.59058209001180
  Br  1.67198199784685     -0.97404314635491     -1.74763993305247
  H   -0.50510317636101      0.92652991428714     -1.39199410471908
  N   1.41940089463871      0.86268235172361      0.49622978771584
  H   2.29988547011085      0.61426922115528      0.92829173982783
  H   1.54240303865425      1.63743396929032     -0.14470854241488
  C   0.70122032034420     -1.35323051454773      0.84791137756190
  N   0.68894393253992     -2.24494898229720      1.61382899137230
  N   -1.31282757951336      0.93114681120634      0.54449407786751
  O   -1.71271481572652      0.24750858737191      1.47635394937615
  O   -1.36876395485380      2.14903283551847      0.42806529538767
  C   -1.44765084406024     -0.92511136599770     -1.01875882874043
  N   -2.12264770205839     -1.82778611044822     -1.34958796803741
