14
Coordinates from ORCA-job run
  C   0.67235105144299     -0.34010192157818      0.00924277149554
  C   -0.64907933418234      0.45416598098006     -0.12556911426554
  Br  0.52631414244414     -2.04571480126465     -0.91928856379641
  H   -0.51879230706208      1.40571221734532      0.40004107995761
  N   1.68732499848792      0.44785195360908     -0.65127959321377
  H   2.52416528556157     -0.10453148812077     -0.79952004009542
  H   1.92859657187160      1.25202239815971     -0.07870685065610
  C   0.96246164276925     -0.63027880834889      1.42015790995635
  N   1.29000508266820     -0.81129470061784      2.53583113699024
  N   -1.78009714415188     -0.24219676156739      0.60064315784553
  O   -2.50312131441752     -0.98399794398290     -0.05074274220172
  O   -1.84158205298052     -0.00566995270285      1.80337690259984
  C   -0.99515064907750      0.68587309840777     -1.51868846075180
  N   -1.30339597337383      0.91916072968150     -2.62749759386435
