14
Coordinates from ORCA-job run
  C   0.80857103040000     -0.08513568803630     -0.21388095192753
  C   -0.71198622235580     -0.07714528990632     -0.51779606210853
  Br  1.77003286490641      0.85643751366681     -1.63588472776723
  H   -0.88381520258394     -0.42486832227704     -1.53816665925110
  N   1.06451062498229      0.58763104517442      1.02301391185030
  H   2.05238019317866      0.57049590385944      1.24611902645309
  H   0.53504050414857      0.17418783411402      1.78480194089002
  C   1.25325122448985     -1.48796424205604     -0.28136865745340
  N   1.61236992982295     -2.60871700813590     -0.27105601658713
  N   -1.25626160775513      1.33526912631967     -0.44103531918022
  O   -1.60513403613141      1.73492364969965      0.66185908496714
  O   -1.28555052804819      1.94733347201208     -1.50143682654464
  C   -1.41283156859195     -0.91238238225601      0.45090429855121
  N   -1.94157720646233     -1.61006561217846      1.23492695810806
