14
Coordinates from ORCA-job run
  C   0.85846057541235     -0.19997186901476     -0.14055081966702
  C   -0.68007932567402     -0.18662056438642     -0.44368929204166
  Br  1.73689929069917      0.50186161243265     -1.75770814674983
  H   -0.90803536722628     -0.83866681567893     -1.28890317269723
  N   1.31362861442516      0.51985299459264      0.99737014428524
  H   0.94295791391307      1.46195219042009      1.01331646601814
  H   1.09528417668721      0.03402118513735      1.85960644236998
  C   1.22739636000692     -1.61114035284310     -0.01230156439444
  N   1.47886014186416     -2.75276108614667      0.11229552864136
  N   -1.13477314803423      1.19448250020057     -0.84983116681059
  O   -0.92723767275370      2.09643579516903     -0.04361856372307
  O   -1.66375319705156      1.29441949517604     -1.94815234522678
  C   -1.40274537706438     -0.58842128880813      0.75563917935495
  N   -1.93686298520385     -0.92544379625047      1.74652731064093
