14
Coordinates from ORCA-job run
  C   0.71585312384766     -0.13783600888954      0.17136293998844
  C   -0.72807969274764      0.34885555544961     -0.10360359774793
  Br  0.81672638234419     -2.07249119801599     -0.35526550963653
  H   -0.83209609140980      1.33181672313448      0.36613481027409
  N   1.60046931890221      0.71053048437108     -0.53967466510216
  H   2.56497807256684      0.55695107947242     -0.27230640170151
  H   1.50188158234229      0.60696719936023     -1.54377527398419
  C   1.03930825216387     -0.08383662451801      1.59612271140488
  N   1.38354692124799     -0.00666749788104      2.71741373199119
  N   -1.75533201742372     -0.54106978328791      0.56258062681722
  O   -2.50591160222314     -1.18934999962834     -0.15280509952850
  O   -1.72773837439538     -0.51507238715717      1.78706108077819
  C   -0.97273389083497      0.43809062164768     -1.53516838114121
  N   -1.10087198438039      0.55411183594248     -2.69707697241195
