14
Coordinates from ORCA-job run
  C   0.83734758836630     -0.28515779556156     -0.15235747347497
  C   -0.58203809529714      0.15519441516613     -0.62779250115095
  Br  1.68485298870961     -1.01623837889834     -1.78050550348754
  H   -0.46663862350825      0.86926948685433     -1.44551779095968
  N   1.64578692903880      0.75936344669555      0.37181198722957
  H   1.62108141406821      1.59990237798140     -0.19099623056809
  H   1.44724637293730      0.96061898890215      1.34350056867694
  C   0.73485609655971     -1.36685517306519      0.82594000462772
  N   0.66471454008316     -2.22239774328181      1.62908916156346
  N   -1.21187525902709      0.92678288557376      0.50926756817776
  O   -1.09940030924008      2.14768583492711      0.44495502253312
  O   -1.71261078254892      0.27459981636444      1.41781614577468
  C   -1.43656348927151     -0.95622601681664     -1.01023217790009
  N   -2.12975937087013     -1.84754214484130     -1.33497878104182
