14
Coordinates from ORCA-job run
  C   0.77303334085523     -0.13726350987265     -0.30041496074750
  C   -0.77381885632697     -0.13019192346745     -0.40727933971946
  Br  1.55099691759206      0.56664747941734     -1.95357850212392
  H   -1.07938939608327     -0.61309786810553     -1.33733840488371
  N   1.19304753795409      0.69631130942971      0.78421912504967
  H   2.20111117781282      0.68220494805733      0.88186629101416
  H   0.76095529680054      0.41146088138865      1.65812690253623
  C   1.19254663546958     -1.54723186686091     -0.22117908538715
  N   1.54208601749467     -2.66388718769389     -0.09440252176050
  N   -1.29036598841855      1.29357569798911     -0.46515631226962
  O   -1.48604411682073      1.85536695820185      0.60437055639404
  O   -1.44775365111796      1.75190488476966     -1.58990470930855
  C   -1.35161755225503     -0.80109042095198      0.75170517452952
  N   -1.78378736295646     -1.36470938230123      1.68796578667677
