17

C	-0.205002	-0.059985	-1.50649
C	0.0	0.0	0.0
Br	-2.090186	-0.703558	-2.044788
H	1.106393	0.0	0.0
C	-0.17499	1.286405	-2.099852
N	-0.063836	2.337018	-2.61896
N	0.761549	-0.952951	-2.041938
H	1.658834	-0.782499	-1.546876
H	0.877442	-0.829684	-3.040241
C	-0.458324	-1.25538	0.707
H	-1.54379	-1.252337	0.846501
H	0.036322	-1.312307	1.682008
H	-0.178194	-2.136875	0.129935
N	-0.578263	1.207036	0.577429
H	0.147728	1.918033	0.603378
H	-0.833785	1.016329	1.539459
H	2.807174	0.0	0.0
