17

C	-0.335768	0.137897	-1.493989
C	0.0	0.0	0.0
Br	-0.112733	-1.741923	-2.445119
H	1.095709	0.0	0.0
C	-1.749965	0.391395	-1.758679
N	-2.899161	0.558836	-1.94416
N	0.516312	1.083355	-2.040718
H	1.478759	0.904976	-1.742396
H	0.420735	1.215862	-3.03703
C	-0.555004	-1.216269	0.707716
H	-1.651309	-1.241766	0.672096
H	-0.240206	-1.164009	1.754443
H	-0.166635	-2.142328	0.288915
N	-0.468786	1.248149	0.615715
H	0.344627	1.762602	0.935154
H	-1.050534	1.043751	1.418195
H	2.884167	0.0	0.0
