17

C	-0.204349	-0.067858	-1.506439
C	0.0	0.0	0.0
Br	-2.088017	-0.71603	-2.043365
H	1.106327	0.0	0.0
C	-0.17653	1.275792	-2.104589
N	-0.072527	2.343939	-2.587534
N	0.761937	-0.964336	-2.035063
H	1.662287	-0.789301	-1.545351
H	0.874315	-0.848191	-3.034209
C	-0.458431	-1.2531	0.711348
H	-0.178852	-2.136508	0.137508
H	0.036839	-1.307183	1.686386
H	-1.543807	-1.247909	0.85156
N	-0.584752	1.204876	0.573665
H	-0.8093	1.023664	1.544897
H	0.125752	1.932077	0.567143
H	2.811396	0.0	0.0
