17

C	-0.542271	0.013747	-1.426994
C	0.0	0.0	0.0
Br	0.026052	1.637762	-2.374164
H	1.095654	0.0	0.0
C	-0.001013	-1.10925	-2.216139
N	0.308215	-2.056871	-2.840846
N	-2.0024	0.012581	-1.445021
H	-2.312709	-0.881377	-1.074528
H	-2.322254	0.072845	-2.407038
C	-0.413761	-1.285188	0.717303
H	-0.172588	-2.181337	0.137627
H	-1.481751	-1.298169	0.974656
H	0.162706	-1.338372	1.645071
N	-0.406945	1.208663	0.695232
H	-1.20561	1.046216	1.294817
H	0.381567	1.511449	1.255954
H	2.841405	0.0	0.0
