17

C	-0.582135	-0.000234	-1.413553
C	0.0	0.0	0.0
Br	0.354662	1.490165	-2.480974
H	1.097394	0.0	0.0
C	-0.267958	-1.208615	-2.173396
N	-0.047749	-2.189535	-2.781052
N	-1.980705	0.216745	-1.375212
H	-2.119138	0.993285	-0.732437
H	-2.354254	0.427817	-2.291154
C	-0.466343	-1.228099	0.765815
H	-0.194734	-2.144018	0.237349
H	0.059757	-1.243503	1.727092
H	-1.548275	-1.222189	0.934741
N	-0.483611	1.232916	0.652448
H	0.284345	1.897784	0.598795
H	-0.615456	1.03487	1.637361
H	2.851721	0.0	0.0
