17

C	-0.261433	0.052147	-1.510074
C	0.0	0.0	0.0
Br	-0.04838	-1.862487	-2.314973
H	1.104745	0.0	0.0
C	-1.639418	0.376702	-1.88875
N	-2.746317	0.635913	-2.189431
N	0.672623	0.947475	-2.049349
H	0.671496	0.9808	-3.059148
H	1.607677	0.744554	-1.661486
C	-0.626743	-1.14034	0.762661
H	-0.189021	-2.095557	0.478023
H	-1.710663	-1.170003	0.611911
H	-0.435597	-0.991081	1.830213
N	-0.515119	1.28136	0.528623
H	-0.204135	1.325976	1.495642
H	-0.001029	2.016529	0.048663
H	2.921808	0.0	0.0
