13
Coordinates from ORCA-job run
  C   -0.85337360690642     -0.27473248618059      0.09690703443687
  C   0.56592372537097      0.32985175016102     -0.10253274012581
  Cl  -0.72569000283646     -1.79670483534359      1.02875047719416
  H   0.41982784937999      1.25225283481627     -0.67625121536367
  C   -1.43654666333001     -0.55540603296689     -1.21568769535165
  N   -1.92410890577384     -0.74475502724253     -2.26776955358226
  C   -1.69874657073184      0.66835508216304      0.83087605117209
  N   -2.35081757452178      1.45693764316994      1.40948538308229
  N   1.36228119223597     -0.57833962854420     -0.89018157053809
  H   2.12688356382383     -0.08944450843820     -1.33691269418848
  H   1.73993093523344     -1.32455108595971     -0.31995284313238
  C   1.13053938028432      0.69435559479061      1.21048260733074
  N   1.64489667777180      0.96118069957483      2.23278675906618
