13
Coordinates from ORCA-job run
  C   -0.87073836302669     -0.35298870975491     -0.26186079737506
  C   0.65543452354415     -0.03972462633815     -0.36854812984564
  Cl  -1.17219090733417     -1.97435435106747     -0.93835439068492
  H   0.91891746519106     -0.18986072866516     -1.42012584108613
  C   -1.64202469006678      0.62939918307015     -1.02482938303967
  N   -2.23307130549920      1.42332014184418     -1.65900970661277
  C   -1.26128731093081     -0.32980008652280      1.14853505305812
  N   -1.51560238069062     -0.30083180761283      2.29568560158696
  N   1.39397366352631     -0.97240288611790      0.44541865227069
  H   1.43516872325024     -0.66956023009196      1.41110775242450
  H   2.33606439666641     -1.08966010583952      0.09808802996795
  C   0.87008752176536      1.37862287226495     -0.02486978248845
  N   1.08626866360474      2.48784133483142      0.29876294182443
