13
Coordinates from ORCA-job run
  C   -0.89513502508120      0.12378082486549     -0.20902818552078
  C   0.64959813971568      0.41491759588690     -0.32973409697745
  Cl  -1.82232822773025      1.55727138552788     -0.72496726455661
  H   0.81124952446924      0.71086160779703     -1.37238287463155
  C   -1.21758212244735     -0.21747523358313      1.17532461604139
  N   -1.41910469196286     -0.50379090111277      2.29767258395915
  C   -1.20395342392738     -1.00326787696754     -1.08938754521046
  N   -1.37716659101467     -1.91294518555233     -1.81341656791323
  N   1.49752988388493     -0.69751186338688     -0.01499264949226
  H   1.37225366401504     -1.47209476082905     -0.65322507903128
  H   1.40521972994661     -1.00255732495825      0.94551700846264
  C   0.97155926031246      1.55513272760522      0.53597610692631
  N   1.22885987981975      2.44867900470744      1.25264394794412
