13
Coordinates from ORCA-job run
  C   -0.76743883218864     -0.34730824701464      0.08854112852009
  C   0.59149356381129      0.45598736142072      0.00422586127703
  Cl  -0.47079793977570     -1.94453236648103      0.83024616279995
  H   0.32455478135146      1.43073622881690     -0.42215426143433
  C   -1.25398458244278     -0.53252052464899     -1.27818582261553
  N   -1.57351670461223     -0.64460349172938     -2.40388784302032
  C   -1.74237507575514      0.39413080264038      0.88424320007851
  N   -2.49698104767953      1.03510967807588      1.51857644761481
  N   1.61517358918014     -0.13326347500069     -0.80501864099418
  H   1.34954804186847     -0.17310796487972     -1.78064027685061
  H   1.88292127295941     -1.05127996654978     -0.47481662613445
  C   1.07571443640239      0.67444549443905      1.37223380132252
  N   1.46568849688084      0.83620647091129      2.46763686943650
