15

C	-0.338793	-0.00608	-1.471718
C	0.0	0.0	0.0
Cl	-0.043586	1.609793	-2.228794
H	1.089174	0.0	0.0
H	-0.347095	-0.929329	0.448653
N	0.418717	-1.045496	-2.05621
H	1.392579	-0.96742	-1.758849
H	0.357656	-1.004626	-3.065628
N	-1.801733	-0.356738	-1.76181
O	-2.502664	-0.69256	-0.813162
O	-2.136951	-0.358727	-2.942024
N	-0.570774	1.093209	0.816938
O	-1.478897	1.779766	0.350714
O	-0.119614	1.192064	1.95354
Cl	3.275665	0.0	0.0
