15

C	-0.611723	-0.027717	-1.391097
C	0.0	0.0	0.0
Cl	0.291832	-1.0528	-2.519197
H	1.085217	0.0	0.0
H	-0.376258	0.86686	0.54131
N	-1.967242	-0.422949	-1.370734
H	-2.394474	-0.279804	-2.275958
H	-2.479908	0.059329	-0.642262
N	-0.46653	1.410733	-1.988771
O	-1.199164	1.656917	-2.943424
O	0.337163	2.178969	-1.48006
N	-0.499223	-1.188991	0.738457
O	-1.405363	-0.992654	1.55626
O	-0.005881	-2.279432	0.477035
Cl	3.306016	0.0	0.0
