15

C	-0.363051	0.067741	-1.479052
C	0.0	0.0	0.0
Cl	-2.112982	0.370134	-1.706093
H	1.091975	0.0	0.0
H	-0.427527	-0.86091	0.503306
N	0.382642	0.96142	-2.288212
H	1.370385	0.736767	-2.16073
H	0.234914	1.8888	-1.906037
N	-0.108283	-1.3693	-2.001084
O	0.71328	-1.507059	-2.895383
O	-0.741823	-2.264263	-1.452564
N	-0.447294	1.19955	0.742441
O	-0.877209	1.019412	1.879216
O	-0.335391	2.301502	0.205724
Cl	3.236865	0.0	0.0
