11
Coordinates from ORCA-job run
  C   -0.02226197085384      0.22554323812855      0.52110557323422
  C   1.26389821066365     -0.25054495910132     -0.12582304477771
  Cl  0.06657249871104      2.00636278900397      0.76980175400459
  H   2.13087778457373      0.00580232880990      0.48442028138612
  H   -0.11580926559362     -0.19619424654986      1.52395074558972
  H   1.23424452572680     -1.33702380906140     -0.24824776404545
  H   1.38793570489340      0.20747538414310     -1.10933013421607
  C   -1.25600802513216     -0.10081127689192     -0.29789204498145
  H   -1.33834290827468     -1.18416490836442     -0.42386240383167
  H   -2.16133212760498      0.26089320364089      0.19131203594959
  H   -1.19077442710934      0.36066225624253     -1.28543499831191
