14

C	0.0	0.0	0.0
C	-0.508046	-0.046554	-1.418309
Cl	1.767405	0.0	0.0
H	-1.582437	-0.256894	-1.296831
H	-0.383651	0.838206	0.573942
H	-5.3e-05	-0.856908	-1.946687
N	-0.387991	-1.230225	0.786573
O	-0.471553	-2.288893	0.174064
O	-0.470924	-1.09553	2.002865
C	-0.323547	1.296947	-2.109391
H	0.710379	1.653684	-2.079118
H	-0.621363	1.225351	-3.158915
H	-0.970337	2.037851	-1.631665
H	-2.961539	0.0	0.0
