14

C	0.0	0.0	0.0
C	-0.461586	0.241877	-1.429817
Cl	1.758935	0.0	0.0
H	-1.544584	0.38495	-1.367637
H	-0.34829	0.819843	0.647052
H	-0.009705	1.185666	-1.758168
N	-0.616736	-1.192108	0.601311
O	-1.775785	-1.419811	0.041164
O	-0.38461	-1.354734	1.826168
C	-0.122823	-0.877634	-2.405411
H	-0.494342	-0.627265	-3.404485
H	0.95403	-1.04697	-2.4813
H	-0.606818	-1.796306	-2.078573
H	-2.838443	0.0	0.0
