14

C	0.0	0.0	0.0
C	-0.556523	-0.080321	-1.392908
Cl	1.767418	0.0	0.0
H	-0.079122	-0.907882	-1.922407
H	-0.372546	0.853741	0.559778
H	-1.629814	-0.28104	-1.215772
N	-0.383209	-1.205002	0.830985
O	-0.497171	-2.277962	0.250655
O	-0.449965	-1.033152	2.043019
C	-0.411612	1.248415	-2.121949
H	0.604631	1.650816	-2.08752
H	-1.098488	1.971801	-1.675628
H	-0.690299	1.134631	-3.172609
H	-3.041129	0.0	0.0
