14

C	0.0	0.0	0.0
C	-0.575933	0.064804	-1.396954
Cl	1.75882	0.0	0.0
H	-0.308922	1.033676	-1.831726
H	-0.288614	0.895084	0.544802
H	-1.674929	0.089668	-1.213427
N	-0.663743	-1.086639	0.745696
O	-1.775661	-0.622463	1.249232
O	-0.494587	-2.265986	0.336304
C	-0.220353	-1.07605	-2.336458
H	-0.650653	-0.883853	-3.324202
H	0.858882	-1.193627	-2.451159
H	-0.622585	-2.007238	-1.945257
H	-2.944054	0.0	0.0
