13

C	0.0	0.0	0.0
C	-0.204129	0.001545	-1.56245
Br	1.956015	0.0	0.0
H	0.338385	-0.877948	-1.924133
H	-0.289656	-0.936459	0.465543
H	0.372936	0.864785	-1.914752
C	-0.664076	1.116933	0.661017
N	-0.70731	2.161252	1.232504
C	-1.55815	0.044077	-2.264483
H	-2.171736	-0.823213	-2.029701
H	-2.132035	0.927147	-1.993062
H	-1.358305	0.066684	-3.350104
H	-2.082747	0.0	0.0
