13

C	0.0	0.0	0.0
C	-0.414606	0.09759	-1.47641
Br	1.958345	0.0	0.0
H	-1.473296	0.364789	-1.4385
H	-0.354202	-0.921412	0.456025
H	0.171611	0.89125	-1.953447
C	-0.434544	1.141098	0.80845
N	-0.530322	2.077594	1.51673
C	-0.258342	-1.231549	-2.198425
H	-0.481267	-1.117222	-3.264598
H	0.749036	-1.646923	-2.107779
H	-0.975565	-1.942804	-1.779093
H	-2.666868	0.0	0.0
