13

C	0.0	0.0	0.0
C	-0.20596	0.005616	-1.561094
Br	1.956169	0.0	0.0
H	0.367537	-0.852711	-1.925612
H	-0.291345	-0.939004	0.458869
H	0.338882	0.890198	-1.911466
C	-0.641058	1.11467	0.681005
N	-0.660209	2.145394	1.275487
C	-1.562699	-0.010146	-2.26175
H	-2.168685	0.857223	-2.009882
H	-2.144035	-0.893356	-2.004614
H	-1.3633	-0.007042	-3.349244
H	-2.090038	0.0	0.0
