18

C	-0.435378	0.008865	-1.472737
C	0.0	0.0	0.0
F	-1.83721	-0.070873	-1.523339
H	1.09204	0.0	0.0
C	-0.016367	1.283664	-2.17383
H	-0.562251	2.140238	-1.778269
H	1.053272	1.450132	-2.035028
H	-0.243732	1.188871	-3.238316
C	0.136874	-1.223258	-2.144889
H	-0.154602	-1.224194	-3.198067
H	1.226215	-1.212868	-2.060562
H	-0.249847	-2.130248	-1.676554
C	-0.515971	-1.169818	0.698643
N	-0.892991	-2.141895	1.238605
N	-0.490743	1.234499	0.696259
O	-1.559989	1.168738	1.30426
O	0.19672	2.243915	0.570976
Cl	3.234627	0.0	0.0
