18

C	-0.504177	-0.067033	-1.458768
C	0.0	0.0	0.0
F	0.018415	1.035191	-2.129442
H	1.090315	0.0	0.0
C	0.075182	-1.308467	-2.1081
H	-0.356887	-2.21618	-1.683268
H	1.157566	-1.317917	-1.962387
H	-0.147208	-1.277598	-3.178104
C	-2.013205	0.029901	-1.560416
H	-2.305068	-0.030344	-2.61164
H	-2.364143	0.983128	-1.161449
H	-2.496625	-0.778852	-1.010576
C	-0.491453	-1.150733	0.746227
N	-0.888337	-2.114155	1.289054
N	-0.49004	1.259292	0.651094
O	-1.4501	1.177334	1.422592
O	0.074988	2.296042	0.325284
Cl	3.230312	0.0	0.0
