18

C	-0.460927	0.027631	-1.478328
C	0.0	0.0	0.0
F	-0.033348	-1.205078	-1.984682
H	1.091473	0.0	0.0
C	-1.966866	0.060423	-1.637345
H	-2.419031	-0.788598	-1.121164
H	-2.210021	-0.007828	-2.70047
H	-2.393479	0.981108	-1.236765
C	0.265084	1.110344	-2.246668
H	1.333901	1.055141	-2.031923
H	-0.09911	2.101896	-1.976007
H	0.09293	0.947954	-3.313761
C	-0.527811	-1.16724	0.692136
N	-0.941677	-2.123893	1.232682
N	-0.478838	1.242652	0.687866
O	-1.538489	1.186126	1.316918
O	0.202957	2.252639	0.536558
Cl	3.251233	0.0	0.0
