18

C	-0.485466	-0.018294	-1.468072
C	0.0	0.0	0.0
F	-0.093621	1.199645	-2.02556
H	1.09221	0.0	0.0
C	0.256414	-1.120715	-2.197612
H	-0.04255	-2.10464	-1.828507
H	1.33099	-0.993753	-2.046786
H	0.023467	-1.057718	-3.263675
C	-1.992789	-0.099459	-1.60894
H	-2.380601	-1.017439	-1.163496
H	-2.47187	0.752093	-1.123008
H	-2.246724	-0.084227	-2.671657
C	-0.490225	-1.176696	0.704115
N	-0.866359	-2.161246	1.222667
N	-0.508032	1.234397	0.682736
O	-1.600246	1.160478	1.252789
O	0.175943	2.243695	0.580628
Cl	3.25482	0.0	0.0
