18

C	-0.426177	0.017642	-1.475438
C	0.0	0.0	0.0
F	-1.828904	-0.047379	-1.534397
H	1.092003	0.0	0.0
C	0.012008	1.287699	-2.173498
H	1.082535	1.441935	-2.025776
H	-0.20706	1.193882	-3.239923
H	-0.526658	2.150975	-1.783116
C	0.138852	-1.219239	-2.145352
H	-0.265622	-2.123419	-1.686748
H	-0.136662	-1.211824	-3.202719
H	1.227108	-1.222604	-2.045991
C	-0.515482	-1.177093	0.687441
N	-0.891666	-2.154504	1.218309
N	-0.492439	1.227668	0.706549
O	-1.539765	1.145419	1.348491
O	0.173875	2.247865	0.559387
Cl	3.227431	0.0	0.0
