15
Coordinates from ORCA-job run
  C   -0.66596022724316      0.16068031389678     -0.23814204499295
  C   0.85945485706403      0.07851831111372      0.00918393165693
  Cl  -1.07995437426934     -0.92360506754298     -1.60963328694063
  H   1.06399166329213      0.75912555684285      0.84410938206523
  C   -1.01022562185663      1.53041431259823     -0.61924708363654
  N   -1.28172165629409      2.64566962425899     -0.87152242799740
  C   -1.45077011037386     -0.26616309908566      0.99460844273744
  H   -1.21727250866721      0.40483079479753      1.82560815443147
  H   -1.16962086563838     -1.28216709611608      1.26430349524933
  H   -2.52039766629918     -0.21534981867647      0.78969438216150
  C   1.60202719945324      0.57938675387046     -1.16413602233618
  N   2.24446601295200      0.92483023073192     -2.08530787839942
  N   1.23104622135909     -1.26077207352308      0.42240235217391
  H   1.23228713128055     -1.88330114492946     -0.37724725487336
  H   2.16464994524081     -1.25309759823675      0.81432585870066
