15
Coordinates from ORCA-job run
  C   -0.67998100188136      0.16317239814632     -0.19276151372035
  C   0.85837692555988      0.06950021251776     -0.05418734585550
  Cl  -1.20194911818027     -0.94369638656726     -1.50815817260091
  H   1.12918659771222      0.76426955593490      0.74964323260261
  C   -1.03786219738086      1.52875365313184     -0.57639949254003
  N   -1.31779604504789      2.64137522532341     -0.83105978191076
  C   -1.37772208604270     -0.23030521025443      1.10198617588685
  H   -1.08702077808056     -1.24353586620684      1.37194883984854
  H   -2.45880688330278     -0.17234741417419      0.97321860289589
  H   -1.07887290505702      0.45533413464386      1.89939632583320
  C   1.51936115427858      0.53891926449263     -1.28781681691650
  N   2.09780667335079      0.85966511821719     -2.25897276794849
  N   1.24641400723347     -1.26526698527837      0.35894856621939
  H   1.18193994698527     -1.90382932432337     -0.42538425836868
  H   2.20692570985324     -1.26000837560344      0.67959840657472
