15
Coordinates from ORCA-job run
  C   -0.73344816448431      0.25584981994412     -0.34829329558831
  C   0.80213375284060      0.17438947041535     -0.53989414740449
  Cl  -1.50607541914759     -0.12926312307468     -1.92093136737153
  H   1.06304917246599      0.88279820952217     -1.33197634629044
  C   -1.06983766037921      1.63655335486794     -0.00096960971818
  N   -1.35814511765650      2.74020594294658      0.27929649127783
  C   -1.23807996384998     -0.70714399381777      0.71564406721035
  H   -0.79076385391610     -0.45331870945333      1.67877276803816
  H   -0.98245533507461     -1.73228174725582      0.44062323792760
  H   -2.32183036221223     -0.62747492796070      0.80423624806985
  C   1.18232198831906     -1.17593862841031     -0.99163478657228
  N   1.52708239587078     -2.26360840843750     -1.27153174712131
  N   1.45523855034907      0.57629566985714      0.69322615982212
  H   2.33285138699392      1.04098699442857      0.50296773607226
  H   1.63795862988110     -0.21904992357177      1.29146459164837
