15
Coordinates from ORCA-job run
  C   -0.63839307378242      0.33980829773760     -0.09308919950840
  C   0.79667206670161     -0.13332564618189     -0.42025798559615
  Cl  -1.17239399114559      1.36190960797006     -1.47636121067055
  H   0.71836025171419     -0.70429192469276     -1.35946725301846
  C   -0.62971821329763      1.16581624055702      1.11298871038926
  N   -0.67230606808910      1.78070958973357      2.11301165367897
  C   -1.60991101596393     -0.82409038885212      0.05087713438761
  H   -1.58839469726085     -1.43738680012412     -0.85243555938134
  H   -1.33586804532745     -1.43529288680433      0.91315795244715
  H   -2.62225054695674     -0.44564590835281      0.19391152848068
  C   1.23989890839470     -1.06148178931450      0.62640072617357
  N   1.59964819703397     -1.81765095830218      1.44935739921459
  N   1.70461998270570      0.99879091096550     -0.47194456550243
  H   2.66660405268086      0.68404663276926     -0.46658322481582
  H   1.54343219259267      1.53008502289171     -1.31856610627868
