14
Coordinates from ORCA-job run
  C   -0.70306758070681      0.01221053956885      0.38246298483895
  C   0.48469545945595     -0.63791427893469     -0.32371768404285
  Br  -0.43512644685270     -0.03043000912685      2.33200241456244
  H   0.22338922611225     -0.67521054991685     -1.38965564618422
  H   0.52872244928107     -1.66900115894694      0.03625650284553
  C   -0.80452554985498      1.43564580933104      0.01796666852195
  N   -0.91972540387543      2.54875093943226     -0.34423660519630
  N   -1.90268096303286     -0.74452842094287      0.10830888787723
  H   -2.70712936027652     -0.31642390742500      0.55304724147669
  H   -2.06144036569253     -0.76599353837697     -0.89438068994900
  C   1.81626144884094      0.07812961982033     -0.14836008876754
  H   1.77025922251981      1.10405392892658     -0.52018667642851
  H   2.59316628928038     -0.44639719382958     -0.70832172363931
  H   2.11620157480144      0.10410822042069      0.89981441408494
