14
Coordinates from ORCA-job run
  C   -0.76531932123997      0.13956869199235      0.35541373890763
  C   0.42170835924685     -0.60352741422063     -0.27159538182010
  Br  -0.54464778780460      0.13346535414017      2.31912132942000
  H   0.40125920288843     -1.62512001414583      0.12301951025043
  H   0.19635227688796     -0.66577779583907     -1.34406889785419
  C   -0.76707825686760      1.54088034661584     -0.07486030564877
  N   -0.74066900939514      2.64121561276438     -0.48611840414950
  N   -2.06670311326571     -0.42591935075670      0.08129475306611
  H   -2.28384154302041     -0.32002375031443     -0.90463893727949
  H   -2.06570659048779     -1.41246549741566      0.31651698191134
  C   1.78993866891032      0.03166129141321     -0.06361597291928
  H   1.81529064812913      1.05157956463472     -0.45324078556637
  H   2.05720842102381      0.05932828258096      0.99292712404900
  H   2.55120804499473     -0.54686532144932     -0.59115475236681
