13

C	-0.13241	0.1076	0.005672
C	-0.650953	0.237101	-1.425944
Cl	1.636382	-0.247025	0.010154
H	-1.734556	0.346519	-1.309199
H	-0.658167	-0.719779	0.486794
C	-0.360353	1.340189	0.751706
N	-0.504695	2.322863	1.37724
C	-0.412899	-1.01606	-2.168255
N	-0.162803	-1.933609	-2.85802
N	-0.079095	1.402815	-2.083409
H	-0.593879	1.592658	-2.933893
H	0.884785	1.218297	-2.336137
Cl	-3.117939	-1.044944	0.240723
