12

C	-0.350503	-0.00975	-1.491009
C	0.0	0.0	0.0
Cl	0.323398	-1.511624	-2.214611
H	1.093172	0.0	0.0
H	-0.375254	-0.920907	0.453887
C	-1.795304	-0.016129	-1.754556
N	-2.958149	-0.026477	-1.926868
C	0.247605	1.142395	-2.17635
N	0.685291	2.059827	-2.765111
C	-0.564847	1.161071	0.653087
N	-1.008746	2.107887	1.192032
F	2.492174	0.0	0.0
