12

C	-0.264398	-0.011662	-1.492172
C	0.0	0.0	0.0
Cl	-2.038274	0.111157	-1.928518
H	1.094404	0.0	0.0
H	-0.355549	0.941628	0.425098
C	0.398996	1.139681	-2.115555
N	0.901181	2.056441	-2.650844
C	0.236291	-1.245324	-2.107206
N	0.608194	-2.232534	-2.623537
C	-0.589079	-1.133221	0.672062
N	-1.052334	-2.052463	1.240792
F	2.47488	0.0	0.0
