12

C	-0.346911	0.012236	-1.490335
C	0.0	0.0	0.0
Cl	0.284966	-1.474212	-2.277567
H	1.093104	0.0	0.0
H	-0.33836	0.945355	0.438096
C	-1.790508	0.069573	-1.757223
N	-2.951089	0.137433	-1.931613
C	0.28545	1.176107	-2.124504
N	0.758274	2.100241	-2.674432
C	-0.610052	-1.116212	0.685812
N	-1.087421	-2.021519	1.265309
F	2.490158	0.0	0.0
