12

C	-0.352783	0.001771	-1.490476
C	0.0	0.0	0.0
Cl	0.321225	-1.493191	-2.227405
H	1.09319	0.0	0.0
H	-0.375847	-0.92377	0.44738
C	-1.798717	-0.00509	-1.750358
N	-2.962295	-0.025241	-1.917841
C	0.242459	1.159909	-2.167836
N	0.681416	2.080012	-2.751353
C	-0.56364	1.156476	0.662813
N	-1.005494	2.099602	1.209743
F	2.492683	0.0	0.0
