12

C	-0.351926	-0.000979	-1.49063
C	0.0	0.0	0.0
Cl	0.321496	-1.498151	-2.223936
H	1.093261	0.0	0.0
H	-0.37634	-0.922759	0.448974
C	-1.797553	-0.007407	-1.751105
N	-2.960965	-0.027279	-1.918482
C	0.244709	1.155324	-2.16985
N	0.684434	2.073948	-2.755175
C	-0.563598	1.158077	0.660188
N	-1.005865	2.102402	1.204855
F	2.492723	0.0	0.0
