12

C	-0.265725	-0.005146	-1.491981
C	0.0	0.0	0.0
Cl	-2.039105	0.123383	-1.926235
H	1.094506	0.0	0.0
H	-0.354642	0.940227	0.428864
C	0.399954	1.146924	-2.111408
N	0.903344	2.066546	-2.640675
C	0.231221	-1.237899	-2.111531
N	0.599122	-2.225339	-2.630205
C	-0.589894	-1.135215	0.667683
N	-1.054489	-2.056365	1.232228
F	2.474485	0.0	0.0
