16
Coordinates from ORCA-job run
  C   -0.31551128083847     -0.06458614227905     -0.49272088904949
  C   1.18203430455496      0.04553275333872     -0.09159629700037
  Cl  -0.32031957499106     -0.77812850377243     -2.14208289486280
  H   1.69321332169847      0.63675616809959     -0.86114608102521
  C   -0.93521327442608      1.32163328940874     -0.56758989510950
  H   -0.37002113900808      1.96950270304977     -1.24140259916905
  H   -1.95615881018013      1.24502553702159     -0.94478047693093
  H   -0.96530483824674      1.77876846975182      0.42453000021786
  C   -1.07693522568742     -0.98528601976567      0.44368006533530
  H   -2.11645393235848     -1.05874471416011      0.11981634677806
  H   -0.64762989756955     -1.98836444153406      0.44982276216256
  H   -1.05779751346661     -0.58286672541735      1.46060349896627
  C   1.83292550479987     -1.26662851234371     -0.01747467477393
  N   2.34452306915711     -2.32125456369040      0.04824990979831
  C   1.31788078849909      0.73906866399049      1.19436337718523
  N   1.39176849806311      1.30857203830205      2.21872784747771
