16
Coordinates from ORCA-job run
  C   -0.35080866823910     -0.23682991527156     -0.40896754232930
  C   1.06244229155648     -0.49590206745171      0.18431771043237
  Cl  -0.38324511795602     -1.11500695850708     -1.97642796378100
  H   1.20420486686779     -1.58137832349402      0.25308623487808
  C   -0.58384371584833      1.24068738904513     -0.66771587879894
  H   0.15744620625216      1.64445864886776     -1.35913261283986
  H   -0.53462285365633      1.79690751648125      0.27275343574422
  H   -1.57383187388283      1.38455801593835     -1.10364907957511
  C   -1.41207389579880     -0.83682783872594      0.49938878197072
  H   -2.39194570670920     -0.73980091175445      0.02938053060052
  H   -1.43336658764013     -0.31189895190921      1.45760920376864
  H   -1.22285808303754     -1.89766513392894      0.67839620184270
  C   1.16107063287424      0.07373321429963      1.53299904878300
  N   1.19663891089958      0.53242130006187      2.61340797848639
  C   2.12737312103687      0.05012219070993     -0.66346641491269
  N   2.97642047328116      0.49542182563898     -1.34097963426975
