16
Coordinates from ORCA-job run
  C   -0.31272802964591     -0.06321906891499     -0.49535777367893
  C   1.18227866902641      0.03587504441592     -0.08258325551291
  Cl  -0.31021135500743     -0.77988704850343     -2.14333038153457
  H   1.70364492748111      0.62278348566603     -0.84861889175804
  C   -0.92016098760186      1.32808150628515     -0.57754372594274
  H   -1.93824976119075      1.25990667110572     -0.96409400491576
  H   -0.34319552031912      1.97038751298849     -1.24678229147654
  H   -0.95531717270560      1.78654204894058      0.41382802819147
  C   -1.08893830965002     -0.97590930501534      0.43669665647544
  H   -1.07510656399514     -0.57142467189087      1.45286620737816
  H   -0.66733975435243     -1.98217214736385      0.44844843552834
  H   -2.12628633298458     -1.04209328495705      0.10451815078549
  C   1.82473255967575     -1.27998334121726     -0.00214944924244
  N   2.33463691923035     -2.33511575411216      0.06943256817601
  C   1.31266996895225      0.72935756080456      1.20391090501486
  N   1.38057074308695      1.29687079176849      2.22975882251212
