16
Coordinates from ORCA-job run
  C   -0.30814679799059      0.00378259405552     -0.50176963727946
  C   1.18380949331187      0.00850220266826     -0.06654492789615
  Cl  -0.30554185044024     -0.51960790275358     -2.22105005613389
  H   1.73205247933519      0.66278624333543     -0.75534943463916
  C   -0.87316942936820      1.41335301750288     -0.42996206586112
  H   -1.88803105143340      1.42074883515047     -0.83068685727000
  H   -0.26945091136857      2.10945263184935     -1.01670241458116
  H   -0.90698314511593      1.75701698369741      0.60688031506582
  C   -1.12302307625676     -0.98499622450057      0.31219872452317
  H   -1.11122228024291     -0.69921267726809      1.36801887910364
  H   -0.73106474376341     -1.99851849102026      0.21342804681767
  H   -2.15730126257676     -0.98132463453970     -0.03601910235735
  C   1.78433736152734     -1.32779196015652     -0.13288209829051
  N   2.25774477107726     -2.40119429923997     -0.17912534896318
  C   1.31980503117267      0.54599194495950      1.29191383559642
  N   1.39518541213243      0.99201173625988      2.37565214216526
