16
Coordinates from ORCA-job run
  C   -0.33185836676793     -0.14328603852822     -0.30712981377906
  C   1.00875674022435     -0.01213722920683      0.46378836252212
  Cl  -0.12353900493753     -1.41982318703598     -1.54858098098926
  H   0.86564638492888      0.77259758082958      1.21966428092838
  C   -0.65643254308525      1.16756428720143     -1.00555160934468
  H   0.11991776035951      1.44116126313665     -1.72142464515811
  H   -1.60019153066398      1.07074056205334     -1.54438463196941
  H   -0.75978213392960      1.96935425042544     -0.26773220716302
  C   -1.43705690342542     -0.56698833296694      0.64709757762538
  H   -1.56183033707721      0.18472804208820      1.43283340861995
  H   -1.21773383040352     -1.53077885535628      1.10876723034718
  H   -2.37769010138177     -0.65498409982823      0.10118480078367
  C   2.10895839146760      0.41091504180323     -0.40809697324538
  N   2.97693059715603      0.78216116459566     -1.10594730748943
  C   1.36274226232040     -1.24642158416537      1.17155658986963
  N   1.62216261521546     -2.22680286504568      1.76295591844205
