11
Coordinates from ORCA-job run
  C   0.55634699625290     -0.07730298609444      0.88695905499610
  C   -0.49014162718274      0.21652021911211      0.08030971776761
  H   0.37704074424995     -0.11913011314922      1.95957918841225
  N   1.87599648478967     -0.21572530481512      0.40814844467487
  H   2.03070429964715     -1.06240192218146     -0.12519719396732
  H   2.53991757331490     -0.17681604605091      1.16870928032696
  C   -0.32207446498332      0.27173487199103     -1.34767505960416
  N   -0.31059195311000      0.28740975642544     -2.52624425323284
  N   -1.80373337702984      0.50714807934560      0.49807179043152
  H   -2.49943545614815      0.01697309790788     -0.04559551028011
  H   -1.95502921980053      0.35259034750908      1.47993454047513
