11
Coordinates from ORCA-job run
  C   0.97531553615147     -0.16389681921206      0.10424524432968
  C   -0.32976919813584      0.02917797904956     -0.21450265165490
  H   1.70531058785387     -0.35834349527633     -0.67614263946881
  N   1.45543404537305     -0.04152183875968      1.37823825039857
  H   0.72839568074203     -0.05544572007819      2.08018714878457
  H   2.28579628447445     -0.56390776112224      1.60029648165409
  C   -0.75846104509936     -0.01641473976777     -1.57570033521859
  N   -1.14823397174895     -0.07660864012651     -2.68565318057014
  N   -1.26054505787784      0.29211114328655      0.84567639830814
  H   -2.07764112600264     -0.29978512994350      0.75788870397179
  H   -1.57460173573022      1.25563502195016      0.82046657946559
