11
Coordinates from ORCA-job run
  C   0.89717541002988     -0.09310123853627      0.09899735437833
  C   -0.39211185895919      0.03206631815937     -0.30303293134732
  H   1.67115707220178     -0.28531221868097     -0.63682993952006
  N   1.32493257336614      0.14287462861449      1.39992509017003
  H   0.66144191307537     -0.14003461543878      2.10733369063467
  H   2.24669756406588     -0.21116200717512      1.59779850435948
  C   -0.72052727825749     -0.23375118594449     -1.66945113903656
  N   -1.00249550996836     -0.48970863240261     -2.78290966817632
  N   -1.44577835806684      0.49023001277076      0.52165841965942
  H   -2.12303598450324     -0.21486439629653      0.77589884501062
  H   -1.11745554298392      1.00276333493014      1.32661177386771
