11
Coordinates from ORCA-job run
  C   0.55891127071534      0.16714659425428      0.85341065249256
  C   -0.51872680957380      0.13807946672573      0.02932409984329
  H   0.46801289300823      0.65544420743771      1.82191875292219
  N   1.84379489870880     -0.23944237544574      0.52423882821399
  H   1.90343524306596     -0.81250206566262     -0.30656866870687
  H   2.36423345038276     -0.63002322819120      1.29410915777579
  C   -0.40162247658968     -0.54698624620376     -1.22093979586931
  N   -0.26305603948219     -1.15954375374218     -2.21717550345293
  N   -1.73914209608312      0.82779100856512      0.25217797728550
  H   -1.68983739412614      1.40410533874579      1.08144766144693
  H   -2.52600294002613      0.19493105351687      0.32405683804885
