11
Coordinates from ORCA-job run
  C   0.48556457564705     -0.18491816534223      0.89866240274568
  C   -0.52884240042155      0.15262569375701      0.06228592235566
  H   0.30280889333511     -0.19429495608415      1.97079950309570
  N   1.74978014761970     -0.60775371798071      0.51988635526671
  H   2.48774593278950     -0.33264602669336      1.14827675088827
  H   1.98461220273705     -0.42813296923133     -0.44655007812282
  C   -0.27254178492850      0.15027056029690     -1.34418341221195
  N   -0.00085817034241      0.10673495198994     -2.48919132973961
  N   -1.81077920111391      0.61477650488222      0.46565360370112
  H   -2.54624919662267     -0.02113829208252      0.18253379179063
  H   -1.85124099869938      0.74447641648822      1.46782649023061
