11
Coordinates from ORCA-job run
  C   0.85145764569078     -0.51435461689753      0.30591884801890
  C   -0.39849487747534     -0.18152928070933     -0.10430101556821
  H   1.33848740476545     -1.40095099233985     -0.08967962479194
  N   1.52312372640320      0.17309945125562      1.27821049711717
  H   2.52791312491495      0.13684991766680      1.24434742966190
  H   1.12498206830469      1.08237433866519      1.46892451658193
  C   -1.09307027358067     -0.99118819609935     -1.05330111365840
  N   -1.70235508809436     -1.61880025110925     -1.84233181801641
  N   -1.00931749889237      0.99453308913935      0.44687388504899
  H   -1.76923302154005      0.74700073018296      1.07100159601369
  H   -1.39349321049626      1.57396581024540     -0.28966320040763
