11
Coordinates from ORCA-job run
  C   0.88254632400204     -0.46187748275943      0.15770845285118
  C   -0.39655866571743     -0.11573949636190     -0.13604613048779
  H   1.38990554638102     -1.22512473089875     -0.42514189173372
  N   1.62072562621883      0.16862680140879      1.11966523426958
  H   1.06040549344009      0.72253333438810      1.75257065520815
  H   2.36337490195907     -0.36177460349053      1.54219436500004
  C   -1.08912120139243     -0.74141999427432     -1.21646524868459
  N   -1.70556849877645     -1.23717978259504     -2.08934626346343
  N   -1.02806084965846      0.90253707053666      0.65374836427157
  H   -1.15204139230325      1.75257405365431      0.11552106090863
  H   -1.94360728415303      0.59784483039210      0.96159140186038
