11
Coordinates from ORCA-job run
  C   0.90914512028195     -0.39812834301124      0.11726088997780
  C   -0.35171533794625     -0.00581152676000     -0.19644110517616
  H   1.53461459707226     -0.87677268717413     -0.63063212959680
  N   1.42622766434266     -0.29916828257569      1.37851516958237
  H   2.42655549655769     -0.22808928505222      1.45441342800351
  H   0.89535199712056      0.31532323598950      1.98009554593749
  C   -0.87560784315094     -0.22275867306794     -1.50674986910876
  N   -1.34719545148620     -0.36923462894805     -2.57629181424034
  N   -1.14847845261945      0.61577984826442      0.82265419439035
  H   -1.89807366202207      0.00105264377136      1.11925802164737
  H   -1.57082412815023      1.46780769856399      0.47391766858316
