11
Coordinates from ORCA-job run
  C   0.51486244505477     -0.06477253957308      0.90773323795411
  C   -0.53108335977500      0.13628203497842      0.06687477150456
  H   0.32918532752369     -0.10328422001817      1.97913504507780
  N   1.85482378478553     -0.08284932995159      0.54778545155656
  H   2.42130594450828     -0.70851648229614      1.09894599517713
  H   2.02046316872905     -0.19432442693572     -0.44348895095212
  C   -0.28274469254827      0.13586292674570     -1.34186666560699
  N   -0.03660994870811      0.07886817248257     -2.49208598361372
  N   -1.85391205052124      0.45743367276760      0.46882918316538
  H   -2.52253230984801     -0.24425184014836      0.17686951760739
  H   -1.91275830920070      0.58955203194877      1.46926839812991
