11
Coordinates from ORCA-job run
  C   0.93734888368666     -0.32754701383122      0.12599218016958
  C   -0.37574884862816     -0.12851649239043     -0.15403027765283
  H   1.54709523105343     -0.94818225477868     -0.52414946946817
  N   1.57853600884224      0.29109398648733      1.16214035971611
  H   0.94581777383388      0.69446289813789      1.83911581069847
  H   2.38598758963630     -0.17463699376992      1.53976406645357
  C   -0.97159735893338     -0.72632267499469     -1.30547908805358
  N   -1.50956431271895     -1.20833566580989     -2.23610624155712
  N   -1.14437462698592      0.70411608887620      0.72686694357519
  H   -2.00946527535760      0.24515853114908      0.98521033169153
  H   -1.38403506442850      1.58070959092431      0.27767538442727
