11
Coordinates from ORCA-job run
  C   0.81458407588051     -0.56508610574203      0.33148187573099
  C   -0.36501159571077     -0.11680282102464     -0.16829761797162
  H   1.31052857726398     -1.41922587106742     -0.12036755574336
  N   1.39288132329095     -0.04255404829753      1.45395273065629
  H   1.00883906650882      0.85343516954989      1.72052713419172
  H   2.39121378227487     -0.13315333656805      1.53489650066507
  C   -0.97121734337170     -0.76179476308101     -1.28844640375624
  N   -1.50255609827299     -1.25329718325815     -2.21791851767560
  N   -0.99084108300359      1.01041357038879      0.46234227671480
  H   -1.82910644049520      0.72789343562724      0.95743880391595
  H   -1.26031426436486      1.70017195347291     -0.22860922672799
