11
Coordinates from ORCA-job run
  C   0.53641193397986     -0.05415992160335      0.87501217130058
  C   -0.51731317901216      0.20719788756600      0.06483759214684
  H   0.36931241301597     -0.08148490427977      1.95232623335630
  N   1.84680430547288     -0.22927854861229      0.39053435253536
  H   1.98476654141370     -1.09571572015624     -0.11027692653243
  H   2.53552590393097     -0.13981308549993      1.12079540869685
  C   -0.31201998208179      0.25719646362335     -1.35254157677060
  N   -0.16301546654366      0.26093915901281     -2.51951913894662
  N   -1.82684805145171      0.50700318005468      0.49406681451625
  H   -1.92590268189331      0.41838949300796      1.49601558144265
  H   -2.52872173683075     -0.04827400311322      0.02374948825484
