11
Coordinates from ORCA-job run
  C   0.51623962239993     -0.08289848463954      0.90304236129051
  C   -0.52842890753410      0.15482477063684      0.07009205906340
  H   0.33679280862032     -0.11534009971010      1.97574408471806
  N   1.85196360373180     -0.14727684425190      0.53359339226852
  H   2.00773686124324     -0.26567458258812     -0.45821063837064
  H   2.40184132274015     -0.78851581765901      1.08345701141025
  C   -0.28953986525899      0.14643364384253     -1.34012113119498
  N   -0.04392480383831      0.08585397852096     -2.49031191997782
  N   -1.83679292964615      0.52046041439236      0.48156662070748
  H   -2.52997179334417     -0.15909396162031      0.19438966623919
  H   -1.88391591911372      0.65222698307629      1.48275849384604
