11
Coordinates from ORCA-job run
  C   0.68854350733802     -0.59317199669557      0.26694967970935
  C   -0.47188256567930     -0.09267094725150     -0.22611654340220
  H   1.15503905161210     -1.44386195761212     -0.21915734308232
  N   1.26809862619405     -0.16607950032215      1.45473018558908
  H   2.22449265743360     -0.45751445321939      1.57405452106875
  H   1.15393956600311      0.82066492116581      1.63811968671232
  C   -0.98392883191476     -0.61023224712935     -1.45698226915656
  N   -1.39126989650510     -1.00486092108788     -2.48809629028646
  N   -1.27472244277173      0.86329013541141      0.43977025068341
  H   -1.27681497712888      1.78227521919779      0.02030236960465
  H   -1.09149469458110      0.90316174754295      1.43142575255999
