11
Coordinates from ORCA-job run
  C   0.85439619191369     -0.51435340296483      0.22565435409353
  C   -0.36484290773376     -0.07563983387713     -0.17840040673635
  H   1.39546769947624     -1.24644968825551     -0.36679575594743
  N   1.42402166542083     -0.14125749328666      1.41074949660231
  H   0.98749598773686      0.67077660557552      1.82479575575439
  H   2.42805233254765     -0.17092220434327      1.46092109150820
  C   -0.95570522814390     -0.57737274524110     -1.37739354803803
  N   -1.47755401998477     -0.95305106548218     -2.36454949460893
  N   -1.05100759642069      0.88560577313853      0.63672085689655
  H   -1.38620574817051      1.65689802910177      0.07227806138973
  H   -1.85411837664164      0.46576602563488      1.09101958908603
