11
Coordinates from ORCA-job run
  C   0.88231467906751     -0.46598574217738      0.19809964392204
  C   -0.39402597219436     -0.14168811788670     -0.12942855918886
  H   1.41278320607901     -1.23083626659791     -0.36162188642095
  N   1.53213171677683      0.06958571848531      1.27486785153503
  H   1.08233916685882      0.89880030559034      1.63738026540426
  H   2.53624683412535      0.10351320458379      1.22651487902340
  C   -1.05953657779139     -0.80419918844843     -1.20485278821467
  N   -1.64612691340351     -1.31288057365651     -2.09071651818356
  N   -1.06163561264147      0.86936883493736      0.63963176296932
  H   -1.79094623317105      0.46314966035398      1.21473610279919
  H   -1.49554429370573      1.55217216481615      0.03038924635479
