11
Coordinates from ORCA-job run
  C   0.95672318430951     -0.06233884068408      0.05841919169811
  C   -0.37014465719300     -0.01950619670862     -0.22012303675551
  H   1.67684379779282     -0.12242775986587     -0.75227080947190
  N   1.43020389973583      0.08035919071736      1.34553088649989
  H   0.76778983531838     -0.23661004589499      2.04207545469901
  H   2.36941882526567     -0.25392741976897      1.49752436657445
  C   -0.82304287140101     -0.18396722627910     -1.56095510616796
  N   -1.23715387306741     -0.34127295827433     -2.65128054006197
  N   -1.29667589279150      0.12643696519651      0.85196432775923
  H   -2.24880136740148     -0.03852310639884      0.56291948427645
  H   -1.22516088056779      1.05077739796094      1.26419578095020
