11
Coordinates from ORCA-job run
  C   0.49598073384624     -0.23683733933525      0.87416475997115
  C   -0.53980795262535      0.11744224972296      0.07157364687233
  H   0.29256814248998     -0.49716134553004      1.91043553530135
  N   1.83755557339011     -0.23084053878127      0.52749525942617
  H   2.01910246589008     -0.17550221968300     -0.46517132978066
  H   2.38850025881141     -0.94481116313968      0.97676932743121
  C   -0.25602464481815      0.46945336014134     -1.28452595636326
  N   0.04574553826200      0.76780673732149     -2.38311840682270
  N   -1.91382110203002      0.07586296334448      0.43294908768071
  H   -2.33172285230627      0.99821584372839      0.42972534683547
  H   -2.03707616091002     -0.34162854778941      1.34570272944824
