11
Coordinates from ORCA-job run
  C   0.88797941011691     -0.45057208743856      0.15139984987299
  C   -0.38768282044483     -0.09982963163627     -0.15170748325523
  H   1.43757335549921     -1.13217600684047     -0.49119479612675
  N   1.51528138681683     -0.04982322520350      1.29783955200452
  H   2.51962479475321     -0.00340375398457      1.27165523773199
  H   1.05196827154276      0.72276418444823      1.75606725124774
  C   -1.02951812439565     -0.62331892327374     -1.31438293171248
  N   -1.59641646714012     -1.01574344944785     -2.26959906472466
  N   -1.07764706651693      0.79581125001762      0.73178664557070
  H   -1.51531265562061      1.54607980537989      0.21100867121167
  H   -1.80585008461077      0.31021183797924      1.24312706817951
