11
Coordinates from ORCA-job run
  C   0.48464466450114     -0.08254656970083      0.91817458303069
  C   -0.53525724960893      0.09437112191832      0.04010300572565
  H   0.26901439623009     -0.06581489298162      1.98405986870597
  N   1.82625714030095     -0.21011637092608      0.59728099636513
  H   2.01344138183167     -0.41266107104601     -0.37503473635728
  H   2.35086321460561     -0.80436793485704      1.21908459940441
  C   -0.23427678982865      0.08374999598253     -1.35735060278559
  N   0.08370093241362      0.08513727140856     -2.49123877640772
  N   -1.91101988922882      0.19225559588792      0.38409701303338
  H   -2.29456008750654      1.09873874848426      0.14602302912574
  H   -2.05180771371014      0.02125410582999      1.37080102015962
