11
Coordinates from ORCA-job run
  C   0.88662780694461     -0.14727877694061      0.07199006850279
  C   -0.41861183959034     -0.04382087209193     -0.28217114303321
  H   1.64008924394043     -0.29750029802070     -0.69448525889808
  N   1.32488122403587     -0.20772559794116      1.38863284811080
  H   2.31382804514013     -0.05417678642428      1.49999585717267
  H   0.78599641875942      0.35713394901822      2.02987015672498
  C   -0.76057413020919      0.00807352379115     -1.66979173323382
  N   -1.04733789769497      0.09460803068455     -2.80779165206461
  N   -1.49637330533948     -0.06177258136539      0.63354312118127
  H   -1.97936854039647      0.81877531201628      0.74101015692346
  H   -1.24815702559000     -0.46631590272613      1.52419757861377
