11
Coordinates from ORCA-job run
  C   0.56916323061084     -0.12158810312670      0.95829080615312
  C   -0.50456389429356      0.10519853639556      0.16077975749303
  H   0.38870282901330     -0.17355882165751      2.02788544964747
  N   1.87665508797976     -0.20517544711680      0.55714520011209
  H   2.03931940689254     -0.34573088418687     -0.42908692618878
  H   2.49369162432548     -0.72721645957157      1.15531501992334
  C   -0.31531623539635      0.16632525515909     -1.25706159544020
  N   -0.13620263348074      0.20045114657324     -2.42166683910564
  N   -1.79671640503801      0.28081767072903      0.74927727920766
  H   -2.15609763090668      1.20897243422305      0.56238482679760
  H   -2.45763537970657     -0.38749532742052      0.37273702140031
