11
Coordinates from ORCA-job run
  C   0.84324431642447     -0.53418507227554      0.23150088681810
  C   -0.39615096891750     -0.12002527846229     -0.13499920982354
  H   1.32503996507847     -1.35187136592217     -0.29669552603190
  N   1.50889017768888     -0.02300403364657      1.31033286375778
  H   1.11843173111313      0.84796014378912      1.64265493742783
  H   2.51335713840313     -0.07040065767145      1.28671377644287
  C   -1.08662076313015     -0.75485813475181     -1.21134332287076
  N   -1.69074322076826     -1.23803031453342     -2.09979294953394
  N   -0.99931778381269      0.96019814773442      0.59281050231078
  H   -1.36390541308532      1.65827567528572     -0.04402048415762
  H   -1.77222517899416      0.62694089045400      1.15783852566040
