11
Coordinates from ORCA-job run
  C   0.57938812839166     -0.34456870930272      0.86244925278316
  C   -0.51869892987603      0.07098297381096      0.18014880715662
  H   0.42829857855982     -0.63010866295386      1.90020673206467
  N   1.84430872277768     -0.45778501646769      0.38086907413759
  H   2.59558303113483     -0.70003646197171      0.99638883257838
  H   2.08627361577649     -0.01692542591312     -0.49061408183694
  C   -0.38851907568421      0.43877186719449     -1.19658377311173
  N   -0.27907886912598      0.71840694069038     -2.33665331520538
  N   -1.77752139185225      0.15242858946017      0.85611505966178
  H   -2.07499192319475      1.11724512779159      0.93720630741434
  H   -2.49504188690726     -0.34941122233848      0.34746710435751
