11
Coordinates from ORCA-job run
  C   0.48884953714885     -0.04769690456118      0.91900758081898
  C   -0.53298568597272      0.10259805673376      0.03818938303887
  H   0.28652040990746      0.05921043920545      1.98231095250793
  N   1.82092531990330     -0.25402227725837      0.59743385301029
  H   2.32631146017885     -0.82402901940227      1.25694394657886
  H   1.98700533944119     -0.53812908910550     -0.35823410303592
  C   -0.24806302334904     -0.02885108497682     -1.35650455000142
  N   0.05772290803697     -0.12857318934494     -2.48938592373070
  N   -1.89963657656167      0.28215276066709      0.38458010323028
  H   -2.03548508722492      0.19690077258091      1.38303099022620
  H   -2.25116460150826      1.18043953546186      0.07662776735660
