11
Coordinates from ORCA-job run
  C   0.74932223037243     -0.63827650568723      0.38154500205514
  C   -0.37363739875093     -0.10501770115292     -0.16320296856983
  H   1.15225874417335     -1.57117540019674     -0.00195915806958
  N   1.37633300020577     -0.09936121535125      1.46961954733624
  H   2.35984808972486     -0.28679340297548      1.56519388305413
  H   1.08971422332490      0.84980001869563      1.66534344063322
  C   -1.04179381946178     -0.76489621633834     -1.23883741632307
  N   -1.61837377406880     -1.26729728724968     -2.13473525633359
  N   -0.87820960649200      1.12524344310411      0.37643918752961
  H   -1.74250425555420      0.96985265575198      0.88303615418484
  H   -1.07195743347360      1.78692161139993     -0.36544241549709
