11
Coordinates from ORCA-job run
  C   0.90561991251446     -0.41247812453698      0.14595016997394
  C   -0.38346331472213     -0.10977766557630     -0.15188079821092
  H   1.46131264499273     -1.10812480849162     -0.47603959996120
  N   1.59309286922799      0.18542245975128      1.16464920911691
  H   0.99403647774954      0.66650590727662      1.82116529954828
  H   2.35313799630277     -0.33602643595780      1.56685910431313
  C   -1.02390228841491     -0.69356633156047     -1.28667036213516
  N   -1.59938005974648     -1.15887859987560     -2.20318671704016
  N   -1.08039590533328      0.81963220170852      0.69078914790058
  H   -1.23680823580330      1.69744302620370      0.20836441336980
  H   -1.98525009676739      0.44984837105864      0.95600013312478
