11
Coordinates from ORCA-job run
  C   0.55707502358970     -0.21009895453723      0.94752996979945
  C   -0.49386620135096      0.15135443090756      0.16926817304528
  H   0.37486402189187     -0.30011572471265      2.01418912355280
  N   1.85088047181973     -0.38833491204414      0.53447807382092
  H   2.42228687560493     -0.98980125171534      1.10240229780348
  H   2.00020970419040     -0.49101884896087     -0.45844710555013
  C   -0.30292481567493      0.26883931728444     -1.24486334398416
  N   -0.12384354021085      0.34864892508679     -2.40716947363860
  N   -1.76410811602419      0.41131437014672      0.77430255216933
  H   -2.48262466739868     -0.17657701612211      0.37011486077250
  H   -2.03994875643700      1.37578966466683      0.63519487220912
