11
Coordinates from ORCA-job run
  C   0.71233736484437     -0.56470807829588      0.26477357720015
  C   -0.46088050791319     -0.10204468296668     -0.23408067815292
  H   1.22402964803135     -1.37990656037739     -0.23634966990478
  N   1.25392404532424     -0.14456002919579      1.47329377155474
  H   2.21972092222075     -0.40001488101563      1.60063046779072
  H   1.09896813255808      0.83281259465864      1.67655158078010
  C   -0.92847379805104     -0.60549745779963     -1.48823790724691
  N   -1.29821378489753     -0.98869505254626     -2.53759412363481
  N   -1.31571073384574      0.79904102555186      0.44245790697200
  H   -1.36225303197898      1.72400538965418      0.03922081782561
  H   -1.14344825629230      0.82956773233258      1.43633425681608
