16

C	-0.390039	0.026513	-1.455015
C	0.0	0.0	0.0
Cl	0.440145	-1.206825	-2.346979
H	1.08853	0.0	0.0
N	-1.911621	-0.03168	-1.719449
O	-2.522087	0.863982	-1.145783
O	-2.372661	-0.887174	-2.450608
N	-0.02616	1.38867	-2.077299
O	0.513947	2.217204	-1.363474
O	-0.335002	1.51213	-3.256545
N	-0.428048	-1.286298	0.626477
O	-1.280397	-1.966041	0.050094
O	0.106519	-1.569109	1.69142
C	-0.500434	1.069983	0.832734
N	-0.863753	1.900047	1.582879
F	2.415051	0.0	0.0
