16

C	-0.546208	-0.000583	-1.406652
C	0.0	0.0	0.0
Cl	-2.304149	-0.004358	-1.479179
H	1.093219	0.0	0.0
N	-0.06263	1.245421	-2.169484
O	0.55255	2.096803	-1.546513
O	-0.347903	1.257673	-3.360155
N	0.027889	-1.143293	-2.276732
O	1.232396	-1.048864	-2.445081
O	-0.733106	-1.974374	-2.732741
N	-0.354635	-1.26524	0.69266
O	-0.231536	-2.298093	0.039756
O	-0.651907	-1.215926	1.882391
C	-0.509576	1.122754	0.75542
N	-0.91647	2.037675	1.371817
F	2.39722	0.0	0.0
