13

C	-0.516404	0.015017	-1.456028
C	0.0	0.0	0.0
Br	0.228643	-1.495271	-2.457249
H	1.097618	0.0	0.0
H	-0.344397	0.937092	0.455496
C	-1.974702	-0.121471	-1.470414
N	-3.148283	-0.18414	-1.466095
C	-0.150776	1.251718	-2.145814
N	0.104796	2.268085	-2.677614
N	-0.504816	-1.181571	0.675025
H	-1.13459	-0.940527	1.425841
H	0.275589	-1.701509	1.054234
Br	3.522571	0.0	0.0
