13

C	-0.47657	-0.005623	-1.458601
C	0.0	0.0	0.0
Br	-2.468559	0.074019	-1.487138
H	1.094478	0.0	0.0
H	-0.342526	0.941403	0.445244
C	-0.013305	1.167997	-2.195115
N	0.35874	2.11437	-2.784127
C	-0.104389	-1.235843	-2.152796
N	0.173197	-2.228395	-2.717913
N	-0.469642	-1.195741	0.669958
H	0.301149	-1.607163	1.180767
H	-1.22869	-0.999337	1.308111
Br	3.49134	0.0	0.0
