13

C	-0.473744	0.005989	-1.460651
C	0.0	0.0	0.0
Br	-2.464971	-0.057281	-1.498995
H	1.094415	0.0	0.0
H	-0.344289	-0.941198	0.444798
C	-0.087927	1.230288	-2.157191
N	0.200656	2.218391	-2.722644
C	-0.017479	-1.174693	-2.190878
N	0.347679	-2.125239	-2.776901
N	-0.468491	1.19679	0.668539
H	0.297299	1.598066	1.194641
H	-1.240065	1.004977	1.292352
Br	3.497769	0.0	0.0
