15

C	-0.40347	-0.05237	-1.470425
C	0.0	0.0	0.0
Br	-2.35289	0.15353	-1.672952
H	1.106783	0.0	0.0
H	-0.215493	-1.082687	-1.779279
C	0.347002	0.894242	-2.388787
H	1.414751	0.804243	-2.16394
H	0.040073	1.925478	-2.236675
H	0.164271	0.611422	-3.427647
C	-0.497408	-1.155656	0.733089
N	-0.880215	-2.136234	1.254808
N	-0.415667	1.256801	0.703868
O	-0.28514	2.305967	0.082866
O	-0.808635	1.160175	1.863186
Cl	3.169894	0.0	0.0
