15

C	-0.4089	-0.022563	-1.469363
C	0.0	0.0	0.0
Br	-2.353982	0.226688	-1.663865
H	1.10779	0.0	0.0
H	-0.246642	-1.05245	-1.794182
C	0.362761	0.918659	-2.374449
H	1.428765	0.78746	-2.163167
H	0.160465	0.666666	-3.418084
H	0.092885	1.95557	-2.194745
C	-0.506134	-1.161914	0.716155
N	-0.908968	-2.142712	1.223494
N	-0.395483	1.246218	0.735242
O	-0.339406	2.300835	0.113078
O	-0.689489	1.134422	1.922089
Cl	3.174309	0.0	0.0
