15

C	-0.499775	-0.022555	-1.447247
C	0.0	0.0	0.0
Br	-0.084848	1.687157	-2.298189
H	1.093701	0.0	0.0
H	-1.588607	-0.088306	-1.463927
C	0.176706	-1.151321	-2.205002
H	-0.115413	-1.133798	-3.256225
H	1.260993	-1.049885	-2.121568
H	-0.121364	-2.113101	-1.776567
C	-0.497784	-1.191314	0.683962
N	-0.908622	-2.165832	1.196046
N	-0.560987	1.193032	0.725088
O	-1.78965	1.279052	0.742212
O	0.223542	1.984386	1.229215
Cl	3.252041	0.0	0.0
