15

C	-0.512903	0.13321	-1.434151
C	0.0	0.0	0.0
Br	0.074232	-1.438012	-2.432104
H	1.09001	0.0	0.0
H	0.010146	0.972803	-1.888397
C	-2.01998	0.27005	-1.543384
H	-2.348465	1.171648	-1.020328
H	-2.318991	0.353295	-2.589796
H	-2.518125	-0.599812	-1.110725
C	-0.549298	-1.156757	0.691059
N	-1.020555	-2.103537	1.202463
N	-0.358252	1.248879	0.769604
O	-0.607185	1.141089	1.965475
O	-0.31396	2.305535	0.143826
Cl	3.164878	0.0	0.0
