15

C	-0.496527	-0.15495	-1.440931
C	0.0	0.0	0.0
Br	0.059359	-1.902391	-2.102119
H	1.100245	0.0	0.0
H	0.045786	0.571132	-2.043567
C	-1.997587	-0.01342	-1.589942
H	-2.518482	-0.759654	-0.98787
H	-2.288432	-0.145412	-2.633838
H	-2.307568	0.984542	-1.271069
C	-0.560094	-0.993621	0.902006
N	-1.025468	-1.81878	1.59766
N	-0.383299	1.380721	0.471387
O	-0.862712	1.511214	1.594364
O	-0.156143	2.296288	-0.315114
Cl	3.164013	0.0	0.0
