15

C	-0.498039	-0.119146	-1.442283
C	0.0	0.0	0.0
Br	-0.071542	1.526764	-2.407261
H	1.108185	0.0	0.0
H	-1.587629	-0.178567	-1.456813
C	0.172157	-1.300313	-2.120437
H	-0.120295	-1.353554	-3.170143
H	-0.13048	-2.228445	-1.627314
H	1.256702	-1.198786	-2.045052
C	-0.500881	-1.141201	0.761374
N	-0.920172	-2.079551	1.331609
N	-0.560534	1.240365	0.640154
O	-1.789057	1.331093	0.645733
O	0.224076	2.062173	1.093094
Cl	3.247742	0.0	0.0
