15

C	-0.399817	-0.065676	-1.472783
C	0.0	0.0	0.0
Br	-2.345689	0.164539	-1.681203
H	1.106685	0.0	0.0
H	-0.22464	-1.099788	-1.772605
C	0.361782	0.870159	-2.38997
H	1.427268	0.766074	-2.166973
H	0.072078	1.905393	-2.233039
H	0.17023	0.594311	-3.429591
C	-0.506715	-1.144528	0.74305
N	-0.8862	-2.117698	1.280812
N	-0.432104	1.270822	0.666268
O	-0.102044	2.312553	0.111159
O	-1.059194	1.192801	1.719767
Cl	3.182237	0.0	0.0
