17

C	-0.155855	0.054273	-1.501105
C	-0.01635	0.139669	0.023875
F	-1.485568	-0.346899	-1.821812
H	1.042617	0.398023	0.196795
C	-0.082243	1.433634	-2.073736
N	0.036135	2.515777	-2.517992
N	0.782317	-0.825409	-2.034655
H	1.029104	-0.600531	-2.987415
H	1.637964	-0.974598	-1.37409
C	-0.231288	-1.232667	0.641
H	-1.158572	-1.682151	0.282148
H	-0.280595	-1.138305	1.732729
H	0.641067	-1.834796	0.39328
N	-0.983608	1.111903	0.554425
H	-0.956427	1.045077	1.565869
H	-0.672613	2.049825	0.320783
F	2.609994	-1.095074	-0.314896
