17

C	-0.211353	0.042973	-1.411165
C	0.049573	0.17875	0.086639
F	-1.64296	-0.14651	-1.555
H	1.117195	0.408256	0.180539
C	-0.00022	1.345724	-2.104216
N	0.221883	2.310036	-2.73816
N	0.495501	-1.014272	-1.965957
H	1.399539	-1.240903	-1.387899
H	0.668044	-0.88224	-2.9524
C	-0.187038	-1.155369	0.791345
H	-0.170493	-0.993963	1.876023
H	-1.155053	-1.579621	0.511997
H	0.6347	-1.818956	0.523066
N	-0.750982	1.304783	0.578029
H	-0.547573	1.430996	1.563212
H	-1.727785	1.040554	0.50589
F	2.466995	-1.409371	-0.452329
