17

C	-0.610639	0.050111	-1.593724
C	0.153906	0.000989	-0.271234
F	-0.271499	1.178836	-2.326771
H	1.21948	0.025649	-0.528443
C	-0.211367	-1.093524	-2.469608
N	0.047209	-2.006033	-3.163552
N	-2.030842	0.088711	-1.385714
H	-2.528208	-0.118658	-2.242673
H	-2.288183	-0.58811	-0.68025
C	-0.08399	-1.304041	0.498458
H	0.167764	-2.206832	-0.07027
H	-1.123681	-1.376429	0.846292
H	0.565756	-1.182947	1.377135
N	-0.096083	1.192363	0.519458
H	0.560321	1.023514	1.329947
H	-1.041896	1.129138	0.886635
F	1.575744	0.191651	2.257943
