17

C	-0.267738	-0.373644	-1.333654
C	0.012577	-0.178681	0.16027
F	-0.245361	-1.796719	-1.577367
H	1.067969	-0.464095	0.274839
C	-1.670936	-0.004019	-1.651891
N	-2.77335	0.26016	-1.959734
N	0.665644	0.279009	-2.130746
H	1.35045	0.894542	-1.598545
H	0.274952	0.71785	-2.948681
C	-0.872486	-1.062048	1.024202
H	-0.590281	-0.948916	2.076454
H	-0.775952	-2.11273	0.750917
H	-1.918156	-0.757899	0.920456
N	-0.209199	1.231287	0.455755
H	0.649172	1.703622	0.11525
H	-0.22835	1.338382	1.464769
F	2.161195	1.754175	-0.632972
