17

C	0.0	0.0	0.0
C	-0.479607	-0.07202	-1.472759
Br	1.964083	0.0	0.0
H	0.33158	-0.518932	-2.06162
H	-0.264933	0.96664	0.432003
C	-0.506697	-1.11016	0.896266
H	-0.073653	-1.01791	1.896727
H	-0.270776	-2.089506	0.481226
H	-1.594832	-1.004918	0.953675
C	-0.725046	1.350938	-1.987817
H	0.161244	1.986304	-1.867088
H	-0.985333	1.32687	-3.0514
H	-1.568604	1.784431	-1.444051
N	-1.627852	-0.962701	-1.585385
H	-1.931609	-0.952608	-2.555866
H	-2.427399	-0.589105	-1.021242
H	-3.630331	0.0	0.0
