17

C	0.0	0.0	0.0
C	-0.407409	-0.002641	-1.509532
Br	1.967447	0.0	0.0
H	0.34114	-0.623905	-2.01764
H	-0.287367	0.939406	0.47718
C	-0.538002	-1.175179	0.782198
H	-0.259148	-2.12089	0.307245
H	-0.161084	-1.17505	1.807922
H	-1.630416	-1.072555	0.791505
C	-0.318749	1.413346	-2.073968
H	-0.468711	1.378025	-3.154871
H	0.647309	1.879742	-1.858503
H	-1.117721	2.02223	-1.641306
N	-1.707377	-0.557361	-1.825898
H	-1.681644	-1.560946	-1.681905
H	-2.459058	-0.215166	-1.185035
H	-3.620763	0.0	0.0
