18

C	0.0	0.0	0.0
C	-0.34773	0.225113	-1.484515
F	1.36824	0.0	0.0
H	0.172677	1.147687	-1.758325
N	-0.331765	1.259104	0.809663
O	-0.492972	2.31287	0.201494
O	-0.299339	1.135482	2.029541
C	-0.617916	-1.199278	0.64264
H	-0.238513	-1.319936	1.655661
H	-1.705149	-1.063907	0.671125
H	-0.377686	-2.08457	0.050708
C	-1.820685	0.333954	-1.854282
H	-2.374086	-0.576017	-1.639262
H	-2.312947	1.122523	-1.291815
H	-1.904685	0.551773	-2.922074
C	0.292694	-0.862386	-2.234217
N	0.779883	-1.725693	-2.864017
Cl	-4.462568	0.0	0.0
