18

C	0.0	0.0	0.0
C	-0.394248	0.178281	-1.471868
F	1.367944	0.0	0.0
H	0.128675	1.081094	-1.80111
N	-0.333601	1.292055	0.764265
O	-0.469697	1.19675	1.979061
O	-0.328809	2.341015	0.126051
C	-0.597971	-1.179178	0.700053
H	-1.683435	-1.05162	0.762989
H	-0.36882	-2.081464	0.130207
H	-0.184898	-1.264954	1.703628
C	-1.886419	0.311515	-1.753929
H	-2.032429	0.46844	-2.825021
H	-2.456668	-0.56206	-1.448932
H	-2.317208	1.152478	-1.215215
C	0.183196	-0.946156	-2.214824
N	0.621224	-1.845972	-2.829379
Cl	-4.61843	0.0	0.0
