18

C	0.0	0.0	0.0
C	-0.420934	0.52546	-1.378516
F	1.364314	0.0	0.0
H	0.233881	1.385454	-1.554638
N	-0.346052	1.101503	1.012296
O	-0.962173	0.793534	2.025319
O	0.078864	2.220938	0.736863
C	-0.579699	-1.312729	0.426563
H	-0.204886	-1.577014	1.414781
H	-0.281722	-2.077539	-0.292508
H	-1.669568	-1.246451	0.468332
C	-1.880674	0.96524	-1.489586
H	-2.044825	1.854289	-0.87968
H	-2.607173	0.222504	-1.155717
H	-2.100209	1.222574	-2.527521
C	-0.07132	-0.491544	-2.372978
N	0.214425	-1.2951	-3.180129
Cl	-4.741605	0.0	0.0
