18

C	0.0	0.0	0.0
C	-0.432914	0.016606	-1.551296
Br	1.964508	0.0	0.0
H	-1.504516	-0.063011	-1.737464
C	-0.291828	1.26265	0.853072
H	0.24651	2.119225	0.424199
H	-1.34095	1.51091	0.980668
H	0.166341	1.095113	1.837969
C	-0.425654	-1.246837	0.610577
N	-0.547151	-2.297506	1.128792
C	0.160147	-1.096147	-2.416046
H	-0.358438	-1.080193	-3.382306
H	1.230947	-1.048934	-2.595692
H	-0.102172	-2.039234	-1.935819
N	-0.162495	1.374017	-2.172984
O	0.941036	1.613426	-2.668631
O	-0.987601	2.254629	-1.881041
Cl	-3.096099	0.0	0.0
