18

C	0.0	0.0	0.0
C	-0.589688	-0.08606	-1.420952
Br	1.964579	0.0	0.0
H	-1.662706	0.116473	-1.270938
C	-0.475009	1.218389	0.788687
H	-0.137864	2.132929	0.305046
H	-1.56764	1.189036	0.811008
H	-0.073583	1.173941	1.802122
C	-0.349777	-1.227495	0.721401
N	-0.546446	-2.225292	1.310936
C	-0.374002	-1.405837	-2.123138
H	-0.93428	-2.175561	-1.592198
H	0.68149	-1.675496	-2.168163
H	-0.759303	-1.344468	-3.142289
N	-0.050936	1.04442	-2.24617
O	0.823782	0.794886	-3.077064
O	-0.521116	2.163992	-2.0406
Cl	-3.64781	0.0	0.0
