18

C	0.0	0.0	0.0
C	-0.578793	0.2246	-1.412173
Br	1.964897	0.0	0.0
H	-1.654621	0.391687	-1.23824
C	-0.482619	1.014213	1.03026
H	-0.107423	0.7392	2.017881
H	-1.575293	0.978621	1.016232
H	-0.134745	2.013772	0.773793
C	-0.354509	-1.354377	0.433404
N	-0.569667	-2.455621	0.784683
C	-0.3575	-0.913909	-2.38197
H	-0.911019	-1.784553	-2.027198
H	-0.749574	-0.637752	-3.362068
H	0.700417	-1.158879	-2.487876
N	-0.03054	1.504028	-1.969744
O	-0.491492	2.554754	-1.521366
O	0.838892	1.436622	-2.839838
Cl	-3.655196	0.0	0.0
