18

C	0.0	0.0	0.0
C	-0.588152	0.267743	-1.399094
Br	1.964671	0.0	0.0
H	-1.650872	0.485124	-1.205693
C	-0.461819	1.00386	1.056589
H	-1.555737	0.992672	1.0579
H	-0.080185	0.70252	2.033042
H	-0.097209	2.000449	0.813486
C	-0.367279	-1.356361	0.411766
N	-0.576357	-2.461548	0.754141
C	-0.444948	-0.874632	-2.378232
H	-0.798705	-0.562177	-3.361514
H	0.590292	-1.205145	-2.471099
H	-1.073004	-1.697681	-2.036577
N	0.015129	1.522708	-1.954458
O	0.859447	1.420388	-2.845951
O	-0.371482	2.590539	-1.477399
Cl	-3.632619	0.0	0.0
