18

C	0.0	0.0	0.0
C	-0.589801	0.010962	-1.425708
Br	1.956936	0.0	0.0
H	-1.65195	0.261497	-1.273944
C	-0.468099	1.171883	0.86142
H	-0.104675	2.110576	0.445931
H	-0.087044	1.050671	1.877182
H	-1.561806	1.160663	0.86483
C	-0.364962	-1.263347	0.646776
N	-0.574436	-2.28063	1.197632
C	-0.452966	-1.291448	-2.180451
H	0.57961	-1.641594	-2.208991
H	-0.803739	-1.160529	-3.204692
H	-1.087974	-2.033275	-1.695047
N	0.016273	1.142372	-2.20007
O	-0.349696	2.281937	-1.910409
O	0.840918	0.875578	-3.074904
Cl	-3.639055	0.0	0.0
