18

C	0.0	0.0	0.0
C	-0.449231	-0.003568	-1.472693
Br	1.957986	0.0	0.0
H	-0.062091	0.908238	-1.931517
C	-0.54975	1.230227	0.713125
H	-0.160155	1.277872	1.730193
H	-1.641322	1.158566	0.756567
H	-0.255748	2.135041	0.17573
C	-0.39302	-1.208333	0.725985
N	-0.667454	-2.148404	1.376797
C	-1.948451	-0.148987	-1.655269
H	-2.354418	-0.992348	-1.099501
H	-2.164983	-0.286805	-2.717697
H	-2.493126	0.727337	-1.308054
N	0.227874	-1.107253	-2.231777
O	0.903114	-0.78491	-3.210356
O	0.030977	-2.25719	-1.848535
Cl	-4.775275	0.0	0.0
