15
Coordinates from ORCA-job run
  C   -0.64675208457736     -0.19838449569398      0.32721521175876
  C   0.86786477216478      0.05902828026359      0.34688012772473
  Br  -1.42144451700325      0.22323424244487      2.10451344141914
  H   1.27728951288801     -0.71598561258446      1.01667304610703
  N   -0.88205137439977     -1.51366854028274     -0.11778518962953
  H   -1.82409835617251     -1.61285650808081     -0.47647219284022
  H   -0.71217445199681     -2.18299754372026      0.62195605982284
  N   -1.31679250532314      0.77066439433219     -0.64799249549125
  O   -0.96196219643684      1.93459884244975     -0.58423590311247
  O   -2.17194069621808      0.30108599421267     -1.38954010859718
  C   1.26564363650954      1.34771291999647      0.91819368895059
  N   1.70570802781949      2.32943750903447      1.38746105278045
  N   1.31343211070096     -0.03442325053805     -1.03374662295757
  H   1.23929092496482     -0.99446570795374     -1.34441685259546
  H   2.26798719708016      0.28701947612004     -1.12870326333984
