15
Coordinates from ORCA-job run
  C   -0.72138854800516     -0.10940116117176      0.21161871875920
  C   0.77990257249124      0.03606018904329     -0.12043239006274
  Br  -1.08267532918896      0.64910042891127      1.94633679900404
  H   0.88688879767937     -0.39243153496012     -1.12282511304503
  N   -1.26421288645451     -1.42589321757471      0.15582618767980
  H   -1.03162064206720     -1.86792349908686     -0.72623228225247
  H   -0.95014606195270     -1.98919594446259      0.93509806422821
  N   -1.43634635806001      0.68731445202181     -0.89241938731710
  O   -1.25668258457620      0.19834030692752     -2.00540970939015
  O   -2.09625358006643      1.67277098725656     -0.62485584744947
  C   1.55277424763758     -0.80347246806339      0.81369841834007
  N   2.18989815885098     -1.45267992946177      1.55781959073764
  N   1.15631974346339      1.42860778357984     -0.19293539683375
  H   2.04234779593757      1.53645092558235     -0.66957570321981
  H   1.23119467431106      1.83335268145855      0.73228805082156
