15
Coordinates from ORCA-job run
  C   -0.64936426703849     -0.18736415175006      0.25566408809251
  C   0.83506566818598      0.02959606156775     -0.07656184541698
  Br  -1.11666509763649      0.65402440356817      1.92419392465610
  H   0.99959120492530     -0.50023013367781     -1.02175244299973
  N   -0.94994879709315     -1.56611202311096      0.31249783001657
  H   -0.82472522834356     -1.98971840640898     -0.60031144552192
  H   -1.88551426536768     -1.74262620873815      0.65573545822119
  N   -1.39943290854265      0.53327542700942     -0.91316275713229
  O   -1.21718871500901     -0.03234294391593     -1.98927167251131
  O   -2.07469442918438      1.52607760606747     -0.71708263156613
  C   1.67245539217572     -0.60691211828190      0.95456045933096
  N   2.41514659099774     -1.05164727821096      1.74875281038721
  N   1.09243486014624      1.43377502160967     -0.31111768091425
  H   1.97721292616545      1.55619624169319     -0.78625417640473
  H   1.12462706561899      1.94300850257906      0.56411008176281
