15
Coordinates from ORCA-job run
  C   -0.65887631141849     -0.25114484436235      0.07724392817213
  C   0.74551373828957      0.26011541761346      0.43422538027454
  Br  -1.17577141850634     -1.53421330000888      1.58057188913859
  H   0.71897918729852      0.64747185661168      1.45710391746531
  N   -0.69905655357858     -0.76522319942785     -1.19592752735505
  H   -1.59982919505069     -1.11820621271516     -1.48469778975676
  H   0.07682965667328     -1.39288772003999     -1.36540335039144
  N   -1.70097584620919      0.84541912166985      0.21872483228626
  O   -2.73407129498775      0.69220842404787     -0.41792637770395
  O   -1.42886759857302      1.77203403738599      0.97252381890005
  C   1.08988652660039      1.36782459140818     -0.46477175320753
  N   1.40124021269255      2.26338249466066     -1.15682405877010
  N   1.67896957246972     -0.84452329453188      0.21715086859239
  H   2.61951796225242     -0.48843197487264      0.10106627792059
  H   1.66451136204760     -1.45482539743894      1.02593994443496
