14
Coordinates from ORCA-job run
  C   0.70824733031514      0.32065259838047     -0.37130259067547
  C   -0.74781848345791     -0.16732064032033     -0.22414560506992
  F   0.79491998119802      1.02681240192561     -1.52123624310193
  H   -0.94328776424193     -0.74714187354333     -1.13504420791808
  N   1.60246062557666     -0.91043983358246     -0.52539677640102
  O   2.24277893227623     -1.26669995032316      0.45535335493552
  O   1.53596392895528     -1.45362443539595     -1.62023373209290
  C   1.14698512791679      1.12360559889247      0.76567595031480
  N   1.44426468178926      1.78663084878787      1.68852217661052
  N   -1.60112910317535      0.99712418895467     -0.12279475232901
  H   -2.14656240456880      1.00947379546993      0.72624266693302
  H   -2.20647012096953      1.08802940635945     -0.92468787936007
  C   -0.85456320385716     -1.06137018803062      0.93232565819930
  N   -0.97578952775670     -1.74773191757462      1.87772197995524
