14
Coordinates from ORCA-job run
  C   0.69275504727308     -0.04776347359605     -0.38727954714955
  C   -0.72111531123616      0.20614133008209      0.14786096653321
  F   0.70917498147559     -1.18311160062204     -1.11790634059593
  H   -0.66834178539943      1.10900021188397      0.76211904582849
  N   1.58756736119231     -0.25280262818834      0.84344262221595
  O   1.63933646841326      0.71687657655886      1.58580345496501
  O   2.13487453379288     -1.33200879195517      0.96027350890430
  C   1.22992192994768      1.07336987070026     -1.15726264748767
  N   1.63909330427138      1.98239538966014     -1.77953131880701
  N   -1.07294499322688     -0.91560878979875      0.99006813489876
  H   -1.85477922421805     -0.68385911876620      1.58819857423248
  H   -1.31457332956422     -1.72666921844116      0.43426553833431
  C   -1.62340836070092      0.45209142201645     -0.99213368468285
  N   -2.38056062202051      0.60194882046594     -1.87791830718950
