14
Coordinates from ORCA-job run
  C   0.69856813070967      0.31793864606372     -0.36907381286733
  C   -0.74243208969959     -0.19548312754020     -0.17995137419243
  F   0.75107460608685      1.03963999100528     -1.50400606761227
  H   -0.93075753772230     -0.89330840735279     -1.01009705160244
  N   1.60823004860945     -0.89996643237030     -0.56135460246763
  O   2.37302576294501     -1.17625185850730      0.35495355940382
  O   1.40983714918734     -1.52358241821288     -1.59194996289261
  C   1.15688835548216      1.09822411808088      0.77091220225054
  N   1.47520410242871      1.75640064054801      1.69139379874817
  N   -1.61040294476809      0.96359717178939     -0.14544676420055
  H   -1.94925869187501      1.19236796282996     -1.06915503197484
  H   -2.38961464070541      0.83734453985875      0.48402840449582
  C   -0.83348678882938     -0.95102295999433      1.07275098303680
  N   -1.01887546184938     -1.56389786619819      2.05699571987496
