14
Coordinates from ORCA-job run
  C   0.69606341315218      0.12516525130017     -0.58455958886180
  C   -0.81130839474150      0.23934017409344     -0.28592290753863
  F   0.85039141388337     -0.16402836497182     -1.89559422548827
  H   -1.17871311969163      0.86955020346461     -1.10794746672259
  N   1.30346011420138     -1.03369129727907      0.22390967367245
  O   1.82798879216762     -1.94573611154266     -0.38822198518396
  O   1.17252088042666     -0.92399543799800      1.43899081023589
  C   1.42407741163081      1.34318669415467     -0.22578257665778
  N   1.99009155181565      2.34423188677483      0.02940905366199
  N   -1.06587273315600      0.91730024890381      0.97029547257133
  H   -2.03676450591991      1.20379438781307      1.01979587246043
  H   -0.85376807547505      0.30741672469263      1.74936438177201
  C   -1.41816143289748     -1.10436632905153     -0.43794065773121
  N   -1.90000531539608     -2.17716803035417     -0.50479585618987
