14
Coordinates from ORCA-job run
  C   0.66938194063385     -0.05756735148400     -0.42517775335184
  C   -0.69846938362946      0.23426909350019      0.20217755227850
  F   0.58034831518787     -1.13137423843072     -1.23895134108387
  H   -0.56160765581064      1.08164543067473      0.87948129106915
  N   1.60984462172999     -0.40860940836250      0.73615175990706
  O   2.09681963519291     -1.52260099727159      0.74156028370694
  O   1.75831289030724      0.49618551098893      1.54468173063530
  C   1.23449457391035      1.08824266849414     -1.13649091228771
  N   1.66208572408607      2.02014906754083     -1.71042810811638
  N   -1.07782822928703     -0.92834905312502      0.97405160861763
  H   -1.39250888998319     -1.67855428813866      0.37136349384345
  H   -1.81594646998258     -0.70071958975108      1.62683858225603
  C   -1.63771510700122      0.62126633950501     -0.86692343625650
  N   -2.42621196535417      0.88401681585974     -1.69733475121775
