14
Coordinates from ORCA-job run
  C   0.61282764589359      0.02632676081253     -0.42770255521552
  C   -0.80539389702692      0.20719492747401      0.16899762706506
  F   0.60977681429470     -0.99844547844535     -1.30575514101776
  H   -0.75326754841134      1.04756385776298      0.86764667514597
  N   1.51344765585777     -0.35997467679526      0.74848160541677
  O   1.61642822552327      0.50655012968461      1.60746616616286
  O   1.98655639813287     -1.48356986648121      0.74757876689039
  C   1.15122740137799      1.23939414693805     -1.03658604230156
  N   1.55121876429090      2.22956472800210     -1.52770434561884
  N   -1.29960978004537     -0.95162551396784      0.86318601336953
  H   -0.85574553997181     -1.07727694062680      1.76269463854869
  H   -1.21972223004798     -1.79303701939957      0.30713541199783
  C   -1.70099343610904      0.56592539968659     -0.93914177004939
  N   -2.40475047375865      0.84140954535516     -1.83729705039404
