14
Coordinates from ORCA-job run
  C   0.69754738167293      0.18145231713589     -0.52020487333974
  C   -0.81759212102868      0.12305707341429     -0.30026364554814
  F   0.99742731266810     -0.20327112448618     -1.78655045101421
  H   -1.21825821435328      0.83152056916906     -1.03472049505737
  N   1.44937098896036     -0.79160924241139      0.39955052817441
  O   0.79013623602381     -1.42437544998077      1.21635817125914
  O   2.65313923277504     -0.85424492721482      0.20220132565329
  C   1.22065278462492      1.52377660500008     -0.25998042369745
  N   1.61980908052421      2.61460506077295     -0.08551883546352
  N   -1.13892713681945      0.60408901256462      1.02227683410153
  H   -2.06763972371046      1.00135898032966      1.04783881550476
  H   -1.06645540271464     -0.13787647153077      1.70479514698598
  C   -1.32979259105621     -1.21153259712745     -0.66191004170882
  N   -1.78841782756666     -2.25494980563518     -0.94487205584986
