14
Coordinates from ORCA-job run
  C   0.68452119859151      0.28181674933348     -0.36961798925750
  C   -0.77350318593321     -0.15231251270624     -0.15020477766287
  F   0.72559689475305      0.99442992000711     -1.52446544892750
  H   -1.02693304987965     -0.76469329321334     -1.02928646071108
  N   1.52426795902670     -0.97994079450922     -0.58099721988407
  O   1.41700563558391     -1.48861596927216     -1.68789270689793
  O   2.15868110979682     -1.38982061821838      0.38189738995998
  C   1.22853164085223      1.06543414164560      0.73396746736637
  N   1.65950682442511      1.71769215168041      1.61058047625787
  N   -1.56145879260063      1.05579689624033      0.00307778082775
  H   -1.75758315113231      1.46138407224767     -0.90279891540469
  H   -2.43360452454287      0.86660094663531      0.47856231103484
  C   -0.86717210543887     -0.99197384395683      1.04431585798697
  N   -0.97685645350179     -1.67379784591375      1.99386223531189
