18

C	-0.313149	-0.045439	-1.485204
C	0.0	0.0	0.0
Br	-2.26346	-0.370001	-1.824595
H	1.096937	0.0	0.0
N	0.007465	1.309747	-2.115318
O	-0.761241	2.243745	-1.902082
O	1.059948	1.385438	-2.739796
N	0.428355	-1.041806	-2.178826
H	1.412947	-0.817123	-1.986615
H	0.236347	-1.892237	-1.653931
N	-0.331531	-1.319844	0.539678
H	-1.199959	-1.28516	1.060209
H	0.42147	-1.581871	1.168314
C	-0.541825	1.159493	0.808618
H	-0.205029	1.031156	1.841852
H	-0.163893	2.1195	0.455398
H	-1.636876	1.190785	0.790007
H	2.777327	0.0	0.0
