18

C	-0.248596	0.021929	-1.502797
C	0.0	0.0	0.0
Br	-0.150559	-1.858392	-2.281691
H	1.09804	0.0	0.0
N	-1.677219	0.402441	-1.898619
O	-1.839818	0.979136	-2.971181
O	-2.573869	0.103247	-1.114259
N	0.647079	0.90936	-2.085052
H	1.586385	0.739437	-1.694445
H	0.630148	0.891508	-3.093866
N	-0.484522	-1.169741	0.694832
H	-1.33772	-0.964137	1.197542
H	0.230931	-1.463227	1.348358
C	-0.423773	1.325023	0.632529
H	0.083793	1.409527	1.59813
H	-1.506038	1.366802	0.794862
H	-0.119734	2.174177	0.017635
H	2.836775	0.0	0.0
