18

C	-0.194798	-0.013334	-1.515462
C	0.0	0.0	0.0
Br	-0.200888	-1.979991	-2.197992
H	1.107174	0.0	0.0
N	-1.560145	0.431481	-2.042611
O	-1.592625	0.924147	-3.170131
O	-2.531767	0.265198	-1.314854
N	0.793608	0.758039	-2.082057
H	0.807882	0.752912	-3.09107
H	1.709062	0.572587	-1.63307
N	-0.574681	-1.133339	0.713356
H	-0.73404	-0.841037	1.671146
H	0.132814	-1.860012	0.747276
C	-0.46849	1.318009	0.596187
H	0.047352	1.463726	1.551503
H	-1.549367	1.31391	0.763167
H	-0.204257	2.155146	-0.052231
H	2.869293	0.0	0.0
