16

C	-0.441879	0.000689	-1.437487
C	0.0	0.0	0.0
F	-1.805716	0.053972	-1.598155
H	1.094969	0.0	0.0
C	0.152523	1.090677	-2.222375
N	0.545545	1.992072	-2.864369
N	0.002947	-1.321595	-2.075965
O	1.157992	-1.373392	-2.471275
O	-0.828583	-2.221215	-2.092148
C	-0.417658	-1.258337	0.761385
H	-0.17357	-1.109261	1.814375
H	-1.480275	-1.498544	0.667661
H	0.182368	-2.099907	0.410539
C	-0.50502	1.205261	0.626414
N	-0.923011	2.167533	1.159143
F	2.482492	0.0	0.0
