16

C	-0.389284	-0.128689	-1.457511
C	0.0	0.0	0.0
F	0.076519	-1.301046	-1.96265
H	1.096688	0.0	0.0
C	-1.839882	-0.06588	-1.716626
N	-3.003007	-0.067212	-1.882788
N	0.251023	0.998279	-2.280825
O	-0.232975	2.10717	-2.091358
O	1.160683	0.703071	-3.035046
C	-0.423193	-1.244631	0.782004
H	-1.507741	-1.404191	0.797483
H	-0.06657	-1.131391	1.807947
H	0.076099	-2.115803	0.355465
C	-0.54569	1.197667	0.600814
N	-1.001109	2.130252	1.155632
F	2.489693	0.0	0.0
