16

C	-0.395522	-0.223676	-1.433244
C	0.0	0.0	0.0
F	0.1068	-1.406042	-1.883708
H	1.092996	0.0	0.0
C	-1.852664	-0.232695	-1.677406
N	-3.019118	-0.259484	-1.818862
N	0.178039	0.853686	-2.37904
O	0.188267	0.542612	-3.56543
O	0.539034	1.913645	-1.893302
C	-0.397769	-1.206013	0.858316
H	-0.03833	-1.024843	1.873027
H	0.120115	-2.088479	0.481903
H	-1.477747	-1.388097	0.888982
C	-0.588051	1.212673	0.528734
N	-1.087099	2.153003	1.029628
F	2.492865	0.0	0.0
