16

C	-0.292474	-0.004507	-1.475076
C	0.0	0.0	0.0
F	0.074487	1.168106	-2.05015
H	1.10757	0.0	0.0
C	0.365051	-1.117599	-2.176816
N	0.871941	-1.985646	-2.78349
N	-1.804053	-0.149614	-1.747626
O	-2.443948	0.876282	-1.933493
O	-2.254182	-1.289706	-1.669209
C	-0.376761	-1.2883	0.725697
H	-1.451825	-1.485435	0.759083
H	0.00924	-1.217507	1.744535
H	0.12893	-2.129353	0.24638
C	-0.562419	1.17773	0.620848
N	-1.011725	2.115019	1.172904
F	2.473585	0.0	0.0
