16

C	-0.367634	0.092701	-1.464571
C	0.0	0.0	0.0
F	0.105062	-0.991537	-2.129958
H	1.107636	0.0	0.0
C	-1.813819	0.19763	-1.738147
N	-2.973719	0.206788	-1.927307
N	0.293006	1.327149	-2.092057
O	1.253883	1.14352	-2.818442
O	-0.22205	2.396844	-1.785026
C	-0.425836	-1.349843	0.579788
H	-1.506903	-1.523268	0.538218
H	-0.102157	-1.384117	1.62178
H	0.099629	-2.140376	0.04506
C	-0.555204	1.094134	0.765279
N	-1.006757	1.93317	1.456454
F	2.487566	0.0	0.0
