16

C	-0.068324	-0.021842	-1.51938
C	0.0	0.0	0.0
Br	-1.838525	-0.567241	-2.270726
H	1.107583	0.0	0.0
H	0.040808	1.004012	-1.883089
N	0.982057	-0.828794	-2.115636
H	1.822896	-0.577361	-1.553022
H	0.790933	-1.801045	-1.891738
C	-0.538547	-1.232894	0.684068
H	-0.201839	-1.256325	1.725983
H	-0.162944	-2.13953	0.204476
H	-1.632699	-1.247075	0.661914
N	-0.62557	1.210589	0.550778
H	-0.016914	1.988412	0.303657
H	-0.563879	1.143659	1.563501
F	2.757771	0.0	0.0
