16

C	-0.44105	-0.006566	-1.460993
C	0.0	0.0	0.0
Br	0.07487	1.687148	-2.335292
H	1.095504	0.0	0.0
H	0.142799	-0.763338	-1.990917
N	-1.85078	-0.21847	-1.769899
H	-2.40677	0.441505	-1.233444
H	-2.091959	-1.14806	-1.439949
C	-0.450922	-1.304692	0.649991
H	-0.154073	-2.173255	0.050093
H	-1.534967	-1.344562	0.825714
H	0.052085	-1.379179	1.615267
N	-0.460762	1.131412	0.803188
H	-1.350753	1.492022	0.470904
H	0.22447	1.869136	0.687968
F	2.680336	0.0	0.0
