18

C	-0.494682	0.023137	-1.425362
C	0.0	0.0	0.0
F	-0.082605	1.141462	-2.084772
H	1.096716	0.0	0.0
N	0.053928	-1.170237	-2.22004
O	-0.534512	-2.234811	-2.048615
O	1.025831	-0.972077	-2.928028
C	-1.967161	-0.045456	-1.528951
N	-3.142433	-0.032876	-1.540603
C	-0.450975	-1.236912	0.765263
H	-1.541494	-1.325031	0.829683
H	-0.046693	-1.160632	1.777305
H	-0.050585	-2.151528	0.328511
C	-0.444972	1.277496	0.705291
H	0.084828	1.328621	1.659639
H	-1.523998	1.300171	0.899451
H	-0.164217	2.163752	0.134363
H	2.817645	0.0	0.0
