18

C	-0.511861	-0.009472	-1.4117
C	0.0	0.0	0.0
F	-1.892003	-0.033252	-1.473899
H	1.094969	0.0	0.0
N	-0.089909	1.268823	-2.141046
O	1.005662	1.252455	-2.684994
O	-0.868617	2.214897	-2.076146
C	-0.022161	-1.140042	-2.214441
N	0.328511	-2.083656	-2.818942
C	-0.431871	-1.280224	0.708021
H	0.052067	-1.298617	1.688726
H	-0.087171	-2.167397	0.17011
H	-1.51705	-1.34272	0.84445
C	-0.448405	1.244625	0.756745
H	-1.534429	1.37929	0.75342
H	0.020607	2.145448	0.35554
H	-0.10605	1.14426	1.790057
H	2.800863	0.0	0.0
