18

C	-0.514251	-0.046007	-1.408814
C	0.0	0.0	0.0
F	-1.894343	-0.081955	-1.465742
H	1.09495	0.0	0.0
N	-0.103504	1.221867	-2.164236
O	0.99605	1.203322	-2.70014
O	-0.889703	2.161275	-2.120556
C	-0.021524	-1.190711	-2.1902
N	0.280652	-2.143595	-2.80697
C	-0.427719	-1.263802	0.741161
H	-0.109284	-2.165495	0.211589
H	0.080605	-1.270724	1.708612
H	-1.509096	-1.310579	0.905055
C	-0.448118	1.261397	0.728465
H	-0.105002	1.18545	1.76355
H	-1.534352	1.393324	0.723624
H	0.019059	2.153244	0.305759
H	2.801253	0.0	0.0
