18

C	-0.483046	0.011394	-1.431289
C	0.0	0.0	0.0
F	-0.076261	1.131468	-2.08889
H	1.096965	0.0	0.0
N	0.081109	-1.177038	-2.223866
O	1.015308	-0.962343	-2.973323
O	-0.466775	-2.255358	-2.012145
C	-1.952897	-0.070943	-1.551673
N	-3.126325	-0.067677	-1.594746
C	-0.458041	-1.227092	0.776082
H	-0.026661	-2.143549	0.373191
H	-1.548775	-1.331662	0.805413
H	-0.092719	-1.121941	1.800604
C	-0.451474	1.287853	0.682724
H	0.041376	1.336594	1.656842
H	-0.135916	2.165687	0.117457
H	-1.536862	1.328132	0.836006
H	2.823523	0.0	0.0
