18

C	-0.39361	-0.016586	-1.450629
C	0.0	0.0	0.0
F	0.070058	-1.128584	-2.084258
H	1.097246	0.0	0.0
N	-1.924338	-0.076472	-1.573191
O	-2.524416	0.991904	-1.46341
O	-2.436859	-1.18639	-1.672578
C	0.034084	1.172293	-2.206551
N	0.363519	2.115385	-2.822908
C	-0.462559	-1.261223	0.714277
H	-0.20367	-2.154666	0.146278
H	0.067885	-1.31426	1.667911
H	-1.539994	-1.270985	0.911929
C	-0.429762	1.26779	0.722111
H	-1.514016	1.339186	0.858174
H	0.050411	1.265987	1.704533
H	-0.08416	2.163423	0.199792
H	2.748307	0.0	0.0
