18

C	-0.471847	-0.013756	-1.426519
C	0.0	0.0	0.0
F	-1.849203	-0.03883	-1.533723
H	1.09463	0.0	0.0
N	-0.023639	1.263076	-2.142982
O	1.095072	1.244254	-2.638557
O	-0.802966	2.208088	-2.111232
C	0.041736	-1.146454	-2.212102
N	0.350658	-2.088411	-2.841692
C	-0.445584	-1.281987	0.695035
H	-0.024844	-1.28468	1.704351
H	-0.051482	-2.165341	0.185155
H	-1.535656	-1.365375	0.765281
C	-0.467655	1.246802	0.739668
H	0.012242	2.145602	0.347397
H	-1.553274	1.381058	0.703279
H	-0.157829	1.152308	1.783791
H	2.806346	0.0	0.0
