18

C	-0.500006	-0.012722	-1.4171
C	0.0	0.0	0.0
F	-1.878694	-0.079176	-1.490173
H	1.094922	0.0	0.0
N	-0.113474	1.284263	-2.130788
O	-0.921221	2.205053	-2.068936
O	0.989469	1.3053	-2.660106
C	0.031902	-1.120574	-2.225737
N	0.379662	-2.062039	-2.835343
C	-0.430659	-1.28356	0.702654
H	-0.090874	-2.168799	0.158692
H	0.05666	-1.308184	1.680574
H	-1.514634	-1.344489	0.842221
C	-0.455689	1.243115	0.753639
H	0.020908	2.143505	0.360437
H	-0.128707	1.140689	1.791693
H	-1.541264	1.379492	0.735736
H	2.803102	0.0	0.0
