18

C	-0.488563	-0.002216	-1.429591
C	0.0	0.0	0.0
F	-0.139412	1.141807	-2.083109
H	1.096874	0.0	0.0
N	0.129921	-1.157831	-2.230831
O	1.048255	-0.889876	-2.985414
O	-0.362711	-2.264276	-2.022994
C	-1.954714	-0.155655	-1.542987
N	-3.129189	-0.208515	-1.578936
C	-0.448188	-1.225592	0.785711
H	-0.037123	-2.145101	0.369141
H	-0.052451	-1.125622	1.800095
H	-1.539173	-1.320065	0.845041
C	-0.456782	1.287271	0.678955
H	-0.135358	2.165432	0.117439
H	0.025734	1.335288	1.65835
H	-1.543844	1.32755	0.821835
H	2.81913	0.0	0.0
