18

C	-0.395845	0.01236	-1.450151
C	0.0	0.0	0.0
F	0.090159	-1.073293	-2.11129
H	1.097704	0.0	0.0
N	-1.925411	-0.079577	-1.572094
O	-2.549761	0.969367	-1.418031
O	-2.411401	-1.197035	-1.714165
C	0.003153	1.22868	-2.177501
N	0.306635	2.197471	-2.767895
C	-0.458616	-1.278522	0.686415
H	0.083969	-1.359059	1.632199
H	-1.534664	-1.288979	0.896941
H	-0.21013	-2.158199	0.090848
C	-0.431083	1.249977	0.751394
H	0.045825	1.222677	1.734867
H	-0.081689	2.157393	0.252579
H	-1.515322	1.319271	0.885461
H	2.749704	0.0	0.0
