18

C	-0.343724	0.001549	-1.46732
C	0.0	0.0	0.0
F	0.23789	-1.043546	-2.113049
H	1.097675	0.0	0.0
N	-1.856554	-0.188208	-1.658194
O	-2.25916	-1.326632	-1.871069
O	-2.556976	0.808275	-1.485633
C	0.009144	1.249018	-2.165017
N	0.290819	2.242945	-2.723826
C	-0.470613	-1.286085	0.663787
H	-1.556629	-1.313294	0.814021
H	-0.175788	-2.160683	0.08174
H	0.017596	-1.359693	1.638871
C	-0.471792	1.24299	0.734934
H	-0.058723	1.20862	1.746539
H	-1.562348	1.309467	0.801908
H	-0.093599	2.153689	0.26435
H	2.763467	0.0	0.0
