15

C	-0.476399	-0.020542	-1.43327
C	0.0	0.0	0.0
Br	0.211645	1.44942	-2.493662
H	1.098913	0.0	0.0
H	-0.169998	-0.947271	-1.907912
N	-1.981814	-0.00317	-1.510463
O	-2.575399	1.043732	-1.255961
O	-2.525277	-1.081491	-1.749045
N	-0.444811	-1.255275	0.602862
H	-1.24948	-1.058965	1.188316
H	0.312978	-1.562511	1.201628
N	-0.448508	1.181057	0.755808
H	0.400895	1.583442	1.13302
H	-0.858742	1.880069	0.147098
F	2.622741	0.0	0.0
