15

C	-0.395671	0.056464	-1.462421
C	0.0	0.0	0.0
Br	-0.125079	1.79297	-2.29547
H	1.101243	0.0	0.0
H	0.184734	-0.66217	-2.03302
N	-1.83639	-0.309698	-1.692755
O	-2.680526	0.231675	-0.978478
O	-2.082598	-1.136181	-2.568084
N	-0.437903	-1.33897	0.421447
H	-1.207314	-1.222643	1.071753
H	0.338832	-1.724756	0.945699
N	-0.469077	1.065424	0.861723
H	-1.326369	1.482455	0.52295
H	0.25515	1.770674	0.906297
F	2.631027	0.0	0.0
