15

C	-0.382062	0.035239	-1.456569
C	0.0	0.0	0.0
Br	-2.318913	0.323114	-1.78746
H	1.094772	0.0	0.0
H	0.126471	0.849333	-1.96663
N	0.026244	-1.213017	-2.192097
O	-0.697044	-2.19969	-2.164099
O	1.115319	-1.13316	-2.756118
N	-0.50553	-1.187414	0.646193
H	0.110686	-1.368604	1.429916
H	-1.433264	-1.008939	1.017156
N	-0.342316	1.25768	0.666439
H	0.463198	1.867593	0.597217
H	-1.150151	1.710476	0.255671
F	2.593336	0.0	0.0
