15

C	-0.422489	-0.005227	-1.448082
C	0.0	0.0	0.0
Br	-0.231686	1.690039	-2.365323
H	1.095206	0.0	0.0
H	0.169011	-0.732106	-1.997093
N	-1.855196	-0.433872	-1.637185
O	-2.674569	-0.076551	-0.791042
O	-2.120439	-1.119798	-2.621464
N	-0.36118	-1.345772	0.480758
H	0.400734	-1.656342	1.072383
H	-1.215255	-1.313781	1.026571
N	-0.466421	1.139421	0.750631
H	-1.40953	1.009457	1.09499
H	0.171904	1.288848	1.520178
F	2.628382	0.0	0.0
