16

C	-0.537893	-0.039321	-1.415122
C	0.0	0.0	0.0
Cl	0.564878	-0.764716	-2.604229
H	1.089983	0.0	0.0
H	-1.46958	-0.593239	-1.472222
N	-0.88544	1.361697	-1.860353
O	-0.020329	2.071725	-2.3565
O	-2.044829	1.705814	-1.624774
N	-0.406369	-1.200485	0.679065
O	-0.671283	-2.212693	-0.002745
O	-0.321979	-1.218462	1.921176
C	-0.300175	1.241315	0.815738
H	-1.367807	1.394565	0.995002
H	0.119736	2.110731	0.30719
H	0.223181	1.134317	1.764031
H	2.411898	0.0	0.0
