16

C	-0.525854	0.077885	-1.402265
C	0.0	0.0	0.0
Cl	-2.31213	0.042821	-1.499237
H	1.092698	0.0	0.0
H	-0.207394	1.027975	-1.826368
N	0.057756	-0.939744	-2.371144
O	1.213854	-0.680517	-2.686794
O	-0.616885	-1.870262	-2.781472
N	-0.38066	-1.232832	0.660528
O	-0.317617	-2.274634	-0.011366
O	-0.612678	-1.203247	1.880331
C	-0.371041	1.222277	0.810729
H	-0.066778	2.116008	0.258675
H	0.193801	1.199922	1.742628
H	-1.437553	1.273944	1.03745
H	2.490784	0.0	0.0
