16

C	-0.543148	-0.08877	-1.412336
C	0.0	0.0	0.0
Cl	0.534446	-0.923047	-2.544795
H	1.089995	0.0	0.0
H	-1.502122	-0.59859	-1.455998
N	-0.820725	1.305793	-1.925126
O	-1.969459	1.705742	-1.731035
O	0.082021	1.96143	-2.426414
N	-0.418292	-1.170412	0.727388
O	-0.756356	-2.185738	0.083846
O	-0.279007	-1.164722	1.964092
C	-0.300415	1.274606	0.765099
H	0.138856	2.122904	0.234603
H	-1.369761	1.440927	0.915089
H	0.198724	1.19677	1.729503
H	2.429705	0.0	0.0
