16

C	-0.539064	0.033029	-1.415467
C	0.0	0.0	0.0
Cl	0.561689	-0.636099	-2.635169
H	1.089998	0.0	0.0
H	-1.474038	-0.512501	-1.501681
N	-0.881124	1.455405	-1.789662
O	-2.042545	1.786553	-1.548521
O	-0.008389	2.189792	-2.235371
N	-0.420928	-1.227869	0.619995
O	-0.706684	-2.19977	-0.111042
O	-0.342667	-1.307823	1.859405
C	-0.29161	1.20285	0.875066
H	0.128805	2.09362	0.404321
H	0.236845	1.051862	1.814978
H	-1.357159	1.350327	1.068318
H	2.41578	0.0	0.0
