16

C	-0.540817	-0.071468	-1.412554
C	0.0	0.0	0.0
Cl	0.559821	-0.82928	-2.583034
H	1.09002	0.0	0.0
H	-1.474409	-0.622738	-1.45824
N	-0.881468	1.318394	-1.891132
O	-0.008811	2.017795	-2.387359
O	-2.043904	1.666543	-1.679542
N	-0.407643	-1.18614	0.706468
O	-0.69391	-2.206187	0.044423
O	-0.306331	-1.183532	1.947644
C	-0.29899	1.260675	0.78598
H	0.223014	1.17711	1.738065
H	-1.366516	1.419208	0.961146
H	0.123055	2.1174	0.256521
H	2.41657	0.0	0.0
