14

C	-0.218117	0.006281	-1.490921
C	0.0	0.0	0.0
Br	-2.25358	-0.912551	-1.816838
H	1.097248	0.0	0.0
H	-0.321304	-0.946819	0.434293
N	-0.166296	1.254779	-2.050315
H	-0.210628	1.228615	-3.05716
H	-0.752601	1.953625	-1.622823
N	0.64434	-0.881522	-2.199758
H	1.58603	-0.66787	-1.820311
H	0.425533	-1.83129	-1.924611
C	-0.581765	1.121717	0.701473
N	-1.038774	2.057896	1.246025
H	2.676861	0.0	0.0
