14

C	-0.358025	0.071336	-1.485998
C	0.0	0.0	0.0
Br	-0.029792	-1.802542	-2.248828
H	1.092027	0.0	0.0
H	-0.297118	0.968225	0.423524
N	-1.697714	0.482737	-1.719063
H	-2.341903	-0.134684	-1.23915
H	-1.885905	0.453478	-2.71435
N	0.533489	0.929925	-2.21142
H	0.331007	1.876106	-1.899806
H	1.485968	0.707823	-1.902278
C	-0.634429	-1.055075	0.761734
N	-1.160893	-1.888633	1.403121
H	2.77895	0.0	0.0
