12

C	0.0	0.0	0.0
C	-0.238702	0.126762	-1.513232
F	1.35776	0.0	0.0
H	0.428319	0.948529	-1.794999
H	-0.417918	0.766858	0.642041
H	0.204495	-0.779729	-1.93412
N	-0.383862	-1.328756	0.588724
O	-0.389221	-2.301482	-0.158738
O	-0.505912	-1.350766	1.808643
C	-1.487396	0.373728	-2.236438
N	-2.132631	0.619647	-3.191501
Br	-3.261446	0.0	0.0
