12

C	0.0	0.0	0.0
C	-0.239731	0.139963	-1.509468
F	1.35721	0.0	0.0
H	0.35897	-0.66803	-1.939098
H	-0.425026	0.755708	0.651659
H	0.281922	1.069806	-1.759612
N	-0.368763	-1.345517	0.564872
O	-0.465002	-1.398597	1.786337
O	-0.389431	-2.297542	-0.208959
C	-1.497715	0.152601	-2.254735
N	-2.168062	0.209239	-3.221911
Br	-3.297068	0.0	0.0
