13
Coordinates from ORCA-job run
  C   0.68441467582641     -0.42665228876727      0.05054686462259
  C   -0.53630542287643      0.13098542191165      0.06685186944996
  C   1.09759500355821     -1.52966125511850      0.83751054470891
  N   1.49319831693369     -2.44055645446679      1.47300090728315
  N   1.73793003286764      0.15293741191981     -0.82678187256685
  O   2.85169757535653      0.22158471643980     -0.32499453619838
  O   1.38975061172702      0.49279269538881     -1.94961467780744
  N   -1.62080507584191     -0.32689458117261      0.94467772807596
  O   -2.36389762444015      0.56170451830680      1.34759675054145
  O   -1.66896449136930     -1.52502835351505      1.19225525668326
  N   -0.91734516648779      1.28761645884056     -0.74393772904489
  O   -1.82021410537208      1.06491835603407     -1.54083609146683
  O   -0.32605432988184      2.33625335419869     -0.52627501428086
