13
Coordinates from ORCA-job run
  C   0.79861094118821     -0.08652660439428      0.08171765818457
  C   -0.50448241843904      0.23197940531487      0.04125513674949
  C   1.78202792061927      0.55880476959229      0.87123537052340
  N   2.64095925361260      1.06658759838949      1.49928574941106
  N   1.29303663274481     -1.23376227306795     -0.72747019264259
  O   2.09800591651996     -1.95993367487339     -0.16044563251205
  O   0.85429502675764     -1.33047899807698     -1.86568849512614
  N   -1.10004686709271      1.30100639839602      0.85316706405481
  O   -2.24721800060988      1.08119849156397      1.22717490329063
  O   -0.40288969498777      2.28077349630311      1.08274662232355
  N   -1.49189637913562     -0.47664507090916     -0.77300415288871
  O   -1.68149517890033     -1.65693092490648     -0.51300626501470
  O   -2.03790715227712      0.22192738666847     -1.61796776635333
