13
Coordinates from ORCA-job run
  C   0.70067122346216     -0.36844185493041      0.15842236004005
  C   -0.53961107689523      0.13144525561103      0.04341266289508
  C   1.06052626235157     -1.52135542266609      0.89865191026835
  N   1.42169807159374     -2.46588486503413      1.50490357230277
  N   1.82074265838597      0.29064773838413     -0.56709817383879
  O   1.83807171268104      1.51413363794534     -0.55184685318278
  O   2.61384481025261     -0.47264075220318     -1.10109149566388
  N   -0.87226589261877      1.31444295528249     -0.75039411297811
  O   -0.67790446999181      1.24620210436974     -1.95625090582143
  O   -1.33827894009023      2.24006759495026     -0.09768085700091
  N   -1.71895504822047     -0.48543186495128      0.66387431869003
  O   -1.55442276552910     -1.04483780009683      1.74033555846165
  O   -2.75411654538149     -0.37834672666107      0.01476201582802
