13
Coordinates from ORCA-job run
  C   0.79782821689174     -0.07980953525774      0.09896560736462
  C   -0.50670232037916      0.22796419564343      0.02868231835089
  C   1.75662290207628      0.57366584933721      0.91165236015997
  N   2.59461566810995      1.07865496388232      1.56954551661302
  N   1.32009172577022     -1.22208409329896     -0.69950857662184
  O   2.12583337320959     -1.93647161540830     -0.11867592164456
  O   0.90045985791266     -1.32723201581818     -1.84424010611216
  N   -1.47120314977253     -0.48763852205893     -0.80646469379336
  O   -1.66279680844372     -1.66755460560660     -0.54662556015895
  O   -1.99936115867938      0.20612888804975     -1.66659846122653
  N   -1.12857915070925      1.29249624647485      0.82689998592909
  O   -2.28227417424846      1.06403059320720      1.17479411580053
  O   -0.44453498173793      2.27784965085395      1.07157341533931
