13
Coordinates from ORCA-job run
  C   0.78393808774944     -0.11456129993514      0.15685475758089
  C   -0.49150916830460      0.25910608772555     -0.02983136806266
  C   1.73942410017164      0.57764886614487      0.94095930497668
  N   2.57441100945794      1.11772659911763      1.57436931276277
  N   1.27125686924745     -1.37659196043629     -0.46321338314791
  O   0.91208582695956     -1.59644885814018     -1.61222037188492
  O   1.99108508099808     -2.06161479552615      0.25059168572978
  N   -1.45532099409061     -0.49719034490618     -0.82959985652478
  O   -1.73322055895674     -1.62431441219378     -0.44378797299294
  O   -1.89446534162524      0.11542970472644     -1.79491546340235
  N   -1.08272978146382      1.44993094661836      0.59401389963390
  O   -0.35070213268636      2.41810002623033      0.75312753403383
  O   -2.26425299745671      1.33277944057454      0.90165192129771
