13
Coordinates from ORCA-job run
  C   0.80181022858404     -0.04147436701253      0.08830923753457
  C   -0.51686375431244      0.20305398605410      0.03559217073473
  C   1.73978113903802      0.66345616680492      0.88208511035596
  N   2.56719589841269      1.22012668164581      1.51104581678970
  N   1.36618028375188     -1.16331638167935     -0.71010400601378
  O   2.20999334184150     -1.83714987338862     -0.13499444618684
  O   0.93857900709379     -1.29363258948699     -1.84931340715161
  N   -1.45801745518132     -0.56293583663762     -0.78147594199954
  O   -2.03400377448621      0.10009747141208     -1.63508129339488
  O   -1.58596200075188     -1.75000773923737     -0.51505808578345
  N   -1.17721786925102      1.24161980878381      0.83709872890195
  O   -0.53876298200360      2.26093996271757      1.06496580422956
  O   -2.31271206273546      0.95922271002418      1.20493031198364
