13
Coordinates from ORCA-job run
  C   0.80101948974786     -0.06872505045224      0.07790828506924
  C   -0.50937292798477      0.21980657110995      0.04700782645382
  C   1.77120650793931      0.58360739899230      0.87773672755828
  N   2.61748512427924      1.09331119475104      1.52123138018967
  N   1.31891765587288     -1.18747631686628     -0.75579915979773
  O   2.14039167859272     -1.90781812706152     -0.20513218812563
  O   0.88095919846171     -1.26957438169492     -1.89550053206208
  N   -1.48237311108428     -0.49575230911215     -0.77853390078873
  O   -1.64292506055812     -1.68518718975137     -0.54174989393432
  O   -2.04728401277589      0.20629224932453     -1.60802082885401
  N   -1.12735146592285      1.25837469192669      0.88117584598536
  O   -2.26780402919877      1.00426581506269      1.25406029556048
  O   -0.45286904736905      2.24987545377127      1.12761614274565
