13
Coordinates from ORCA-job run
  C   0.80163702630722     -0.05427201526496      0.07961711195632
  C   -0.51306182099056      0.21268061832317      0.03949195805867
  C   1.75911017460612      0.63599216819953      0.86295533669201
  N   2.59862544541139      1.17026820067939      1.49527945571830
  N   1.33922250487538     -1.18684090541952     -0.72225047790788
  O   0.89855672308238     -1.31176606136288     -1.85705591307350
  O   2.17722441506255     -1.87385569838287     -0.15421190306204
  N   -1.47523405347623     -0.53982592351928     -0.76536687886948
  O   -1.61936119694995     -1.72405033169702     -0.49435672100502
  O   -2.04936668869570      0.13006521995600     -1.61486031212302
  N   -1.14714173829971      1.26510191786376      0.84390348712291
  O   -2.28321526941405      1.00325473592880      1.22491510580816
  O   -0.48899552151884      2.27424807469586      1.06093975068459
