13
Coordinates from ORCA-job run
  C   0.78668089203610     -0.08664784672772      0.16156371821471
  C   -0.50013765152687      0.24204283224320     -0.03229033346193
  C   1.71173446698970      0.63653294206861      0.95399625588563
  N   2.52273617096482      1.19602514465227      1.60157696846186
  N   1.32196893005499     -1.32853907073150     -0.45945583590877
  O   0.97779830969245     -1.55678881216734     -1.61145924316066
  O   2.06106587192404     -1.99046167501275      0.25648339875141
  N   -1.13715849005213      1.40967307624680      0.59031818099322
  O   -0.43929963940786      2.40116520360673      0.75999248564705
  O   -2.31692205422046      1.25218019763629      0.88631745645165
  N   -1.43135945701708     -0.54543164075074     -0.84030255358084
  O   -1.88534301828444      0.05413452776417     -1.80696016847599
  O   -1.67176433115324     -1.68288487882806     -0.45978032981732
