13
Coordinates from ORCA-job run
  C   0.67617549481714     -0.43527967502460     -0.07439210671665
  C   -0.52654692383523      0.12361572773024      0.13169364742776
  C   1.12750472543039     -1.65240069963893      0.49278686516884
  N   1.55951786828679     -2.65407736305430      0.94011917886742
  N   1.66655737385240      0.26589526066609     -0.93600226285221
  O   1.23574861033275      0.77559595491122     -1.96174737687078
  O   2.81781378641590      0.25079590574844     -0.52219724119152
  N   -1.54469651978579     -0.45743231294660      1.01636278525828
  O   -1.59887536296772     -1.67888429016810      1.07773605514610
  O   -2.23163741218252      0.36380829451545      1.61471732137778
  N   -0.94726515540703      1.39618839503169     -0.45447109218000
  O   -0.31474907882641      2.39222399167123     -0.13145811786063
  O   -1.91954740613069      1.30895081055815     -1.19414765557439
