13
Coordinates from ORCA-job run
  C   0.74869342973216     -0.29875777394768      0.06202074955207
  C   -0.53440034592879      0.09019728237603      0.12249584208709
  C   1.32417813839053     -1.36233899590034      0.79976547338104
  N   1.84638369967003     -2.22622741062033      1.40888260694106
  N   1.67537059292689      0.39388412573955     -0.87417456158898
  O   1.58355453180865      1.61256671458418     -0.93486717507642
  O   2.44119547294136     -0.34044514387618     -1.48356248324570
  N   -1.54067762322549     -0.57239059668558      0.96195907566647
  O   -2.66841639301305     -0.60301105179577      0.48065421761151
  O   -1.16080859785945     -1.03017595245800      2.03190234202683
  N   -1.09411275972456      1.18188690325007     -0.67466237173165
  O   -1.08508856916670      1.04263483730141     -1.89002775902264
  O   -1.53587157655158      2.11117706203265     -0.01038595660069
