13
Coordinates from ORCA-job run
  C   0.80532630936583      0.04522040586677     -0.04361732488366
  C   -0.52408887091162      0.15538569784730      0.10427885691980
  C   1.77256098839138      0.90632583026730      0.53062396907919
  N   2.62061551675856      1.58575141302278      0.98802891183072
  N   1.35779025770565     -1.08402814370153     -0.83984001742402
  O   2.35005466385239     -1.61856560975405     -0.36367224806825
  O   0.77476505305667     -1.35726072894546     -1.88051426629848
  N   -1.16103353239094      1.19361891279681      0.92421530733688
  O   -0.61298250576248      2.28762771867728      0.96349197998159
  O   -2.18466366674287      0.83636652026051      1.49781010301893
  N   -1.49083937484758     -0.77006085512432     -0.48660377524914
  O   -2.26352858540094     -0.24669463102291     -1.27978940707234
  O   -1.44297625307408     -1.93468653019046     -0.11541208917120
