13
Coordinates from ORCA-job run
  C   0.80119224878719     -0.04521110783928      0.09211325460563
  C   -0.52612786383982      0.15360604150024      0.09585177418261
  C   1.75118855183037      0.71844414774248      0.81402738233405
  N   2.58560368540609      1.31097444754699      1.39946966087328
  N   1.37290995138833     -1.12513790004104     -0.75742069668235
  O   2.40115396866361     -0.82928759079765     -1.35083257297587
  O   0.76764841908178     -2.18855970679519     -0.77228400636634
  N   -1.47415430768786     -0.64422230757968     -0.68194650042569
  O   -2.29094370524842     -1.25377679726628     -0.00289830462262
  O   -1.36924402035186     -0.59815889424704     -1.89995348337529
  N   -1.17810201891472      1.23438628742956      0.84675036179622
  O   -0.67071015003174      1.55727703718178      1.91311109050510
  O   -2.17041475908294      1.70866634316512      0.30401204015125
