13
Coordinates from ORCA-job run
  C   0.80676528987897      0.04259722342818     -0.01543087526024
  C   -0.52299516618196      0.10758613412369      0.15528640833464
  C   1.75045755366047      0.96105240416181      0.50663872023555
  N   2.57607284069498      1.69542974158000      0.91786517274888
  N   1.38117544973515     -1.04900541183973     -0.84773276742040
  O   0.89898118985202     -2.16373687146540     -0.69787766452598
  O   2.28786987895064     -0.70941096600996     -1.59587819232198
  N   -1.46887306454649     -0.84781733666836     -0.42107083790132
  O   -2.11992577771536     -1.46976378984666      0.40927552069892
  O   -1.52659612054586     -0.90433331991045     -1.64169981552562
  N   -1.18832479560992      1.18261460731291      0.90260513446193
  O   -2.28685295007696      1.50679375373751      0.46387172202680
  O   -0.58875432809569      1.64799383139648      1.86314747444882
