13
Coordinates from ORCA-job run
  C   0.80387695513210     -0.02975923295721      0.07255921768150
  C   -0.51897594643437      0.19548393628713      0.04678815970397
  C   1.74533584066335      0.67775915606127      0.85981646243857
  N   2.57309533236045      1.22620036887244      1.49554976060990
  N   1.37055183577865     -1.13144125773794     -0.75212919825452
  O   2.23366161265702     -1.80125342395434     -0.20145616800182
  O   0.92573517059103     -1.25096629507603     -1.88585865935492
  N   -1.46302526485668     -0.57432866545244     -0.76329610251123
  O   -2.06492007691150      0.09092560174159     -1.59708370193753
  O   -1.56720454682693     -1.76682971653320     -0.51118963526847
  N   -1.17986586674315      1.21346603266477      0.87368993552555
  O   -2.30407348843321      0.90954646088531      1.25857138415929
  O   -0.55219155697675      2.23919703519864      1.10303854520970
