13
Coordinates from ORCA-job run
  C   0.78884417528288     -0.08550098253668      0.15102186981878
  C   -0.50096823058281      0.24130906983668     -0.02487715867470
  C   1.72357036422572      0.63729794812492      0.93234843108920
  N   2.54497987910495      1.19635118628149      1.56705593991946
  N   1.31769009659588     -1.32545709996723     -0.47961855342287
  O   0.96125194622903     -1.55005531341727     -1.62854694323563
  O   2.06444404763217     -1.98933285689770      0.22639488153308
  N   -1.13174871961162      1.40597214881966      0.60955452427652
  O   -2.30744589013895      1.24574475009929      0.91996048060660
  O   -0.43322682449319      2.39780122087627      0.77411635353414
  N   -1.44112462785447     -0.54579834746519     -0.82268093983141
  O   -1.67384844063234     -1.68500225417979     -0.44239502386513
  O   -1.90941777575724      0.05567053042557     -1.78133386174802
