13
Coordinates from ORCA-job run
  C   0.80332203883269     -0.01217556099583      0.08204409727695
  C   -0.52335504526041      0.18594247173884      0.03837126111318
  C   1.72314311223753      0.73104964701501      0.86194414479271
  N   2.53506693149808      1.31746129595920      1.48402576566199
  N   1.39973895645420     -1.12035763998268     -0.71238805743051
  O   0.97078040498047     -1.27206618404788     -1.84835601952691
  O   2.26820266490470     -1.76229330523449     -0.13744142448896
  N   -1.44324151297430     -0.62001239786481     -0.76441221296779
  O   -2.05059044464400      0.01487117243082     -1.61770348987380
  O   -1.52521070253449     -1.80895838797590     -0.48827166279120
  N   -1.21320511095757      1.20766019656526      0.83655078642354
  O   -2.33522630522607      0.88950967274544      1.21617015111167
  O   -0.60842498731084      2.25036901964703      1.05046666069915
