13
Coordinates from ORCA-job run
  C   0.78163290218344     -0.11408434568271      0.16981520564160
  C   -0.51869876474551      0.19514896600934      0.04830202541399
  C   1.71387692610232      0.55252385374862      1.00237259357564
  N   2.53030135017410      1.06611041490130      1.68042943932170
  N   1.34511572897144     -1.22138728144335     -0.64942793496282
  O   2.44507994850210     -0.99875464924793     -1.13659479658720
  O   0.66243191941584     -2.23226344825051     -0.74721843253828
  N   -1.44526764576643     -0.50589783134962     -0.84050422948469
  O   -2.37426409314726     -1.05577739016521     -0.26214843751512
  O   -1.21369174969675     -0.44835610783120     -2.04041785565009
  N   -1.15265530585309      1.31223923182243      0.76061420586906
  O   -2.04396630537739      1.87762722403498      0.13599872747258
  O   -0.72989491076279      1.57187136345385      1.87977948944361
