13
Coordinates from ORCA-job run
  C   0.70918017913745     -0.38169319819207      0.06254492310010
  C   -0.52642589237209      0.13998250980455      0.11479922906969
  C   1.14120026761588     -1.54932834000030      0.73838273834754
  N   1.55827355206172     -2.50911991439273      1.28153614112327
  N   1.73709867926011      0.26759304788508     -0.79574705793065
  O   1.77223765322225      1.49072548040350     -0.77805892946900
  O   2.44694654804546     -0.50228569159623     -1.42851144461146
  N   -0.93838578507525      1.33745071258919     -0.61767031090343
  O   -0.91165387768462      1.27668639465199     -1.83922267437391
  O   -1.29165959637887      2.26578351623544      0.09871814586586
  N   -1.62666716282387     -0.46428006746435      0.87733067547379
  O   -2.73583970134547     -0.32730313275608      0.37209959336819
  O   -1.33330486366269     -1.04421131716800      1.91479897094002
