13
Coordinates from ORCA-job run
  C   0.71912244878754     -0.35444043008083      0.09901084786356
  C   -0.53090675609130      0.13431632156846      0.09871051915339
  C   1.17482912972079     -1.45335454702818      0.86801355610737
  N   1.60597299216872     -2.36238596984957      1.48271255967956
  N   1.73892145785666      0.25506315512384     -0.79747675853102
  O   1.74198016445788      1.47649272836917     -0.87264042533998
  O   2.47517501742251     -0.54136902157746     -1.36363948586683
  N   -0.96855523015257      1.25801344861364     -0.72930684805848
  O   -1.36285851296756      2.22599680158635     -0.09086249133097
  O   -0.92017593236231      1.10570452350972     -1.94214670697206
  N   -1.62165940613869     -0.44024198262055      0.89677026525417
  O   -2.72697918406545     -0.38477942183736      0.36813642232162
  O   -1.32486618863623     -0.91901560577723      1.98371854571969
