13
Coordinates from ORCA-job run
  C   0.71468605355026     -0.37538540850421      0.02743109199878
  C   -0.52066176979962      0.13664207654115      0.14106113262644
  C   1.19147706789704     -1.53460219737253      0.68754183427685
  N   1.64039692520126     -2.48613935361526      1.21960429697611
  N   1.69088888439736      0.27552832649276     -0.88827047479257
  O   2.36959999532653     -0.49356908921799     -1.55519477396382
  O   1.71992187622389      1.49885982815017     -0.87788266874147
  N   -0.98064028996822      1.32500378264950     -0.57749592377397
  O   -1.30933453905484      2.25390316754237      0.14981242849353
  O   -1.01200288652655      1.25707053899969     -1.79858375345253
  N   -1.57381247120534     -0.47076351933548      0.96483525410726
  O   -1.22238314458849     -1.03305425320415      1.99387802564276
  O   -2.70813570145325     -0.35349389912602      0.51326353060265
