13
Coordinates from ORCA-job run
  C   0.77349100788704     -0.10678607230822      0.09250537462464
  C   -0.53304258299560      0.18161664359898      0.00602522040490
  C   1.68379354064025      0.70598876023625      0.81409859124979
  N   2.45225375065886      1.37136440101631      1.41214494945460
  N   1.38236742840628     -1.29724305303843     -0.55314098787909
  O   1.44319817317927     -2.29575934065789      0.14672121880472
  O   1.80954055517376     -1.11801356301977     -1.68256315502170
  N   -1.53559642480315     -0.61470182067190     -0.70925841727151
  O   -1.12500256364365     -1.61277195638538     -1.28713110356743
  O   -2.68499425336621     -0.19139028467965     -0.65704259682751
  N   -1.08656996720328      1.37200051945605      0.65192973801346
  O   -1.43412840291137      1.23227812469246      1.81894381844763
  O   -1.14531026102220      2.37341764176120     -0.05223265043251
