13
Coordinates from ORCA-job run
  C   0.79941523747723     -0.05270171761599      0.10034073717724
  C   -0.52671749470392      0.15368777261929      0.09478506369764
  C   1.74580559927636      0.68213245418979      0.85598274371953
  N   2.57740602353460      1.25290942318016      1.46649518398896
  N   1.37468123566956     -1.10989576286995     -0.77520742917442
  O   0.76542348072110     -2.16989569238573     -0.82639927178823
  O   2.40948839962630     -0.80123643254530     -1.35036558900582
  N   -1.46954667006220     -0.61426058438317     -0.71828150189737
  O   -1.34795161582595     -0.53484523040600     -1.93298183660496
  O   -2.29961250777024     -1.23689418166833     -0.06758562448378
  N   -1.18082187334173      1.21527553270716      0.87076849792048
  O   -2.16366333850143      1.71242847379505      0.33126240198242
  O   -0.68390647609967      1.50229594538302      1.95218662446830
