13
Coordinates from ORCA-job run
  C   0.79939271020769     -0.05008747910962      0.10817812678292
  C   -0.52794091549500      0.14821506195137      0.08879502885884
  C   1.73040410118982      0.69075977656197      0.87731242926892
  N   2.54538715135847      1.28254543416228      1.49022256862588
  N   1.39323399831095     -1.10066143437468     -0.76240691078251
  O   0.78554037302369     -2.16058503857427     -0.83303606935650
  O   2.43948516987642     -0.78830672136197     -1.31431793596892
  N   -1.45873946147655     -0.62026495282400     -0.73764797579356
  O   -2.29150692710261     -1.25096813937722     -0.09833005060976
  O   -1.32631892484087     -0.53271687391606     -1.95059356162751
  N   -1.19663494293976      1.20177484996031      0.86331141383405
  O   -0.72034923397612      1.47799087679074      1.95678839288798
  O   -2.16995309813614      1.70330464011112      0.31072454388016
