13
Coordinates from ORCA-job run
  C   0.79952785838159     -0.07360304581135      0.08897508610260
  C   -0.50802238755335      0.22453235966544      0.03575979725142
  C   1.76278091110557      0.58299245164751      0.89379373695920
  N   2.60353499858478      1.08574044210453      1.54989404904582
  N   1.32073530151424     -1.20759410540625     -0.72171972291854
  O   0.89326208924551     -1.30593857866799     -1.86414435671884
  O   2.13375115273256     -1.92268897476808     -0.15200439288505
  N   -1.47604678605121     -0.49498175360969     -0.79213291242950
  O   -2.02261926567137      0.19937855657741     -1.64018838738466
  O   -1.65159502903682     -1.67885709206553     -0.53893486913963
  N   -1.12864926400319      1.28022666956313      0.84625271278972
  O   -2.27608063284570      1.04080964533475      1.20732307840608
  O   -0.44957894640263      2.26998342543611      1.08712618092137
