13
Coordinates from ORCA-job run
  C   0.71167281563861     -0.37424318423662      0.07841561070393
  C   -0.52281063470039      0.15097026366059      0.11615045041523
  C   1.16674074301667     -1.46803244039539      0.85508216431787
  N   1.60322041811839     -2.36808039934057      1.47918892835423
  N   1.71099222375148      0.18430246045364     -0.87227167554457
  O   2.38966302354105     -0.64706254476738     -1.45972414728613
  O   1.75453646918940      1.40357183652446     -0.96700625997388
  N   -0.95919068031001      1.26915550456997     -0.72015000285112
  O   -1.30960626052357      2.25889770679059     -0.08951245578811
  O   -0.95550598042089      1.09138147524405     -1.93055910701984
  N   -1.59685281032114     -0.37302440962205      0.96931408693405
  O   -1.27155103410806     -0.83173156762303      2.05679165380396
  O   -2.72030829287157     -0.29610470125826      0.48328075393438
