13
Coordinates from ORCA-job run
  C   0.80396881014540     -0.02507581379477      0.07353048013019
  C   -0.51936699499045      0.19651645774435      0.03884943871601
  C   1.74470901155672      0.71839675919601      0.82776822483965
  N   2.57059334928475      1.30058263565460      1.43526936341554
  N   1.37190046300180     -1.16126214599359     -0.70171990105064
  O   2.23674557460785     -1.80444321843655     -0.12267151134786
  O   0.92633391878933     -1.33211053897753     -1.82862943067891
  N   -1.46213268028019     -0.61022302755853     -0.73590130487373
  O   -2.06542590167656      0.01612744570189     -1.59837753316603
  O   -1.56442066305297     -1.79045274872855     -0.43071562043762
  N   -1.18173796418567      1.24860810097355      0.82020350251909
  O   -2.30461267670586      0.95906945237526      1.21988227762179
  O   -0.55655424649415      2.28526664184389      1.00251201431252
