13
Coordinates from ORCA-job run
  C   0.75965703160617     -0.16614738682804      0.21766662618206
  C   -0.51609373669756      0.20663328880344      0.03095510074439
  C   1.63389629636110      0.35293837297465      1.20408878508668
  N   2.40911212687436      0.75435794514103      1.99655190105569
  N   1.36103075991229     -1.18187195494018     -0.68850294886315
  O   0.65906945391930     -2.14158432490317     -0.97791750285262
  O   2.50755179019074     -0.94626989447199     -1.04484744199105
  N   -1.38093703318232     -0.33660316330390     -1.01624179053616
  O   -1.04455513599816     -0.13433333475353     -2.17486140128265
  O   -2.37198506853038     -0.91932044032498     -0.59375454534785
  N   -1.17730753808469      1.24658971447865      0.82934811317622
  O   -1.99243689735516      1.92468307479387      0.21279264427920
  O   -0.84800204901568      1.34092810333414      2.00472246034921
