13
Coordinates from ORCA-job run
  C   0.77048409407661     -0.10550892136115      0.11850537776836
  C   -0.53314996054910      0.18419113680534     -0.00171465905339
  C   1.66026050636674      0.67279601618088      0.90069019329129
  N   2.41472593377818      1.30254887831597      1.55262608277040
  N   1.40071073843811     -1.26011262566855     -0.57088954581192
  O   1.97683987190035     -0.98762260110958     -1.61214069395142
  O   1.31697766136241     -2.33172901137075      0.00825530707444
  N   -1.50628238855695     -0.60103984858664     -0.76816646035749
  O   -2.68419290012310     -0.34391865153625     -0.54685191596389
  O   -1.04758649614962     -1.43719460976531     -1.53589665931483
  N   -1.11385796883330      1.35097296989343      0.66379271701058
  O   -1.24921507728688      1.28060677759646      1.87974589414609
  O   -1.40671401442345      2.27401049060615     -0.08795563760819
