13
Coordinates from ORCA-job run
  C   0.74694330221936     -0.29244766005854      0.08961021725955
  C   -0.55154419842716      0.04627554420551      0.06735899385033
  C   1.35501357760662     -1.17486513108527      1.01582513274163
  N   1.91620431126365     -1.89168604345941      1.76506675509883
  N   1.67346203234680      0.31653740903600     -0.90341664489254
  O   2.75522583215975      0.67048326861063     -0.45481563044779
  O   1.26714503419255      0.39481618887839     -2.05505318712839
  N   -1.53131832570796     -0.44586625556439      1.04409509212597
  O   -1.36373375872328     -1.57784141929774      1.47927329778219
  O   -2.41732229811006      0.35301672006819      1.32856103119630
  N   -1.13266716474361      0.98053033269574     -0.89664275404781
  O   -1.99590790656366      0.48857183090714     -1.61280450628804
  O   -0.72150043751300      2.13247521506376     -0.87005779725022
