13
Coordinates from ORCA-job run
  C   0.78067321347282     -0.11982722381115      0.16820959122875
  C   -0.51418457524077      0.20984955400769      0.04137814356121
  C   1.73909906245234      0.58483497283731      0.93739904870596
  N   2.58078248603620      1.13486971252359      1.55313238055148
  N   1.30800677826288     -1.29708657570962     -0.57384580190363
  O   2.40748355235782     -1.13805105913935     -1.08647559102218
  O   0.60002708968209     -2.29509947004145     -0.59147683834254
  N   -1.46803205547272     -0.53165645246188     -0.78341657731959
  O   -1.25234728337449     -0.56552072975037     -1.98708626850768
  O   -2.40046456970549     -1.01753049472009     -0.15523285024587
  N   -1.11236161128302      1.38946853913698      0.67959232033776
  O   -1.99940690837693      1.92947940432982      0.02690582099126
  O   -0.66827517881073      1.71826982279851      1.77191662196507
