13
Coordinates from ORCA-job run
  C   0.80780245169052      0.01034617811992     -0.01367874733767
  C   -0.51847418721184      0.12884141189004      0.15499211155978
  C   1.78632449458506      0.89397769878188      0.50456443098902
  N   2.63978503416658      1.60329454082581      0.90272553713933
  N   1.33977349101328     -1.10745613120140     -0.83952816268030
  O   2.25909775963252     -0.80781223529058     -1.58918802249679
  O   0.81464950782838     -2.20174408052270     -0.68318323824759
  N   -1.49994698988587     -0.79166736121222     -0.41895529793376
  O   -1.55782511638919     -0.84978339806374     -1.63961370361643
  O   -2.17566444898505     -1.38544666331792      0.41210371142106
  N   -1.14217255594255      1.23218786090813      0.89671516226967
  O   -0.52465086589496      1.67950226444128      1.85449784056979
  O   -2.22769857460689      1.59575991464151      0.45654837836388
