13
Coordinates from ORCA-job run
  C   0.80597285340291      0.04941158190059     -0.01874768901137
  C   -0.52274022101896      0.09805504218736      0.16413377551177
  C   1.74866260416553      0.94832294576968      0.53793400219758
  N   2.57607019375308      1.66556955417468      0.97501441958069
  N   1.38042091103731     -0.99956565219253     -0.90462794218105
  O   2.27381200652737     -0.61842704322103     -1.64858536680593
  O   0.91117182960941     -2.12455945179639     -0.79683720986476
  N   -1.46568069548717     -0.83771482858964     -0.44855758481354
  O   -1.52997721579870     -0.84058158453887     -1.67021876421666
  O   -2.10748014043889     -1.50057902619693      0.35686702854593
  N   -1.18999229941759      1.13343637682958      0.96380023503348
  O   -0.58517478976881      1.56140650279696      1.93833589914452
  O   -2.29506503656547      1.46722558287652      0.54948919687933
