13
Coordinates from ORCA-job run
  C   0.70066256203276     -0.39966714119796      0.04692297579719
  C   -0.52032826933018      0.15212030455954      0.12411723961726
  C   1.11376373314675     -1.58340244320661      0.70632770105450
  N   1.50972907148170     -2.55628787067146      1.24182117066212
  N   1.73052379760569      0.23055468877044     -0.82295493693623
  O   1.80204427348237      1.45172782730456     -0.79105389029681
  O   2.40520668447892     -0.55182967319353     -1.47858366283701
  N   -0.91476302631088      1.36521314827145     -0.59238683895677
  O   -0.89856590212104      1.31772415658974     -1.81469365409621
  O   -1.24436685264460      2.29233991041813      0.13685237011904
  N   -1.62192046042483     -0.43099590412517      0.90059167939815
  O   -1.32689338537821     -1.01291322974979      1.93652986726872
  O   -2.73409222601844     -0.27558377376932      0.40750997920607
