13
Coordinates from ORCA-job run
  C   0.76662920469034     -0.24555775396567      0.06176104685015
  C   -0.53766803736343      0.06353655338339      0.13009144295083
  C   1.42163805921687     -1.23229153697569      0.83894143792772
  N   2.01642694282683     -2.04190284979495      1.45608969850356
  N   1.63078778230419      0.45677895358279     -0.92556980360976
  O   1.45683191872274      1.66210619551615     -1.04579747991942
  O   2.43421589979726     -0.25560830330711     -1.51191854715703
  N   -1.48233047538340     -0.61896589741002      1.02338001013908
  O   -2.61435437960080     -0.74784148872985      0.56915444410708
  O   -1.05304102704119     -0.99518419804544      2.10640888430863
  N   -1.18231207630852      1.07448033790387     -0.70796791498020
  O   -1.18645112200472      0.87507322222943     -1.91490570685132
  O   -1.67237268985617      2.00537676561311     -0.08066751226931
