13
Coordinates from ORCA-job run
  C   0.79874055720745     -0.05036039503256      0.10773575874446
  C   -0.52784342861970      0.15289112981207      0.08959103962393
  C   1.73739059368444      0.70243705520420      0.85541577813528
  N   2.56498268464813      1.30340772497530      1.44195357724602
  N   1.38244502647607     -1.12304051502296     -0.74259572867806
  O   2.42217680564446     -0.82543925039729     -1.31455088700772
  O   0.77399718760381     -2.18433546341705     -0.77857563818057
  N   -1.46304461472742     -0.63037717777706     -0.71745622500748
  O   -1.33167372633173     -0.57118961587855     -1.93237191661552
  O   -2.29747023631830     -1.24340592942807     -0.06330825762262
  N   -1.18950526106662      1.22595464762197      0.84315437268041
  O   -0.70096527514695      1.53110908727657      1.92345224517443
  O   -2.16923031305369      1.71234870206344      0.28855588150745
