13
Coordinates from ORCA-job run
  C   0.80124309824914     -0.05095122873815      0.08686258313280
  C   -0.51259963061334      0.21587639210033      0.02524250702481
  C   1.75738809992090      0.67963045115901      0.83439059236908
  N   2.59572282027708      1.24641230736943      1.43940683747891
  N   1.33959495243947     -1.22836634266200     -0.64740432038740
  O   0.90537194066285     -1.41461612407662     -1.77627315159206
  O   2.17141598494133     -1.88553502710730     -0.03666374182597
  N   -1.47213460818404     -0.57934794287636     -0.74083693476993
  O   -1.62033781852982     -1.74583256612742     -0.40299467463485
  O   -2.04042751497864      0.04166634316347     -1.63033214339008
  N   -1.14871238049453      1.31335550077463      0.76578051682313
  O   -0.48768490987623      2.33017136786039      0.93243511097127
  O   -2.28884003381413      1.07753686916056      1.15138681880028
