13
Coordinates from ORCA-job run
  C   0.79530744874069     -0.07812639327766      0.11845602224735
  C   -0.52428662310041      0.16502704439603      0.08703385806138
  C   1.74264907505697      0.61536190096238      0.91112475306203
  N   2.57412150429387      1.16710679620473      1.53905946921955
  N   1.36200654575374     -1.13264593872749     -0.76558773076633
  O   2.41962545880322     -0.84233919819238     -1.30800070495238
  O   0.72413660361196     -2.17312548249016     -0.85540857470775
  N   -1.46766021894031     -0.55832493553897     -0.76543421195323
  O   -2.32843135846458     -1.17398733275541     -0.14890291882138
  O   -1.31606111108877     -0.45323884108464     -1.97479295238843
  N   -1.16790588065811      1.22659468709432      0.87167590318541
  O   -2.12384990222055      1.76239804102123      0.32095062149087
  O   -0.68965154178772      1.47529965238805      1.97082646632293
