13
Coordinates from ORCA-job run
  C   0.81426906304239     -0.03420161064909      0.01438812693861
  C   -0.51766427622977      0.12959016443121      0.05216436609126
  C   1.70580524977316      0.80425618114811      0.73339080214928
  N   2.43192770158398      1.51972640699308      1.32462899478225
  N   1.43494103876724     -1.12944826992075     -0.77155608403849
  O   0.69133713295581     -1.76785700752902     -1.50468442586768
  O   2.63681633760293     -1.28927730245042     -0.59947664777969
  N   -1.52332327984295     -0.67975716975621     -0.63744715741119
  O   -1.94552603152836     -1.62861577022086      0.01224215001325
  O   -1.86957388096060     -0.28330349856404     -1.74012126947919
  N   -1.13188286493178      1.19696563451821      0.85053406305157
  O   -0.99956818583448      1.11456030307293      2.06615717250221
  O   -1.72755800439757      2.04836193892683      0.19977990904783
