13
Coordinates from ORCA-job run
  C   0.80764596289496      0.01819338119119     -0.00765530687018
  C   -0.52079600459853      0.11773602677887      0.15628486496980
  C   1.77509185004935      0.88570572057306      0.55639880814833
  N   2.62102233150547      1.57799346708602      0.99822567187208
  N   1.35475956950320     -1.05769217590398     -0.87811370810592
  O   2.27608753215054     -0.71726682005054     -1.60770328877832
  O   0.83839832144753     -2.16225399293293     -0.77373238109497
  N   -1.49050358215372     -0.78511175891231     -0.46366491597191
  O   -1.54001035291365     -0.79224720534461     -1.68594376981479
  O   -2.16681689546468     -1.41871460576020      0.33713407301517
  N   -1.15905603941102      1.18292571083446      0.94037170086373
  O   -2.24435294072136      1.55647581271701      0.50801865157465
  O   -0.55246975228809      1.59325643972397      1.92137960019230
