13
Coordinates from ORCA-job run
  C   0.77261826426215     -0.12633385292632      0.19805685059009
  C   -0.51331560957587      0.21457426662217      0.02046815560576
  C   1.70786255227658      0.57401337419504      0.99905777510528
  N   2.53163770676467      1.12037990959951      1.64169246142201
  N   1.31643911257618     -1.31327344912999     -0.51636069380428
  O   0.59915369247077     -2.30398571069084     -0.55639257628521
  O   2.43689732303368     -1.16879186545349     -0.98593544259847
  N   -1.44293509813334     -0.52206304199444     -0.83586464911032
  O   -2.40336783151015     -0.99492072106222     -0.24082566110252
  O   -1.18223151657604     -0.56512760890844     -2.03028708395668
  N   -1.12377366993755      1.40367387921615      0.62901164844968
  O   -1.97838065948048      1.95009233612741     -0.06037603269516
  O   -0.71960426617057      1.73276248440545      1.73675524837980
