13
Coordinates from ORCA-job run
  C   0.72634427284932     -0.33620454162658      0.10808708419770
  C   -0.55387863521664      0.05456745854941      0.00917351648923
  C   1.19715012650564     -1.42964083714432      0.87586239491457
  N   1.64798620963161     -2.32039811675965      1.50307838792093
  N   1.78061003457810      0.43726514292325     -0.60282003267486
  O   2.80968592408303      0.61896536766126      0.03344698867491
  O   1.51723944541413      0.80413265770397     -1.74017879425679
  N   -1.65501656261702     -0.60269762272817      0.72468323863558
  O   -2.55310634249500      0.15074533734193      1.08539809906745
  O   -1.56485714545626     -1.81129686784222      0.89784348296759
  N   -0.99859305611990      1.20603485843860     -0.77598988958675
  O   -0.58336952764185      2.30477265887641     -0.43429681433999
  O   -1.77019474351516      0.92375450460610     -1.68428766200956
