13
Coordinates from ORCA-job run
  C   0.80229654822032     -0.05146493231300      0.07594920595474
  C   -0.51190254549893      0.21739069949603      0.03097157999614
  C   1.77122165887444      0.68428865109262      0.80145999132244
  N   2.61968593374974      1.25750106425575      1.38595503715292
  N   1.32680935167829     -1.23767001710911     -0.65404207616119
  O   2.16361454308637     -1.89230605902188     -0.04733552913564
  O   0.87810009964139     -1.43289915913996     -1.77567062025969
  N   -1.48327141426265     -0.58330014561097     -0.71423393786228
  O   -2.06203802102532      0.03061945195982     -1.60197772474524
  O   -1.62936036870645     -1.74615474434255     -0.36339922207110
  N   -1.13545484655707      1.32259508989498      0.77014744137658
  O   -2.27149330887278      1.09376909421170      1.17179293082497
  O   -0.46920763032734      2.33863100662659      0.92038292360734
