13
Coordinates from ORCA-job run
  C   0.80619879034763     -0.03093394623910      0.04503549273241
  C   -0.51832149035101      0.18285334063214      0.08508979115557
  C   1.80233910277142      0.89341260055583      0.44491104236544
  N   2.67224811138885      1.62421054168323      0.75989506509024
  N   1.31928458689747     -1.32033048845941     -0.49231130899699
  O   0.71758083195324     -2.33157478376900     -0.15626896307272
  O   2.30188896366340     -1.22766012202340     -1.21536694341087
  N   -1.51701214183594     -0.78887467628451     -0.36017985509989
  O   -2.28067231780036     -1.16077401176283      0.52227792167061
  O   -1.50081457053650     -1.09968327615413     -1.54320830872636
  N   -1.11775559264388      1.44558851872175      0.53550291101595
  O   -2.14570060651344      1.76300856409483     -0.05349928493900
  O   -0.53826366734086      2.05075773900459      1.42812244021561
