14
Coordinates from ORCA-job run
  C   0.76895935448382     -0.59333766132201      0.41084580452622
  C   -0.59224659424404      0.03711758689381      0.11188041468559
  Cl  0.57448178118099     -2.05088717104491      1.43291178999721
  H   -1.03061769816339      0.30110365149030      1.07813242069284
  H   1.19702028116769     -0.97613137774746     -0.52982759934516
  N   1.58492603246762      0.35964209901794      1.10659186402238
  H   1.51721955473543      1.24327860499790      0.61593990377545
  H   2.54643104735295      0.05030433184843      1.15215378740428
  N   -1.46377098076054     -0.92374913507846     -0.53022277831555
  H   -1.08789275178344     -1.20838706726428     -1.42747898996995
  H   -2.38114817917539     -0.52439948591834     -0.68066332916010
  N   -0.32945455773418      1.29447012921558     -0.60353730563327
  H   -1.14215497441969      1.89652665452660     -0.55268853602299
  H   -0.16075231510783      1.09444884038491     -1.58403744665696
