14
Coordinates from ORCA-job run
  C   0.57317279454945     -0.30654148963507      0.74729685963162
  C   -0.32903740817410      0.38950576124332     -0.27613611037651
  Cl  0.99779235435073      1.00311770370765      2.01795157670326
  H   0.12881179882525      1.36107302901825     -0.51151101748957
  H   -0.01169581924340     -1.01216435785151      1.33745825850167
  N   1.68635101587822     -0.93132726632323      0.17076382082444
  H   2.13263529328513     -0.36808380698809     -0.53850375222406
  H   2.35251559459986     -1.25888433161992      0.85530962698604
  N   -1.65433694901150      0.51716072675484      0.33297776168029
  H   -2.24896460298166      1.06273266062372     -0.28096452073654
  H   -1.58260705874060      1.02898092792061      1.20654925952539
  N   -0.35023226130034     -0.36063617661235     -1.51264257544408
  H   -0.90644610600357      0.13627994233998     -2.19896147106019
  H   -0.78895864603346     -1.26021332257819     -1.34958771652175
