14
Coordinates from ORCA-job run
  C   0.58429049011192     -0.61456315369618      0.64445823462350
  C   -0.67170090199698      0.04131340845090      0.04908832627308
  Cl  0.50194803326478     -0.40059168552620      2.48247600491944
  H   -1.47135894456076     -0.02492051950026      0.79569184476413
  H   0.55414482637560     -1.69727601588596      0.51775104309142
  N   1.75587437438444     -0.08686641815510      0.07077730932809
  H   2.58696484001360     -0.55113865746022      0.40948769209995
  H   1.80918522261420      0.90587229862711      0.26431693332724
  N   -0.98965196741434     -0.64303244907229     -1.20383692929342
  H   -1.12092988989314     -1.63652114962914     -1.04801690151569
  H   -1.86300051261416     -0.27562204711017     -1.56519573720959
  N   -0.40515884273152      1.44478743029002     -0.18401856400768
  H   -1.24895919242860      1.99597669714157     -0.11724173318682
  H   -0.01964753512505      1.54058226152591     -1.11673752321364
