14
Coordinates from ORCA-job run
  C   0.75379248124940     -0.43427462084128      0.29779424373776
  C   -0.68678807982918      0.02280062797566      0.04158358478525
  Cl  0.76271811444496     -1.90676023863283      1.37213415325647
  H   -1.11394808124652      0.30581111349118      1.01222242947721
  H   1.20265920402665     -0.76639771641246     -0.64278286689363
  N   1.52689956993046      0.64300297155771      0.82739062056169
  H   2.50534995018250      0.39168466176893      0.88493366018841
  H   1.20895573913193      0.86832283011936      1.76347598781162
  N   -1.47744451805013     -1.06352272483144     -0.48485527175139
  H   -2.39083408546184     -0.69862465191329     -0.72675971420819
  H   -1.05562960963470     -1.42488365279116     -1.33386925869153
  N   -0.73499953777028      1.20519958318991     -0.81578782364483
  H   -0.09857339153400      1.90747827451091     -0.45397102256220
  H   -0.40015775543925      0.95116354280883     -1.74050872206663
