14
Coordinates from ORCA-job run
  C   0.65810157638220     -0.63088325677245      0.47440551800451
  C   -0.35301215208173      0.00265260376016     -0.47866581041670
  Cl  0.06471273605803     -0.40335582542074      2.20768334146895
  H   0.06376313300234     -0.19333597021833     -1.47718577963031
  H   0.67588952620262     -1.71569596544959      0.35398431359151
  N   1.93423806290409     -0.08383694814729      0.22767066822883
  H   1.87159563003717      0.92715901067734      0.26142910396030
  H   2.62798290794051     -0.42155256232560      0.88009948235041
  N   -0.33348885130006      1.43990081753391     -0.28986866169709
  H   -0.69364258137576      1.91141716248718     -1.10923306152742
  H   -0.93860239718360      1.65836662915795      0.49431438654917
  N   -1.68065754360934     -0.56201645950357     -0.28087990470605
  H   -2.25841152924401     -0.35852080312107     -1.08757761171373
  H   -1.63946851773244     -1.56929843265790     -0.17417598446238
