14
Coordinates from ORCA-job run
  C   0.55636615684389     -0.56813809941367      0.74450590450563
  C   -0.71864315531327     -0.08445499286314      0.06222582309178
  Cl  0.61342514100531      0.22242355212725      2.43055230224017
  H   -1.56145909753927     -0.28188097504410      0.73631983478742
  H   0.47652884570623     -1.63051243295766      0.96399744722739
  N   1.67355587895216     -0.29112394266592     -0.06181102552775
  H   2.54281037939727     -0.61240723499959      0.33872802048925
  H   1.71094404217300      0.69410687101480     -0.28921089911822
  N   -0.90109828743638     -0.90103718893304     -1.11396125460203
  H   -0.14071841000570     -0.72462897386502     -1.75929204591460
  H   -1.78233519049697     -0.69190025702871     -1.56630093180296
  N   -0.55300073584265      1.34168419564010     -0.24470766749317
  H   -1.30786983244817      1.63999884422629     -0.85018486935922
  H   -0.60950573499546      1.88687063476241      0.60913936147632
