14
Coordinates from ORCA-job run
  C   0.41073668822655     -0.37995444760506      0.86403871645872
  C   -0.74839405134138     -0.02936149629695     -0.08203086455446
  Cl  0.13506247348067      0.40080376638632      2.45586670678007
  H   -1.68588197291086     -0.31765201835023      0.41251936194191
  H   0.39236864102681     -1.45589889854061      1.08489225766859
  N   1.63637620457334      0.10681504469858      0.29357231897975
  H   1.69484960017803     -0.27322990761756     -0.64591308836821
  H   2.43596145090903     -0.19318041347592      0.83574660006295
  N   -0.48900362168901     -0.75684391308271     -1.32332698475281
  H   -1.07454112660126     -0.34768714685299     -2.04111554071722
  H   -0.73714742596539     -1.73449231425954     -1.22475826639911
  N   -0.84023018605636      1.37268302764516     -0.41926645972194
  H   0.09990733527596      1.72344362925859     -0.57178381380316
  H   -1.23006400910614      1.88455508809290      0.36155905642496
