14
Coordinates from ORCA-job run
  C   0.70507505462752     -0.56769090816605      0.48012984562330
  C   -0.64137444654252     -0.02234960833531      0.00959901604677
  Cl  0.44733477846863     -1.73273475568973      1.80338402634083
  H   -1.24747604431244      0.17874666132287      0.90254760476078
  H   1.14823774233421     -1.14652958808516     -0.34005726358420
  N   1.53986616610031      0.51630178283205      0.96825633972655
  H   2.30615046832040      0.14048400599227      1.51287648598027
  H   1.93551052284607      0.98408270606371      0.15985062936012
  N   -1.31332278068670     -1.03510480392699     -0.76767893840487
  H   -0.91457955107141     -1.05903507120686     -1.69958503919852
  H   -2.30254311368097     -0.84051566439600     -0.84564749415833
  N   -0.35811864305796      1.18315596084138     -0.77889127374600
  H   -1.20733301787351      1.46631248596391     -1.25400854534920
  H   -0.09642713547163      1.93487679678990     -0.14977539339751
