14
Coordinates from ORCA-job run
  C   0.67499822691928     -0.64099040341710      0.43575073376002
  C   -0.35755213823743      0.02021552936322     -0.47499090160157
  Cl  0.09377224022183     -0.51641035123275      2.18269983477080
  H   0.05436301247005     -0.11557262730986     -1.48545458806628
  H   0.71389251479271     -1.71729907829440      0.25757494056049
  N   1.93757808532163     -0.05533162173536      0.20694500042430
  H   1.85446966676187      0.95096626530832      0.29483478644062
  H   2.64390877835160     -0.41175690664802      0.83555840062347
  N   -0.36580689087057      1.44559938402832     -0.21193489503776
  H   -0.74031995625614      1.95207675840679     -1.00345755578694
  H   -0.96929435548523      1.61090056293399      0.58632652278795
  N   -1.67147012183620     -0.58160186962117     -0.29585295931195
  H   -2.26080721098883     -0.34882486856949     -1.08610326834302
  H   -1.60873185116456     -1.59197077321248     -0.24189605122010
