14
Coordinates from ORCA-job run
  C   0.61156519101120     -0.59250367927954      0.65523418399201
  C   -0.31351027091385     -0.00061924277182     -0.41627478564614
  Cl  -0.14363148157906     -0.34671045025040      2.27993476404501
  H   0.19611165748998     -0.23333293394250     -1.36581026736145
  H   0.67221900888107     -1.67638699156870      0.52898613223892
  N   1.92462693575684     -0.03394296507310      0.63610105226295
  H   2.52857919439269     -0.54338689150512      0.00651829633473
  H   1.85742487691936      0.93843677881058      0.35763798970934
  N   -0.30965751446844      1.44314362418648     -0.29461424576042
  H   -0.94564801229360      1.69507121739880      0.45441674079159
  H   -0.64430430672434      1.87294285238513     -1.14742121603470
  N   -1.65349780585091     -0.56173471452523     -0.33070662590952
  H   -2.15186406591898     -0.39945915610504     -1.19740751292036
  H   -1.62741340670195     -1.56151744775955     -0.16559450574196
