14
Coordinates from ORCA-job run
  C   0.51058291804067     -0.36386049625964      0.81692668443826
  C   -0.75256897447248     -0.02576778577751      0.00967284753607
  Cl  0.43120275852299      0.45364568890651      2.41255643624583
  H   -1.62479189329424     -0.29726248170639      0.61967793379897
  H   0.51467186608897     -1.43434040701284      1.06343987855128
  N   1.66076095358299      0.10116726152224      0.09214513899911
  H   2.51854965334744     -0.19771953804437      0.53732639389435
  H   1.60040739158509     -0.29626513588481     -0.84011150297040
  N   -0.64795210790210     -0.78049444255599     -1.23797067971333
  H   -1.31662721153040     -0.38403505050591     -1.88705665199971
  H   -0.88383485053221     -1.75478915753614     -1.08864154960446
  N   -0.87913945025473      1.36937504955660     -0.34485320460613
  H   -1.16543040134317      1.90066112931844      0.46727008158919
  H   0.03616934816116      1.70968536597981     -0.62138180615906
