14
Coordinates from ORCA-job run
  C   0.69262130488991     -0.51148510201357      0.39884243204748
  C   -0.72436455852661     -0.04474902773577      0.05657498130744
  Cl  0.62820780643460     -1.85031675396379      1.57410680172241
  H   -1.23875336311282      0.10968580739994      1.00946591741500
  H   1.16321089601896     -0.93417177015549     -0.50199895238431
  N   1.44167702459506      0.58488406970911      0.99584681080815
  H   1.83484089636775      1.15623552495607      0.25725471996416
  H   2.21470018058284      0.21459051737165      1.53440780779901
  N   -1.40842152322221     -1.08717843624686     -0.67194485280360
  H   -2.34568910513822     -0.76629968696786     -0.88301199104500
  H   -0.94249732164529     -1.25459486656786     -1.55775865252180
  N   -0.74651267459818      1.23591389947934     -0.64565352969128
  H   -0.21459383128557      1.18495955135136     -1.50862175170887
  H   -0.35642573136022      1.96452627338375     -0.05950974090877
