14
Coordinates from ORCA-job run
  C   0.57204044037502     -0.40761011892219      0.83608565830852
  C   -0.76254318695171     -0.05912353647711      0.18278255491594
  Cl  0.75437320592328      0.39514789709983      2.41467423136670
  H   -1.56324157317137     -0.43596413133730      0.82678302704381
  H   0.57223161629728     -1.48117770152670      1.04295390365930
  N   1.64992070531347      0.01331698343366     -0.05177470802847
  H   1.80535219404437     -0.73075147891707     -0.72306852015922
  H   2.50571520084624      0.13487560791472      0.47463637006958
  N   -0.78985071364515     -0.84932467714879     -1.05798325948160
  H   -1.74704317238425     -0.99075218772138     -1.35670324034545
  H   -0.32286512681129     -0.31808894778772     -1.78481048859433
  N   -0.89531311920184      1.37445006399592      0.06689634240948
  H   -1.71182829295763      1.61242454174960     -0.48081426137007
  H   -0.06694817767641      1.74157768564453     -0.38765760979420
