14
Coordinates from ORCA-job run
  C   0.55792778607571     -0.34399273770507      0.85592255132527
  C   -0.28450120110665      0.35005209822579     -0.22142302616894
  Cl  0.74204865497786      0.75669851856439      2.25966617755884
  H   0.27584564388800      1.24458884333016     -0.53768579403626
  H   -0.00162619126706     -1.21146848631732      1.21621658243922
  N   1.86891427209820     -0.76063882943973      0.42993694340106
  H   2.42113784909186      0.05997134297930      0.20322466056114
  H   1.73525087849721     -1.28602934808312     -0.42858323875988
  N   -1.62067324100605      0.62911272488569      0.28620445465553
  H   -1.57399481397910      1.18867813210893      1.12924114504417
  H   -2.14286830130787      1.15490664222548     -0.40483664401278
  N   -0.34397901105862     -0.55535597380393     -1.35861199737914
  H   -0.50554422335798     -0.04439354085998     -2.21667915050568
  H   -1.12893810154551     -1.18212938611058     -1.21459266412255
