14
Coordinates from ORCA-job run
  C   0.69734819071906     -0.59263248386590      0.52941295147871
  C   -0.27401497907227     -0.14150144254530     -0.55289966787739
  Cl  -0.11688177126194     -0.23236834654867      2.18520428557306
  H   0.22491357638196     -0.39190510535181     -1.49449350464141
  H   0.77284442233423     -1.67774148620110      0.53740802374369
  N   1.94215167667596      0.02789433241755      0.36753392729232
  H   2.60199652763757     -0.20848954948717      1.09437709912398
  H   1.82606182761359      1.02955232309126      0.27935886029315
  N   -0.36916660999742      1.31440331976490     -0.50217491566854
  H   -0.94299130634323      1.59228794202822      0.28587103364847
  H   -0.79812476028038      1.66879180326276     -1.34751417035087
  N   -1.48607758320305     -0.93527116982130     -0.48595291355004
  H   -1.98866524014489     -0.73831644525979      0.37142605328360
  H   -2.09039397105919     -0.71470369148369     -1.26755706234872
