14
Coordinates from ORCA-job run
  C   0.58953616865935     -0.59343830266357      0.71966492058128
  C   -0.72860520235221     -0.06177207025654      0.15786807975564
  Cl  0.72727758001405     -0.09347502139959      2.47509172778152
  H   -1.50558484883427     -0.21099620436259      0.91039032195660
  H   0.56006012372347     -1.68124557707774      0.74165998046450
  N   1.66362507977413     -0.14008063775369     -0.09095120533389
  H   2.53891215916950     -0.57205594231480      0.17356624132408
  H   1.74633818264015      0.86547946362446      0.00780718538148
  N   -1.04523652326097     -0.89375238945586     -0.99211397879557
  H   -0.27718532804302     -0.83950769620705     -1.65252237146337
  H   -1.88724260208558     -0.55962729195882     -1.44533101651960
  N   -0.59037207212477      1.37575760731395     -0.07615509193079
  H   -0.33684272413475      1.54145765035502     -1.04194186907158
  H   -1.45567999314508      1.86225641215681      0.11196707586970
