14
Coordinates from ORCA-job run
  C   0.49640854749265     -0.48013411533969      0.74461057401749
  C   -0.75582052078564      0.00996309609153      0.00975956607447
  Cl  0.52787465346737      0.36507530097978      2.40431434817914
  H   -1.61963168357490     -0.15157345692044      0.66858543642107
  H   0.39845672730751     -1.53300442871672      1.01058456747098
  N   1.64118223460482     -0.26128239225630     -0.04180632125966
  H   2.49581234564885     -0.55799355664842      0.40659061602274
  H   1.68807329436878      0.70958283655440     -0.32509269772586
  N   -0.99551546327927     -0.71769284450909     -1.22091530002559
  H   -0.11868646380435     -0.78978693975546     -1.72544809402986
  H   -1.32067388674521     -1.65447598252706     -1.01675272112297
  N   -0.54503997140166      1.40371369953183     -0.35215289862675
  H   -1.25792693549710      1.65765548934957     -1.02405914336569
  H   -0.63451287780188      1.99795329416607      0.46278206797051
