14
Coordinates from ORCA-job run
  C   0.54624170028636     -0.58432827876910      0.84867677873430
  C   -0.65412742470416      0.02237529079046      0.10331690736037
  Cl  0.45341590364739     -0.09527589251898      2.56404941910250
  H   -1.55046598623467     -0.10679909668245      0.72442285753268
  H   0.46345113349076     -1.67518569911537      0.84149925079319
  N   1.83370830580562     -0.21630953397477      0.32506741403077
  H   1.90843217954283      0.79513052932034      0.35536177413500
  H   1.87385392800829     -0.51471001899597     -0.64404451372794
  N   -0.72817502019821     -0.66850947002494     -1.18769808981756
  H   -1.49356461638649     -0.28234966014321     -1.72899834407381
  H   -0.92075896585089     -1.65592689423474     -1.05434703839700
  N   -0.44087564372709      1.43898227431628     -0.09056679631674
  H   0.02078554855915      1.59021908331347     -0.97869149284978
  H   -1.30992104223888      1.95268736671897     -0.08004812650598
