14
Coordinates from ORCA-job run
  C   0.69566017915628     -0.63934414756255      0.47539623784293
  C   -0.22228282809504     -0.05583415357977     -0.59010260210858
  Cl  -0.26003241725785     -0.62608437062374      2.09351665539502
  H   0.35986691886289     -0.10609394206550     -1.51570577600649
  H   0.84719111941650     -1.70232400522002      0.30106370455076
  N   1.90339621546168      0.06782074869436      0.52897981354540
  H   1.72531686298200      1.06128217587576      0.60622212513647
  H   2.52271583761815     -0.25695592587337      1.25741152961898
  N   -0.42063285758371      1.36036200382705     -0.29532067548810
  H   -1.07033045699531      1.46164308253823      0.47609503605356
  H   -0.80729070159173      1.83595400934258     -1.10062616877405
  N   -1.37920565748901     -0.91338157044253     -0.76453608778562
  H   -1.95407068187815     -0.90107833999961      0.06971289021029
  H   -1.93930153260670     -0.58696556491086     -1.54210668219060
