14
Coordinates from ORCA-job run
  C   0.55307686037103     -0.50680898069155      0.86434952995859
  C   -0.68222571309472     -0.06624524475668      0.07786502114937
  Cl  0.43581996996271      0.25334320694954      2.52929661772450
  H   -1.57224103414947     -0.30954331065343      0.67279197593259
  H   0.48260766831406     -1.57753950337892      1.04533863274385
  N   1.78099486058867     -0.18086678204929      0.24016292734716
  H   2.20010997048604     -0.95963935513239     -0.24111899973689
  H   1.69534800134538      0.64037542596581     -0.34241040695554
  N   -0.73059237309794     -0.87342129187771     -1.12520711885914
  H   -0.06821319953004     -0.49869416935509     -1.79450735432239
  H   -1.65254287397387     -0.83510941208998     -1.54133774846791
  N   -0.55058377876368      1.35718559398224     -0.22866518472891
  H   -1.34235987400053      1.65775707598346     -0.78417818046369
  H   -0.54819848445763      1.90120674710402      0.62762028867842
