14
Coordinates from ORCA-job run
  C   0.70040794291605     -0.59689405243381      0.33052898160725
  C   -0.36275710985611      0.04931006659580     -0.56317513489642
  Cl  0.02960871374271     -0.60136063122312      2.08368118425717
  H   0.05609780281659     -0.00950402907774     -1.57355779771091
  H   0.78908097037106     -1.66238763650123      0.11804989000188
  N   1.93034570296020      0.05728437735642      0.18844606660226
  H   2.65313680451839     -0.30165862081609      0.79531992876512
  H   1.81284934516572      1.05690376575149      0.29305418966647
  N   -0.44795245075716      1.45249356269275     -0.20828514654552
  H   -0.88949304197243      1.53804962981929      0.70102669738039
  H   -1.04964864420200      1.91450429595827     -0.87912561329320
  N   -1.65426778709666     -0.61570169673206     -0.59665395337564
  H   -1.99383706302180     -0.75811682148388      0.34804701999616
  H   -1.57557118558456     -1.52492220990611     -1.03835631245503
