14
Coordinates from ORCA-job run
  C   0.67908509805994     -0.59936450559756      0.37870229776528
  C   -0.40210276940948     -0.10977015892248     -0.58596580190142
  Cl  0.00155050621265     -0.50079590657314      2.10601710829653
  H   0.04417694764626     -0.24237105896804     -1.57729624839991
  H   0.84311570737001     -1.66464677318424      0.22589314868006
  N   1.88401095155709      0.12186030671662      0.22100882075582
  H   1.76252680987884      1.09370152710623      0.47487883274173
  H   2.63093562188566     -0.26870607185272      0.77919261501897
  N   -0.74439335831885      1.30071715331834     -0.46857293135640
  H   -0.00693414915986      1.89846227442718     -0.82006133565670
  H   -0.94922217530825      1.54558839663453      0.49328307937835
  N   -1.54650853860126     -0.98884735774223     -0.49938652505668
  H   -1.95355314687143     -0.92984748924700      0.42704316648899
  H   -2.24268750494132     -0.65598033611548     -1.15573622675462
