14
Coordinates from ORCA-job run
  C   0.58760814770570     -0.53807208627329      0.64150901560389
  C   -0.39818871777915     -0.06068543072534     -0.44547088226463
  Cl  -0.03953418186263     -0.11538864665566      2.26053961910515
  H   0.11700592532379     -0.30063428001105     -1.39450772988194
  H   0.64769423009350     -1.63055295369349      0.61126377028492
  N   1.92937078584236     -0.02078258108492      0.52860764737475
  H   1.91733338687663      0.99196372311984      0.53740214277572
  H   2.35344345367032     -0.34118987173306     -0.33418481216933
  N   -0.67852576801575      1.35606678157309     -0.48027564893744
  H   0.14768756924729      1.89728688912717     -0.69734846059571
  H   -1.05030546160902      1.64587813705915      0.41674241037066
  N   -1.67204229261145     -0.72680406918883     -0.28536813070719
  H   -1.57158818201798     -1.73325884494953     -0.33208237573214
  H   -2.28895889486361     -0.42282676656409     -1.02782656522674
