14
Coordinates from ORCA-job run
  C   0.52469938251279     -0.57157537741734      0.78805763872431
  C   -0.73321715748362      0.05450531687102      0.15459242990513
  Cl  0.54897273586970     -0.16296469562614      2.53599607048534
  H   -1.56793686507508     -0.09958058438030      0.84295092939128
  H   0.44243293831269     -1.66029965916977      0.73781767857247
  N   1.78145618249463     -0.18431765396429      0.21170626512605
  H   1.85661903312260      0.82449836343894      0.18334287665991
  H   1.91805819770368     -0.58791097476911     -0.70522660204713
  N   -1.10371541263806     -0.57798615702761     -1.11233831744831
  H   -1.37249907383203     -1.54528855995834     -0.96702384191620
  H   -0.31406802438805     -0.57183396301665     -1.75021542998890
  N   -0.52197719788451      1.48054588775499      0.00900338385444
  H   -0.03981433077139      1.66109201485004     -0.86442911679723
  H   -1.42001040794334      1.94111604241456     -0.06323396452114
