14
Coordinates from ORCA-job run
  C   0.46433929068457     -0.53196162675364      0.65877200158288
  C   -0.84466601553572      0.00732351009014      0.05775592810591
  Cl  0.59109533728048      0.05961068817327      2.40216471089126
  H   -1.65619687591327     -0.30191077692765      0.72401053760339
  H   0.40615345202982     -1.61678454645368      0.75410733412132
  N   1.57563601956465     -0.17896170810351     -0.14451468981229
  H   2.43561659082055     -0.59501603356839      0.18535522185652
  H   1.68649544575334      0.82587903400291     -0.18315591913975
  N   -1.05674396908778     -0.57564943861337     -1.25476391030870
  H   -1.62311974768730     -1.40955475166865     -1.19790942122729
  H   -0.16267677925457     -0.80663606672430     -1.67109703923806
  N   -0.88255319167017      1.45340380857170     -0.07002065722998
  H   -0.49910997121717      1.74013989263071     -0.95907273668727
  H   -0.43326958576743      1.93011801534446      0.70036863948201
