16

C	-0.463413	0.011108	-1.465635
C	0.0	0.0	0.0
F	0.22646	0.98422	-2.145649
H	1.11414	0.0	0.0
N	-0.136925	-1.258339	-2.186856
O	-0.550842	-1.231419	-3.428202
O	1.1523	-1.524312	-2.067996
N	-1.929351	0.261509	-1.624331
O	-2.205037	0.877172	-2.760191
O	-2.640051	-0.806094	-1.414694
C	-0.539673	-1.251438	0.757405
N	-1.694736	-1.248633	1.164053
N	-0.392227	1.209934	0.735986
O	0.046491	2.29895	0.125081
O	-0.008335	1.138622	1.997318
Br	2.607435	0.0	0.0
