16

C	-0.491565	-0.013444	-1.415715
C	0.0	0.0	0.0
F	-1.838175	0.009122	-1.543274
H	1.11421	0.0	0.0
N	-0.122701	1.225777	-2.254553
O	-0.178741	1.081364	-3.504456
O	-0.452591	2.293396	-1.686463
N	0.036952	-1.149942	-2.291248
O	1.282496	-1.174599	-2.401604
O	-0.73844	-1.518204	-3.210201
C	-0.305388	-1.333507	0.626864
N	0.270801	-2.327368	0.567657
N	-0.529983	1.10052	0.865317
O	-1.783291	1.203863	0.906528
O	0.198178	1.319419	1.872377
Br	2.775039	0.0	0.0
