16

C	-0.419795	-0.01578	-1.456729
C	0.0	0.0	0.0
F	-0.113975	-1.201613	-1.987398
H	1.093394	0.0	0.0
N	-1.920327	0.18188	-1.709096
O	-2.620974	-0.704346	-1.244068
O	-2.27169	1.148536	-2.369127
N	0.283978	1.073769	-2.239593
O	0.445296	2.127333	-1.640563
O	0.57604	0.804836	-3.393851
C	-0.487921	-1.169222	0.71387
N	-0.840683	-2.10427	1.331637
N	-0.485342	1.221416	0.741743
O	0.25678	1.661817	1.604448
O	-1.607557	1.633909	0.455548
Br	3.264648	0.0	0.0
