16

C	-0.472619	-0.005539	-1.480563
C	0.0	0.0	0.0
F	-0.137525	-1.198584	-2.071236
H	1.113392	0.0	0.0
N	-1.953436	0.110294	-1.642336
O	-2.277837	0.300237	-2.899989
O	-2.551727	-0.918611	-1.094523
N	0.218329	1.091461	-2.222794
O	-0.110377	2.261585	-1.764935
O	1.532013	0.860866	-2.273306
C	-0.340505	-1.330664	0.684653
N	0.307564	-2.343336	0.412793
N	-0.469099	1.183055	0.773122
O	0.255018	1.328601	1.859925
O	-1.755967	1.115037	1.007049
Br	2.615941	0.0	0.0
