14

C	-0.552462	-0.072224	-1.411789
C	0.0	0.0	0.0
Br	-0.114706	-1.808468	-2.236944
H	1.096035	0.0	0.0
H	-0.019228	0.650052	-2.032564
H	-0.319825	0.977271	0.387568
C	-2.05491	0.12642	-1.483773
H	-2.553093	-0.614946	-0.860072
H	-2.423838	0.051688	-2.508583
H	-2.297845	1.122278	-1.096724
N	-0.592316	-1.035803	0.861295
H	-0.113264	-1.905699	0.640994
H	-0.318105	-0.815903	1.813117
Cl	3.594254	0.0	0.0
