14

C	-0.50703	-0.000306	-1.444414
C	0.0	0.0	0.0
Br	0.096334	-1.644474	-2.334408
H	1.092801	0.0	0.0
H	-0.017175	0.804105	-2.001838
H	-0.351459	-0.90847	0.500655
C	-2.018625	0.075733	-1.591268
H	-2.317836	0.018827	-2.639333
H	-2.491662	-0.751768	-1.05355
H	-2.395548	1.020197	-1.18577
N	-0.421854	1.16629	0.772919
H	0.09248	1.983701	0.467008
H	-1.414253	1.347489	0.684756
Cl	3.634804	0.0	0.0
