16

C	0.0	0.0	0.0
C	-0.503224	-0.412692	-1.389341
Br	1.970915	0.0	0.0
H	-1.592877	-0.356324	-1.287994
H	-0.23576	-0.804621	0.706624
N	-0.495285	1.293202	0.369113
H	-1.512692	1.243659	0.247845
H	-0.325429	1.451976	1.355915
N	-0.183608	-1.790458	-1.750772
H	-0.711763	-2.414927	-1.151644
H	0.80289	-1.961517	-1.584856
C	-0.061594	0.537519	-2.489722
H	-0.639469	0.322124	-3.390872
H	0.999053	0.40374	-2.722046
H	-0.223985	1.57427	-2.191298
Br	-3.804173	0.0	0.0
