16

C	0.0	0.0	0.0
C	-0.539137	0.28213	-1.407996
Br	1.954134	0.0	0.0
H	-1.599846	0.487612	-1.218268
H	-0.280603	-1.018198	0.275799
N	-0.477798	0.881322	1.034656
H	-1.487023	0.722367	1.090545
H	-0.342682	1.843427	0.742612
N	-0.375559	-0.913949	-2.24383
H	-0.632023	-0.667234	-3.194715
H	-1.078885	-1.582653	-1.938726
C	0.081055	1.480873	-2.102884
H	1.090544	1.247724	-2.446487
H	0.129372	2.350502	-1.442984
H	-0.531872	1.759873	-2.965833
Br	-3.834069	0.0	0.0
