16

C	0.0	0.0	0.0
C	-0.516931	0.076676	-1.437511
Br	2.043005	0.0	0.0
H	-1.60295	-0.007131	-1.288022
H	-0.221061	-0.982358	0.416726
N	-0.513132	0.992138	0.820082
H	-0.29166	1.936314	0.550712
H	-0.422432	0.836247	1.810164
N	-0.086416	-1.027049	-2.288363
H	0.919803	-1.137157	-2.214393
H	-0.516174	-1.883501	-1.956274
C	-0.221923	1.40399	-2.116874
H	0.854538	1.580442	-2.203354
H	-0.651061	1.372934	-3.11921
H	-0.68462	2.237604	-1.582662
Br	-4.017623	0.0	0.0
