15
Coordinates from ORCA-job run
  C   -0.62717655064000     -0.47997445301352     -0.44018947655156
  C   0.67480794812634      0.28049459113119     -0.18990135504247
  Cl  -0.91422712094211     -0.32915490502077     -2.24507187592235
  H   1.48316871332398     -0.13716359064922     -0.78759541822728
  N   -0.42906070729533     -1.80904549121562      0.00924427799635
  H   -1.28262827706934     -2.35195640835005     -0.01999200976099
  H   0.30543095285015     -2.28454567129728     -0.50146018690061
  C   -1.79989419249252      0.07292838675284      0.23916809788984
  N   -2.79303691784343      0.38603497132480      0.78321964633465
  N   1.07119397700516      0.14738344425807      1.25369923839478
  O   0.40203235909709      0.78975461436866      2.05439403826610
  O   2.01131605645936     -0.60133273779773      1.48615718220676
  N   0.62737431500229      1.74948210047571     -0.48770378036581
  O   1.73345411960947      2.26442565121012     -0.62188410373629
  O   -0.46275467519112      2.30266949782279     -0.53308427458114
