15
Coordinates from ORCA-job run
  C   -0.49242746042570     -0.47962759863092     -0.53548795000140
  C   0.27393870467696      0.48539543255601      0.38508903930217
  Cl  0.36487535350515     -0.77844224052609     -2.06279270288838
  H   -0.35198425666884      0.75709056953012      1.23830598495180
  N   -0.57500003056513     -1.73675669875022      0.17144648586339
  H   -0.98720110154210     -2.44185159164241     -0.42870445534340
  H   -1.14249400514499     -1.64472959111845      1.00870583242063
  C   -1.80678291957033      0.10757648903776     -0.84968842000519
  N   -2.90982087071565      0.48192092073717     -1.01206619395102
  N   0.68580418340741      1.78229652225957     -0.25762933263748
  O   1.59455216503279      2.37928312992555      0.30315229107750
  O   0.03210667107013      2.15443080269697     -1.22294570648903
  N   1.48629047036620     -0.18748890748485      0.94875174410870
  O   2.43451636620463     -0.34066984093077      0.19271586112492
  O   1.39362673036946     -0.53742739765942      2.12014752246677
