15
Coordinates from ORCA-job run
  C   -0.46838506673502     -0.62252968621827     -0.54707726078148
  C   0.71568188619137      0.30913396399802     -0.23192301723206
  Cl  0.15016467725433     -1.95202459730661     -1.57351652644810
  H   1.31650384185424      0.50885120031407     -1.11707392603623
  N   -0.99587400519596     -1.19656512650309      0.65361059123471
  H   -1.70873484386567     -1.88136504436145      0.43276452696597
  H   -1.38700714430687     -0.46833965478413      1.24135209175318
  C   -1.42752854264186      0.12995826066757     -1.37998776116375
  N   -2.22260438768542      0.71249456846623     -2.02143559466558
  N   1.61358819038477     -0.31345869720605      0.80811018569607
  O   2.46038272521204     -1.07929099730619      0.37008257248541
  O   1.40590099232339     -0.00940510534339      1.97439290396526
  N   0.27606352412743      1.63174297287053      0.32094306538658
  O   1.07243331716335      2.54982463819009      0.16213544146551
  O   -0.80158516408012      1.68097330452268      0.90662270737452
