15
Coordinates from ORCA-job run
  C   -0.63013593357576     -0.44760667740473     -0.46928711012415
  C   0.72310287811772      0.17517731230726     -0.12702069603899
  Cl  -0.68376137711662     -0.46412810391089     -2.30258947022516
  H   1.53267810263618     -0.39968530457714     -0.57341091119339
  N   -0.66248636858204     -1.73274775648219      0.12606107167502
  H   -1.57079802669985     -2.17036950722860      0.03894792637674
  H   0.05771178055684     -2.34570231483516     -0.23719318843523
  C   -1.79042147311743      0.31311098140252     -0.00297644371006
  N   -2.78930850415880      0.80171258720744      0.37631695290912
  N   0.92881878467544      0.15649007123417      1.36146611363832
  O   0.26174412809506      0.95825777448987      2.00466416274721
  O   1.72961806911184     -0.66782669420197      1.78307328771574
  N   0.90513718805604      1.59696956536011     -0.56724135124542
  O   -0.08954875014697      2.26833557537608     -0.80461200252657
  O   2.07764950214835      1.95801249126322     -0.60619834156318
