15
Coordinates from ORCA-job run
  C   -0.56801229419656     -0.50985044405166     -0.42092352031850
  C   0.34933000853855      0.51298291285243      0.27079319496134
  Cl  0.20354418237117     -1.26116009863748     -1.83400986878262
  H   -0.21226403703274      1.05473288044199      1.03543758344054
  N   -0.81595347608338     -1.55345966079726      0.54669587871126
  H   -1.34560689546761     -1.19664825040934      1.33641354490875
  H   -1.33879824147274     -2.30616044938685      0.11390869977919
  C   -1.79020237046567      0.17862530179212     -0.87205560808427
  N   -2.83026730283410      0.66544914409012     -1.12588792156538
  N   0.92977283729838      1.56203738496243     -0.63916562242417
  O   0.31788270920428      1.80023863159348     -1.67185665890440
  O   1.92489471411481      2.13191600523322     -0.21294083196607
  N   1.46436112763044     -0.18707050099653      0.98240007460801
  O   1.34784805390689     -0.25349097313338      2.20111106089057
  O   2.36447098448828     -0.63814188355331      0.28907999474574
