15
Coordinates from ORCA-job run
  C   -0.59362958325017     -0.52772823441604     -0.51402310960250
  C   0.25054075426761      0.48487517196687      0.30689727949495
  Cl  0.33931037108650     -1.05633131504408     -1.94294248334354
  H   -0.39256221063201      1.01873321742934      1.00776140742285
  N   -1.02309832848781     -1.67943392330139      0.21956661688305
  H   -1.70279332255138     -1.45156268319187      0.93385439942202
  H   -0.23966230372489     -2.20159962285189      0.58815722289913
  C   -1.79285524547962      0.18240644421325     -0.97946265437428
  N   -2.78846581145197      0.71842172303629     -1.29857106930661
  N   0.90041143277888      1.53158587508862     -0.56096235076315
  O   2.10646014205385      1.45217853161890     -0.74456614232265
  O   0.12038345106534      2.35501050091405     -1.02249549038066
  N   1.33439191965050     -0.13928357772600      1.13081484411081
  O   1.71862889496866      0.55857392956435      2.06357277677332
  O   1.76293983970652     -1.24284603730041      0.81239875308726
