15
Coordinates from ORCA-job run
  C   -0.58406623764775     -0.52093669546597     -0.53512650276183
  C   0.24289622746522      0.47543811867772      0.32168285648057
  Cl  0.37029693460189     -1.00883051207257     -1.96467756022622
  H   -0.41160151980406      0.98407499535937      1.03068574587514
  N   -1.01635420360659     -1.69267132875249      0.16421369465429
  H   -0.23517219397411     -2.21915350957118      0.53118750084437
  H   -1.70800871901657     -1.48690908156902      0.87369501467136
  C   -1.78060645820249      0.19466557042309     -0.99878256950227
  N   -2.76600067888578      0.75284295825391     -1.31170608545948
  N   0.89355057379950      1.55176457394405     -0.50857783830822
  O   2.10017177249943      1.47890303958061     -0.69189780118703
  O   0.11467824976876      2.39126763773897     -0.94268743234486
  N   1.32411744556941     -0.16220693219491      1.13974302180751
  O   1.69933308874084      0.51809314773602      2.08886069758479
  O   1.75776571869231     -1.25834198208759      0.80338725787186
