15
Coordinates from ORCA-job run
  C   -0.52069185251333     -0.66358090024314     -0.44141343541668
  C   0.66714698851680      0.31057784379899     -0.34442076369234
  Cl  -0.00998070906115     -2.03528492231244     -1.47171976581772
  H   1.13433387667980      0.47242809941896     -1.31386587490512
  N   -0.86093341186291     -1.17985523173121      0.84940566611605
  H   -1.18724805982526     -0.42846082724906      1.44739684862775
  H   -1.57712202245867     -1.89141564757928      0.76679489770339
  C   -1.60601278508705      0.01971617450705     -1.17308529545167
  N   -2.49501468706712      0.54930457934701     -1.73191293501208
  N   1.71807117496653     -0.23069612831700      0.59231128243492
  O   2.51826285720683     -1.00217403665050      0.08243012898820
  O   1.66527179645788      0.13597606906449      1.75784546109865
  N   0.26743318465400      1.65297500025472      0.19147106702974
  O   1.00224183269096      2.57940538206307     -0.13076557564532
  O   -0.71775818329731      1.71008454562834      0.92152829394222
