15
Coordinates from ORCA-job run
  C   -0.63487209988236     -0.62671465355814     -0.46981566890365
  C   0.63656498189456      0.24736295669090     -0.29911746660376
  Cl  -0.01417084916637     -2.14058241482158     -1.22389415723759
  H   1.10097012479158      0.47361423150719     -1.25895715039949
  N   -1.40389112558456     -0.96890812642069      0.67667709856784
  H   -1.89525068554740     -0.15708514204631      1.02870851535915
  H   -0.82144753783537     -1.36680872437145      1.40305433066088
  C   -1.48069912378862      0.05231196462321     -1.45829846143221
  N   -2.12997469989758      0.60378446207526     -2.26725333328121
  N   1.66736218725948     -0.43101103786707      0.54442479278993
  O   1.33317914510949     -0.67211967353539      1.70266368165754
  O   2.74014611704699     -0.68697625153945      0.01437086603815
  N   0.35800536394078      1.56697693013951      0.37994465991500
  O   -0.80845481926747      1.86483949236238      0.61272070772839
  O   1.35253302092687      2.24031598676161      0.61577158514103
