15
Coordinates from ORCA-job run
  C   -0.56903912616610     -0.53803911282545     -0.48418921840915
  C   0.65246788191136      0.36093374861074     -0.24215564525064
  Cl  0.11270813361482     -1.99937368526235     -1.39117231731358
  H   1.07109027363313      0.72099475996219     -1.17963447127441
  N   -1.26043721208289     -0.81631901253970      0.70530098815489
  H   -2.12925359960934     -1.30806713358468      0.54476351497408
  H   -0.67895435554596     -1.29142335916491      1.38349089605417
  C   -1.46938765309602      0.11101125660015     -1.44133479503580
  N   -2.21878321071801      0.58918593353185     -2.20955951289712
  N   1.76214001843581     -0.31435558960669      0.50190118681752
  O   2.88802318265576      0.07442761235656      0.21066959014801
  O   1.46859399842059     -1.14761018187195      1.35177354742257
  N   0.23370012232306      1.56692318839788      0.56780822647510
  O   -0.38427090492901      2.40718431101540     -0.07171787594736
  O   0.52240245115280      1.58652726438096      1.75505588608173
