15
Coordinates from ORCA-job run
  C   -0.53696579375800     -0.66867410373424     -0.41280632799042
  C   0.66484316685767      0.29260214567045     -0.36735414520387
  Cl  -0.06568948101371     -2.07412119273544     -1.41549000287006
  H   1.11559373105967      0.41944454993785     -1.34970848674932
  N   -0.85537140850132     -1.14506432625288      0.89879901941866
  H   -1.58303817331722     -1.84816573964043      0.85170077340106
  H   -1.15729014486725     -0.37322383735461      1.48332707600954
  C   -1.63004980097210      0.00809351530240     -1.13870612661212
  N   -2.52871099456486      0.52935801376084     -1.68998985527235
  N   1.72600055465809     -0.23520470564967      0.56531650331524
  O   2.50496896851916     -1.03332894581955      0.06379388133406
  O   1.69865002842004      0.16415184494107      1.72080145092243
  N   0.29176458797857      1.65493823031777      0.13544067367194
  O   -0.67313096387703      1.74447843579967      0.88919967835834
  O   1.02642572337829      2.56371611545677     -0.23432411173312
