15
Coordinates from ORCA-job run
  C   -0.55977363113757     -0.64241385311490     -0.52812684777652
  C   0.63508978138237      0.31581144469110     -0.27512778997649
  Cl  0.16128277944295     -1.97742337490295     -1.50755598475739
  H   1.05665045539426      0.68463150790825     -1.20721242316815
  N   -1.26287802261548     -1.17630250087138      0.58020380045799
  H   -0.63120346538463     -1.50990373346958      1.29556012685856
  H   -1.93627390108414     -0.52451253500226      0.95974331717149
  C   -1.49595414142939      0.09304744140170     -1.38637124849114
  N   -2.24851549257472      0.70670101580918     -2.04813043851436
  N   1.76166129761836     -0.31104291116902      0.48895363771473
  O   2.87608388784148      0.11837208023047      0.20684208507902
  O   1.49381361312805     -1.15814939091254      1.33415564308878
  N   0.17337886283828      1.50836095767845      0.51090679875950
  O   -0.06212023477921      1.32508243188502      1.70154785935392
  O   0.03875821135940      2.54874141983847     -0.12538853579992
