15
Coordinates from ORCA-job run
  C   -0.61517739307447     -0.51777837062964     -0.56873713535256
  C   0.66514263574418      0.21600292762902     -0.12206865371641
  Cl  -0.62403107206081     -0.35560371670064     -2.35771922202869
  H   1.54018492405420     -0.24677227076273     -0.57838480224905
  N   -0.62792134409400     -1.91394382938253     -0.25357495408959
  H   0.17749039864909     -2.39452635116883     -0.63488641840664
  H   -0.71304603724773     -2.06077398987690      0.74390145968721
  C   -1.82984824624343      0.10853111726257     -0.04000382679434
  N   -2.83654127955395      0.56537371045409      0.35750592989156
  N   0.87220423841158      0.18360583635878      1.37096327553093
  O   -0.00273945353109     -0.31161572015214      2.07362929368448
  O   1.93048229508699      0.67274563104226      1.74556918013388
  N   0.68683319112150      1.67015162862580     -0.49102603695316
  O   1.45362478011659      1.99670783605587     -1.38810566381514
  O   -0.07865763737866      2.38889556124502      0.14393757447752
