15
Coordinates from ORCA-job run
  C   -0.55608158077020     -0.52668043651428     -0.51165799820294
  C   0.64770325248733      0.38174644262668     -0.22109367129450
  Cl  0.15719307284732     -1.93541557814838     -1.47486400743638
  H   1.06678126308694      0.78897976270338     -1.13884302722259
  N   -1.25188592706510     -0.86735275752050      0.65913315650340
  H   -2.11079672500923     -1.36618308920140      0.47000343998859
  H   -0.66783637971702     -1.36144904953122      1.32140552476683
  C   -1.46017725430494      0.14844579901285     -1.44703415878529
  N   -2.21135688496356      0.64763322081254     -2.20001579329651
  N   1.76309904106283     -0.30629793011769      0.50226636775109
  O   2.88453016745121      0.11216801090562      0.23592224028486
  O   1.47735270571889     -1.17920403720261      1.31408024599567
  N   0.20246502506109      1.54461631285180      0.63645659796323
  O   -0.42307835571352      2.40246017639188      0.02826331400294
  O   0.48108857982795      1.51753315293133      1.82597776898158
