15
Coordinates from ORCA-job run
  C   -0.60879683298144     -0.51604186960175     -0.58027372742410
  C   0.68799153836199      0.19781058959224     -0.15006979509167
  Cl  -0.53901186661480     -0.53755406430366     -2.37578462765056
  H   1.55343368983364     -0.35162150141583     -0.51671268030390
  N   -0.69062295442948     -1.86409848189872     -0.11038911319694
  H   -0.99094679886181     -1.92068463174068      0.85407275810692
  H   0.17140189913850     -2.37614825476830     -0.24991708104744
  C   -1.81162777538770      0.19341432190051     -0.13700855033529
  N   -2.80772032648102      0.66534352057351      0.26952566138030
  N   0.77558227600386      0.21838960807266      1.34947969344239
  O   1.35020217077138     -0.74045840938605      1.85632857161597
  O   0.23131920016158      1.15296175964339      1.92659145627086
  N   0.84217507674897      1.61615269351055     -0.61202374033384
  O   2.00187444480784      2.01838288311425     -0.61474001906746
  O   -0.16525374107151      2.24415183670789     -0.90807880636525
