15
Coordinates from ORCA-job run
  C   -0.57265517347698     -0.52015196245480     -0.52514565165549
  C   0.75404728849007      0.19822953908516     -0.22474165779784
  Cl  -0.62455020916010     -0.85227589426104     -2.27874257640540
  H   1.55840801279032     -0.24771092889584     -0.80899426806295
  N   -0.51339176139443     -1.79843070127406      0.15323088760258
  H   -0.79529529173897     -1.68788605653767      1.12183360086125
  H   -1.14252190955612     -2.45239148103991     -0.29671658979577
  C   -1.74650266599022      0.29465181887565     -0.17881980628856
  N   -2.71720656692261      0.87942885930980      0.13410188023944
  N   1.11530881843249      0.05719797880010      1.21749098832590
  O   0.20432226386189      0.24707354736510      2.01988957613818
  O   2.28180632632138     -0.21508250050779      1.46790845718136
  N   0.72640881692322      1.68195015857838     -0.51884994764674
  O   0.08498624961156      2.01780928987987     -1.50445159631982
  O   1.38683580180850      2.39858833307703      0.22100670362388
