15
Coordinates from ORCA-job run
  C   -0.59950839164557     -0.46267347026171     -0.49373087162385
  C   0.71546641255569      0.21471877321496     -0.10887955264471
  Cl  -0.62335524671530     -0.42421018035071     -2.32692430453349
  H   1.55961773153014     -0.30536751884508     -0.55837304979911
  N   -0.57713198049471     -1.76620784831137      0.06139589077204
  H   -1.46131491693920     -2.24458208675628     -0.05515282282437
  H   0.17756717660394     -2.33109835890202     -0.30976307164003
  C   -1.80335382020645      0.22472827839971     -0.02398279217061
  N   -2.83274208387780      0.64870853747012      0.35152681991626
  N   0.89843872579500      0.15903340103630      1.38164463832093
  O   1.73416052284714     -0.63617016417315      1.79125162742642
  O   0.18116054008230      0.90479244316153      2.03800519428245
  N   0.83325507784976      1.65698271195885     -0.50144032228528
  O   -0.18987653338934      2.28547793914403     -0.73533168348154
  O   1.98661678600439      2.07686754321480     -0.50824569971509
