15
Coordinates from ORCA-job run
  C   -0.56927594769088     -0.51406169396370     -0.41393556980590
  C   0.34846530631330      0.51595161530641      0.26642623599547
  Cl  0.19077125934765     -1.25835863831918     -1.83707549805541
  H   -0.20781199519682      1.05330366460808      1.03805363204237
  N   -0.79632198169597     -1.56005629805782      0.55619014477753
  H   -1.31851001630627     -2.31682117918242      0.12975703981217
  H   -1.31845842328210     -1.20797552490024      1.35299782851911
  C   -1.80274193609821      0.16417054555986     -0.84935818674839
  N   -2.85028768421741      0.64159132476639     -1.08999396455560
  N   0.90924353602884      1.56951381583704     -0.65039909878457
  O   1.90608032284533      2.14606726787865     -0.23751500086105
  O   0.28125541233542      1.80432365212773     -1.67414848857160
  N   1.47753886076686     -0.17546571432529      0.96438408345377
  O   2.37251799939421     -0.61974627496070      0.26021099635376
  O   1.37653528745603     -0.24243656237481      2.18440584642834
