15
Coordinates from ORCA-job run
  C   -0.52567282383305     -0.65843470464124     -0.44346289659103
  C   0.66205981557104      0.31648538298607     -0.34976506490631
  Cl  -0.02828611141579     -2.01396852783591     -1.50147541889970
  H   1.11500345755085      0.49267337384186     -1.32344576375130
  N   -0.84525051071460     -1.19424574266282      0.84463193734025
  H   -1.16137666151020     -0.45170368509873      1.45885060209976
  H   -1.56326604750923     -1.90409184898486      0.76323558361192
  C   -1.62292347251998      0.03342557904821     -1.14876501700618
  N   -2.52177704047878      0.57075559869448     -1.68393223332795
  N   1.72686867863796     -0.23635099310185      0.56392425003893
  O   1.69055478019290      0.11329252199031      1.73532250508790
  O   2.52038888270934     -0.99940738260892      0.03158152408409
  N   0.26730867105152      1.65063868852925      0.20988272875523
  O   -0.70585108798484      1.69530511894149      0.95673712199940
  O   0.99321947025286      2.58362662090267     -0.11331985853501
