15
Coordinates from ORCA-job run
  C   -0.54772893263568     -0.62645374161291     -0.56002376591900
  C   0.63290633083365      0.33510348650826     -0.25636488917167
  Cl  0.19776748784449     -1.90987593458187     -1.58808086006685
  H   1.05702465368971      0.74812146491070     -1.16854520982616
  N   -1.25305701327715     -1.21524794400441      0.51885250698473
  H   -0.62272959658354     -1.57416971912443      1.22291235820123
  H   -1.93445915107649     -0.58662873657890      0.92235846828761
  C   -1.48630561702925      0.13319306147563     -1.39437899933511
  N   -2.24162011367563      0.76483303517233     -2.03577904375044
  N   1.76145293002697     -0.30952923753037      0.49015724205826
  O   2.87144552082764      0.15060606450768      0.24083951281350
  O   1.49894442630842     -1.19889632511914      1.29243414563252
  N   0.15027234961837      1.48647723346375      0.57616186728633
  O   0.00134254501363      2.55019183091154     -0.01683306805285
  O   -0.08625581988515      1.25027546160213      1.75728973485790
