15
Coordinates from ORCA-job run
  C   -0.58871414214086     -0.49397066228721     -0.49715773021567
  C   0.74268366984763      0.19150045593009     -0.17690444613312
  Cl  -0.74528190775256     -0.43221080167675     -2.27794275223123
  H   1.54652463233179     -0.32911967359349     -0.69394441387681
  N   -0.46076473955919     -1.88074715775517     -0.11043122972587
  H   -0.62358500342659     -1.96550796524900      0.88715953333937
  H   -1.14931783191395     -2.43624836894786     -0.60478728132271
  C   -1.75582626827962      0.19502205592176      0.07240522626020
  N   -2.74358763363878      0.64997063961736      0.51938041293744
  N   1.06481159540389      0.18441177954656      1.29265347593896
  O   2.17526605405837      0.61712956778647      1.57164312501168
  O   0.21680482632430     -0.23606777818808      2.07334719561755
  N   0.76971252979011      1.63210299552171     -0.58822610569293
  O   1.46665253635625      1.91231968627133     -1.55586294538095
  O   0.08262168259922      2.39141522710229      0.08866793547408
