15
Coordinates from ORCA-job run
  C   -0.57267101054869     -0.52997264190250     -0.48809098047714
  C   0.65591477391152      0.35694927575449     -0.23981639591607
  Cl  0.09845846292951     -1.99118765238551     -1.40493070430745
  H   1.07880915705997      0.71850545344229     -1.17473052624314
  N   -1.26700567949753     -0.81130858320970      0.69888375729897
  H   -0.68949586667502     -1.29428204594895      1.37492530711428
  H   -2.13877505830749     -1.29655303620460      0.53376670059586
  C   -1.46882092438155      0.13104600764774     -1.44073380814917
  N   -2.21984604787377      0.61536315348506     -2.20358917266923
  N   1.75870155710915     -0.33178380723316      0.50236618695897
  O   2.88799038787882      0.05012670229778      0.21531611250370
  O   1.45685467580850     -1.16611622109526      1.34809368109635
  N   0.24645876268239      1.56248998969811      0.57550131119276
  O   -0.35388096083295      2.41611191345560     -0.06327040188443
  O   0.52530777073714      1.56961149219860      1.76530893288573
