15
Coordinates from ORCA-job run
  C   -0.62379819566291     -0.46815578365395     -0.40670606196225
  C   0.28146268667427      0.51514669431604      0.35770621255199
  Cl  0.21025276619641     -1.02722724868282     -1.92399377318934
  H   -0.31490682072156      1.05940643271354      1.08947200386566
  N   -1.01154917617916     -1.50425916897268      0.48746424311611
  H   -1.81403720073715     -2.01013360145349      0.13470287372547
  H   -0.24287848278772     -2.14315663502164      0.65101924983083
  C   -1.82642730330034      0.25530471106807     -0.83426107977843
  N   -2.80311705309855      0.83160480982037     -1.14141697300904
  N   0.90753386799852      1.53487685147834     -0.55661909968000
  O   2.09920572062037      1.42286910612248     -0.80569158214761
  O   0.12630776882760      2.37944915939336     -0.97589813597377
  N   1.39210230235652     -0.13973534202933      1.12013128356012
  O   1.75517344695495     -1.26396119845787      0.79261442717235
  O   1.86267567285875      0.55597121335959      2.01247641191791
