15
Coordinates from ORCA-job run
  C   -0.63268708304480     -0.54019580437798     -0.39625857559897
  C   0.65853650887096      0.28696872211468     -0.31269953719692
  Cl  -0.10724712096456     -2.12683282153931     -1.19022987465162
  H   1.04160631352614      0.52365352337112     -1.30314068051197
  N   -1.26613672524885     -0.65322381820465      0.85118548868294
  H   -0.67720642399125     -1.10299039311241      1.54013685691319
  H   -2.17455803484569     -1.09288042271057      0.78838543149663
  C   -1.54514512988317      0.07838540097101     -1.36211793234182
  N   -2.30565738135995      0.53667412301699     -2.13161822871162
  N   1.76448742990371     -0.39087858300895      0.43474398790042
  O   1.46904868662693     -1.12146574475698      1.37362945939238
  O   2.89378500964857     -0.10634464625770      0.05081325168431
  N   0.37217258444713      1.59278081591548      0.39367106805730
  O   -0.22479394151667      2.41133661673890     -0.29212754306418
  O   0.73379530783152      1.70501303184037      1.55562682794994
