15
Coordinates from ORCA-job run
  C   -0.47580718630463     -0.63824676659874     -0.52177271196161
  C   0.71756706547795      0.29370547198048     -0.24467513269143
  Cl  0.12727811234312     -2.01180618414973     -1.49804175989267
  H   1.31858895675960      0.45413697770803     -1.13764365873709
  N   -1.00505758240438     -1.16113532779478      0.70149887502837
  H   -1.39087265043650     -0.40763966698877      1.26025931367658
  H   -1.72282600355070     -1.84940925405038      0.50841104160865
  C   -1.42884550776282      0.09113161009138     -1.38163392980467
  N   -2.21659993877488      0.65694597283181     -2.04670957619328
  N   1.61202902801772     -0.29750342163509      0.81658414118433
  O   2.44529723600363     -1.09319810755553      0.40705297400686
  O   1.41422974455258      0.05752188076441      1.97002914686692
  N   0.29203133698370      1.64016884874327      0.25879042542311
  O   -0.78631562662633      1.72262518636706      0.83963764601985
  O   1.09930301572195      2.54270278028657      0.06921320546609
