15
Coordinates from ORCA-job run
  C   -0.74992975168692     -0.43145685275637     -0.47183813254275
  C   0.66775380278124      0.11452002762688     -0.21033819852809
  Cl  -0.95955570607326     -0.29498553082459     -2.25120784591262
  H   1.40315630955089     -0.47585289758676     -0.75674258601972
  N   -0.92068871685174     -1.80612955342992     -0.11186065608019
  H   -0.90677545801241     -1.92270982443301      0.89323246436730
  H   -0.23999198476788     -2.40297462456568     -0.56558505816806
  C   -1.78750330161573      0.37179091014013      0.18016328022304
  N   -2.66100535770372      0.97868478729877      0.67873232883361
  N   1.05578635183660      0.07360595904539      1.24553689274829
  O   0.21270631302283     -0.26905193061932      2.06772943856462
  O   2.21516295279827      0.39872408211958      1.46903531728581
  N   0.84993225341595      1.54509420152167     -0.62565563019020
  O   0.27063986839666      2.37532880500786      0.06778615728484
  O   1.55031242490923      1.74541244145538     -1.60998777186588
