15
Coordinates from ORCA-job run
  C   -0.60848215026701     -0.49586017485089     -0.47067648501603
  C   0.74724081594117      0.15969506016811     -0.19333228232667
  Cl  -0.78029879871792     -0.51535795966611     -2.25038863230158
  H   1.52858530980538     -0.40229937718161     -0.70112435642922
  N   -0.52042234456242     -1.86548083741469     -0.01662419777833
  H   -1.22516916116017     -2.42438035303052     -0.48346471936881
  H   -0.68428105421081     -1.89724286245169      0.98384428125433
  C   -1.74697237217916      0.25827526845110      0.07382967946752
  N   -2.71886923584430      0.77644567085000      0.48530965905309
  N   1.08765770867698      0.19383387765094      1.27057274808748
  O   2.22580522465695      0.57043144343266      1.51882451935623
  O   0.22495538075642     -0.13661939996030      2.07804372463724
  N   0.81113982258991      1.58392633133656     -0.65546071879745
  O   0.17416465399444      2.39075222082714      0.01559710808172
  O   1.48394620052052      1.80488109183930     -1.65495032791953
