15
Coordinates from ORCA-job run
  C   -0.61442367889049     -0.48393497913137     -0.47509536144707
  C   0.74858137217002      0.15255356276572     -0.19002037341861
  Cl  -0.78720315323597     -0.47339295355700     -2.25559023520072
  H   1.52434344250121     -0.41607873412663     -0.69921572640787
  N   -0.54308607874468     -1.86130742037443     -0.04406082836051
  H   -1.26104704163416     -2.40209410367933     -0.51210567681686
  H   -0.69631032900665     -1.90634063799448      0.95754763406825
  C   -1.74461519428423      0.27383397442177      0.08160701849959
  N   -2.70953486998998      0.78407940973800      0.51870091476351
  N   1.08642712618702      0.17801908106651      1.27540765985174
  O   0.22790866576254     -0.17508479556586      2.07765199812380
  O   2.21854163676396      0.56807348804200      1.52914888661382
  N   0.83260480927191      1.57815391086971     -0.64633018464249
  O   1.53061936802889      1.79760156982518     -1.62860083080043
  O   0.18619392510061      2.38691862770020      0.01295510517384
