15
Coordinates from ORCA-job run
  C   -0.52230139922043     -0.53576147690881     -0.44683416411841
  C   0.30689148029830      0.52838206535006      0.29222968126769
  Cl  0.32804469123008     -1.19173261193810     -1.86206391604183
  H   -0.30731064253429      1.00714772409158      1.05848572463543
  N   -0.71626661285895     -1.62074080209794      0.48698257779697
  H   -1.28863553747551     -1.32517317087865      1.27213333842884
  H   -1.17230771579256     -2.39723303142510      0.02195565955804
  C   -1.78031500920244      0.07878514943218     -0.90624124681877
  N   -2.84735202758444      0.49783002836611     -1.16895071907781
  N   0.83032171910825      1.64081398666624     -0.57565145705752
  O   0.22503298408640      1.86497022291457     -1.61533778974401
  O   1.77313882166594      2.26706592722217     -0.11131563794353
  N   1.45417062384298     -0.11206488404415      1.00903608784964
  O   1.31929102128337     -0.22036411418170      2.22269605762393
  O   2.39659760315330     -0.47992501256848      0.32287580364132
