15
Coordinates from ORCA-job run
  C   -0.60217537796202     -0.48507894783861     -0.46924158675588
  C   0.71033751337774      0.21864053660195     -0.12596718175352
  Cl  -0.65409629434772     -0.50109369564612     -2.30238420615230
  H   1.55360898060311     -0.30466119913670     -0.57350946433636
  N   -0.55586887720079     -1.77117414566675      0.12331254365635
  H   0.19932487145871     -2.33846701208522     -0.24326029307637
  H   -1.43610574227336     -2.26264192342544      0.03475995757636
  C   -1.80623541886225      0.20303779227934     -0.00158170331755
  N   -2.83297547573702      0.63056359033084      0.37712159754247
  N   0.91822228325599      0.21156125764660      1.36255559729199
  O   1.76803239307332     -0.56296284823406      1.78249799557359
  O   0.20513354667984      0.97171323979219      2.00675324576853
  N   0.80568462720271      1.64946623747318     -0.56524387427549
  O   -0.22818596501697      2.25976257578021     -0.80021727024222
  O   1.95429893574870      2.08033454212859     -0.60659535749960
