15
Coordinates from ORCA-job run
  C   -0.59527227724278     -0.53154547754925     -0.50717847854379
  C   0.25071869877507      0.48570768298891      0.30550877891659
  Cl  0.32296546448422     -1.04719033740328     -1.95041611896604
  H   -0.38710286500775      1.00972934280175      1.01860889445505
  N   -1.00463455398653     -1.68930961592598      0.22838179167225
  H   -1.67840597837654     -1.47026860992606      0.95102905503156
  H   -0.21192009938958     -2.20446134967441      0.58663349396360
  C   -1.80741460031183      0.16802913583821     -0.95469980380115
  N   -2.81465101972522      0.68951201532845     -1.26140860138333
  N   0.87675630302010      1.54309733248073     -0.56630860380340
  O   2.08089341499919      1.47726838725008     -0.76752969391682
  O   0.08164156083064      2.36003504704331     -1.01337675526000
  N   1.35325592456267     -0.13083872545978      1.11081817502406
  O   1.78421580190069     -1.23118003061215      0.78481041333799
  O   1.74795422546765      0.56941520281948      2.03712745327343
