15
Coordinates from ORCA-job run
  C   -0.69825089653187     -0.46396986244508     -0.43921717198376
  C   0.32032825525392      0.44304795236413      0.30333512523334
  Cl  -0.08837089539088     -0.82176573026480     -2.07990110148229
  H   -0.15297520961577      0.88653973717105      1.18029715682398
  N   -1.00010765098978     -1.69346721196392      0.22868605770530
  H   -0.17163267458710     -2.25607392569857      0.36754240501520
  H   -1.51497019240894     -1.55033435568731      1.08808439521398
  C   -1.94772102514233      0.29899610445496     -0.56536803399968
  N   -2.97321175626079      0.87048363107858     -0.61204553241555
  N   0.80225706802212      1.58848176179363     -0.54857984259190
  O   -0.03189081243446      2.46705254911049     -0.72773439445163
  O   1.93927926169249      1.52847544347965     -0.99396546517895
  N   1.53572950925787     -0.27386430233679      0.80563561187271
  O   2.12430577027575      0.31218644095174      1.70814888751234
  O   1.85823124885977     -1.33578823200777      0.28508190272692
