15
Coordinates from ORCA-job run
  C   -0.66224819038816     -0.47500043693322     -0.48148647615906
  C   0.29587364963071      0.45058012838746      0.31690387059701
  Cl  0.07177138963551     -0.86677552741397     -2.06217228021992
  H   -0.24296504218404      0.91123188917918      1.14590419020504
  N   -1.01309158148695     -1.69041058949797      0.18868688342351
  H   -1.59219692209711     -1.52947251240045      1.00288517802417
  H   -0.19738490129087     -2.24811074012023      0.40261107883090
  C   -1.89949276477283      0.28112094594319     -0.71884262249906
  N   -2.91887661393558      0.84908945386370     -0.85523484898999
  N   0.83997392344039      1.57887631704338     -0.51999696475482
  O   2.00743954646916      1.51253197080338     -0.87702850668426
  O   0.02065721786558      2.45113553610102     -0.78028769256256
  N   1.47030422867532     -0.25292336676651      0.92587474002020
  O   1.98820925119411      0.35444899469354      1.85714914648766
  O   1.83202680924476     -1.32532206288250      0.45503430428118
