15
Coordinates from ORCA-job run
  C   -0.58777206307123     -0.52268306978210     -0.52839191716013
  C   0.24534279810124      0.47611560606057      0.31986865870508
  Cl  0.34963071726772     -1.00218459268914     -1.97162067191264
  H   -0.40249531115636      0.97783416884982      1.03986124027203
  N   -1.00482245687960     -1.69833007423417      0.17393928476936
  H   -0.21562537808868     -2.22114416762838      0.52896896429073
  H   -1.68651924048460     -1.49658342375593      0.89422182485989
  C   -1.79422974260480      0.18773274186312     -0.97409667947973
  N   -2.79090918373354      0.73288470951808     -1.27396481151252
  N   0.87629439626970      1.55932151132041     -0.51598340103098
  O   0.08600333877350      2.39624522866374     -0.93415995589808
  O   2.08018992833766      1.49371008188179     -0.71920529047214
  N   1.34238396986692     -0.15710143875298      1.12024259586227
  O   1.72801171446691      0.52355589588629      2.06485969827451
  O   1.77651651293517     -1.25037317720112      0.77546046043234
