15
Coordinates from ORCA-job run
  C   -0.52620766369787     -0.66244429155363     -0.43550219614797
  C   0.66695007398962      0.30655571794380     -0.35120770817028
  Cl  -0.02944411347469     -2.04296184136185     -1.46063524720358
  H   1.12961993147827      0.46076424197140     -1.32409185825986
  N   -0.85963060421560     -1.16935725175059      0.86121555625040
  H   -1.18368648418656     -0.41312557744562      1.45450959165149
  H   -1.57671572949999     -1.88100503311734      0.78729447849183
  C   -1.61372948886562      0.02060540453157     -1.16372324854020
  N   -2.50536946393431      0.54895882772428     -1.71951758447202
  N   1.71973756103926     -0.23598346798306      0.58324662136890
  O   1.67982603085641      0.14376669048395      1.74501554552417
  O   2.50633034130438     -1.02268608622011      0.07597164955541
  N   0.27798747547026      1.65323697627346      0.18030659561205
  O   -0.70759113619852      1.72147879639596      0.90898284997254
  O   1.02192326993497      2.57219689410781     -0.14286504563286
