16

C	-0.319657	0.056777	-1.506065
C	0.0	0.0	0.0
F	-1.699599	0.174637	-1.687617
H	1.096222	0.0	0.0
N	0.284486	1.264987	-1.991633
H	1.263329	1.285548	-1.71072
H	0.240251	1.283654	-3.004232
C	0.118797	-1.218861	-2.199896
H	-0.438476	-2.082674	-1.832127
H	1.186969	-1.370223	-2.027217
H	-0.065993	-1.115651	-3.27283
C	-0.500358	-1.218695	0.627709
N	-0.900458	-2.208242	1.117406
C	-0.506299	1.177664	0.700843
N	-0.923328	2.10031	1.294918
Br	3.361611	0.0	0.0
