16

C	-0.299889	0.030341	-1.51185
C	0.0	0.0	0.0
F	-1.674981	0.181171	-1.71501
H	1.096923	0.0	0.0
N	0.347879	1.206977	-2.018912
H	1.316146	1.221374	-1.696472
H	0.344395	1.193616	-3.032457
C	0.110684	-1.272561	-2.17137
H	-0.069772	-1.189699	-3.247577
H	1.175547	-1.444006	-1.993171
H	-0.46805	-2.114262	-1.784956
C	-0.509864	-1.203052	0.648661
N	-0.919292	-2.177631	1.16058
C	-0.502585	1.196508	0.670481
N	-0.901244	2.154244	1.219891
Br	3.36137	0.0	0.0
