16

C	-0.361325	-0.034398	-1.505346
C	0.0	0.0	0.0
F	-0.012431	1.250853	-1.986634
H	1.097562	0.0	0.0
N	0.423818	-1.053354	-2.08606
H	1.408415	-0.91858	-1.856995
H	0.300552	-1.074694	-3.090642
C	-1.836091	-0.200443	-1.792822
H	-1.997424	-0.162235	-2.873269
H	-2.397243	0.615838	-1.33559
H	-2.195369	-1.155699	-1.410042
C	-0.481192	-1.202749	0.674245
N	-0.898884	-2.157037	1.216677
C	-0.524102	1.194265	0.653452
N	-0.98002	2.142335	1.174822
Br	3.385116	0.0	0.0
