16

C	-0.437496	-0.007277	-1.485404
C	0.0	0.0	0.0
F	-0.130188	-1.26383	-1.982601
H	1.096277	0.0	0.0
N	-1.873145	0.110448	-1.577855
H	-2.169933	1.004999	-1.207635
H	-2.135962	0.072719	-2.556388
C	0.378716	0.996827	-2.275235
H	0.148553	2.013822	-1.950038
H	1.443988	0.808644	-2.123609
H	0.129086	0.898876	-3.33587
C	-0.517264	-1.167038	0.709343
N	-0.923339	-2.106006	1.284171
C	-0.461505	1.232731	0.635087
N	-0.849408	2.248364	1.080629
Br	3.403479	0.0	0.0
