16

C	-0.368036	-0.030415	-1.502739
C	0.0	0.0	0.0
F	0.009525	1.244099	-1.989348
H	1.097552	0.0	0.0
N	0.389622	-1.071963	-2.083928
H	0.257473	-1.096278	-3.088123
H	1.379567	-0.956009	-1.86486
C	-1.849195	-0.160297	-1.78216
H	-2.23296	-1.102375	-1.389324
H	-2.015735	-0.1266	-2.861922
H	-2.385423	0.675832	-1.328985
C	-0.484744	-1.199812	0.676827
N	-0.903982	-2.152111	1.221508
C	-0.516582	1.196877	0.655562
N	-0.963969	2.148374	1.177838
Br	3.389997	0.0	0.0
