16

C	-0.301848	0.023755	-1.511742
C	0.0	0.0	0.0
F	-1.675113	0.181106	-1.714103
H	1.096697	0.0	0.0
N	0.352336	1.194211	-2.02424
H	1.320842	1.201732	-1.706403
H	0.351746	1.165711	-3.037455
C	0.100127	-1.285552	-2.164699
H	1.161305	-1.467803	-1.977963
H	-0.490499	-2.119305	-1.780219
H	-0.070641	-1.205319	-3.242128
C	-0.510996	-1.198107	0.656007
N	-0.919705	-2.167897	1.177174
C	-0.502297	1.200239	0.664433
N	-0.920359	2.140744	1.229031
Br	3.3627	0.0	0.0
