14

C	0.0	0.0	0.0
C	-0.300908	-0.371418	-1.471764
Cl	1.739589	0.0	0.0
H	-0.057326	0.529217	-2.039048
H	0.444163	-1.123525	-1.731491
N	-0.432408	1.413782	0.388342
O	-0.60753	2.1803	-0.547502
O	-0.419435	1.702217	1.573016
N	-0.437329	-1.107151	0.964516
O	-0.533019	-0.863044	2.152502
O	-0.503429	-2.207105	0.431956
C	-1.555439	-0.921475	-1.989024
N	-2.202703	-1.525067	-2.768206
Cl	-3.009961	0.0	0.0
