15

C	-0.51127	0.009767	-1.422823
C	0.0	0.0	0.0
Br	0.262389	1.384277	-2.524598
H	1.089868	0.0	0.0
H	-0.255243	-0.940621	-1.884907
N	-2.010704	0.121488	-1.538665
O	-2.580883	0.868691	-0.751754
O	-2.534183	-0.523723	-2.438655
N	-0.452558	-1.252369	0.678872
O	0.136062	-1.55708	1.706685
O	-1.376411	-1.882856	0.155233
N	-0.449995	1.157713	0.845991
O	-1.131349	0.925449	1.837289
O	-0.062633	2.253386	0.467202
Cl	3.127472	0.0	0.0
