15

C	-0.614518	-0.032446	-1.379693
C	0.0	0.0	0.0
Br	-0.023793	-1.610583	-2.313793
H	1.086368	0.0	0.0
H	-1.700684	-0.042801	-1.349501
N	-0.226535	1.180724	-2.187324
O	0.675737	1.887443	-1.761241
O	-0.873567	1.349902	-3.215928
N	-0.520256	-1.191495	0.758615
O	0.288193	-1.942481	1.283168
O	-1.748746	-1.299263	0.794153
N	-0.524856	1.169657	0.776349
O	-1.354745	1.898134	0.233244
O	-0.098458	1.283318	1.918685
Cl	3.187431	0.0	0.0
