16
Coordinates from ORCA-job run
  C   0.66156602651002      0.38389103778440      0.16337759803685
  C   -0.63427491044626     -0.38970241234971     -0.18511387962733
  Cl  0.30228585841521      1.64586173605830      1.38765655822280
  H   -0.33867704995148     -1.13572726169987     -0.93485442127667
  C   1.74803909729195     -0.53389083356559      0.71336750208561
  H   2.65245803369827      0.03896891266586      0.92014039229487
  H   1.98045673242361     -1.31138995047933     -0.01921196386609
  H   1.40411036081987     -0.99858979264474      1.63839888406649
  C   1.13483884756170      1.05034001206467     -1.05168138674403
  N   1.51955830501412      1.54154572203001     -2.04750463793418
  C   -1.75073260145401      0.47966737202668     -0.76732454694501
  H   -2.59714040344225     -0.15018481375719     -1.04567844191180
  H   -1.39761545489921      0.99898629879486     -1.66010704417750
  H   -2.09065055745966      1.21439406755884     -0.03799875992622
  C   -1.10121201341831     -1.12202847676809      0.99366473983358
  N   -1.49301027066355     -1.71114161771911      1.93086940786863
