16
Coordinates from ORCA-job run
  C   0.65463395975666      0.37666563781404      0.50962630265553
  C   -0.86565430371163      0.18606926621612      0.26016056610421
  Cl  1.03394924032393     -0.26791457083069      2.14562079115746
  H   -1.38586418129106      0.69441269691550      1.07983440923988
  C   1.52975798769848     -0.32742465005536     -0.51909072998654
  H   1.28641280150522      0.03353155772053     -1.52149403152341
  H   2.58023968109209     -0.11895289968340     -0.31452360301792
  H   1.37489781606709     -1.40523545479282     -0.47041494046054
  C   0.95369846029206      1.81022560188764      0.53289616835905
  N   1.19111896967839      2.96127285398030      0.52812575698098
  C   -1.31507517353414     -1.27673694952906      0.20285685333720
  H   -2.40359711173277     -1.31411754092825      0.13618690838069
  H   -0.90862767081771     -1.78276793687822     -0.67323405851287
  H   -1.00667872697110     -1.80775672222102      1.10317731456675
  C   -1.22049376103382      0.86570347791233     -0.98885723543009
  N   -1.49771798732169      1.37402563247237     -2.01087047185037
