16
Coordinates from ORCA-job run
  C   0.67249742493073      0.39003557192878      0.08446973094440
  C   -0.64442613278977     -0.40441108684273     -0.09987588590258
  Cl  0.31182534663628      2.00736743702210      0.77392249489651
  H   -0.34668134025205     -1.37320621952695     -0.52268005161556
  C   1.65100899158002     -0.32671957752825      1.00853302000267
  H   2.57503764364702      0.24611094299616      1.09197345435993
  H   1.20995150968660     -0.43342739777519      2.00053619546166
  H   1.88246224169599     -1.31632498055103      0.60550982322161
  C   1.27711736927892      0.58305892508007     -1.23519220569611
  N   1.76592604852334      0.68998689001641     -2.29848624376697
  C   -1.65309113373583      0.25638714219742     -1.04170393817871
  H   -2.51853593171054     -0.39622779124203     -1.16693420952745
  H   -1.20113831175262      0.42324903414587     -2.02113948582821
  H   -1.99350003183024      1.20973324436651     -0.63859962739496
  C   -1.24492994033280     -0.66897211594810      1.20907534066323
  N   -1.74252375357504     -0.88464001833905      2.25059158836053
