16
Coordinates from ORCA-job run
  C   0.62650414360021      0.45221826641662      0.11888402486598
  C   -0.59916877971621     -0.45814911588017     -0.14088066430679
  Cl  0.19119307183889      1.72868329636559      1.30327197962035
  H   -0.26010634291668     -1.20903639329911     -0.86694324396113
  C   1.81812260428232     -0.32970875730567      0.66092440165893
  H   1.55707024071518     -0.78132407590148      1.61898070287748
  H   2.66930578653036      0.33654495565673      0.80405991742403
  H   2.09736165293637     -1.11481152202144     -0.04678932745287
  C   0.98541466594897      1.10593524534733     -1.14145120074312
  N   1.28187367497733      1.58910887899957     -2.17080740501296
  C   -1.81569357583900      0.27048346501379     -0.71567850371846
  H   -2.60731022462591     -0.45010190619098     -0.92711124598769
  H   -2.19702286646083      1.00642776285842     -0.00835318426295
  H   -1.54865964482686      0.77410295718903     -1.64654232328467
  C   -0.94927922879045     -1.17205496757274      1.08886807815943
  N   -1.24760517765371     -1.74831808967550      2.06756799412444
