16
Coordinates from ORCA-job run
  C   0.66484785346615      0.34586303437374      0.51770496185561
  C   -0.85952115700030      0.14404974002426      0.30425663019301
  Cl  1.11494469874341     -0.42992240001631      2.07689809044602
  H   -1.35979348039702      0.56997650391448      1.18133994000836
  C   1.51627115781377     -0.24591691037589     -0.59787447505573
  H   2.56905843772558     -0.03150219913526     -0.41174244746178
  H   1.38535201443145     -1.32731756973005     -0.63838107457431
  H   1.22970225727787      0.19460096238074     -1.55602516251766
  C   0.93672639295526      1.77818333074089      0.65669933417691
  N   1.15403487917408      2.92979308446768      0.74589295713455
  C   -1.28361217932930     -1.31812016244795      0.13764216238227
  H   -0.93855375837521     -1.91594851994391      0.98109491313809
  H   -2.37281024608865     -1.37195264267715      0.09918431795238
  H   -0.89458550583829     -1.74085677818171     -0.78917782456403
  C   -1.27044131814964      0.91806907675847     -0.87053877144110
  N   -1.59262004640915      1.50100144984796     -1.83797355167259
