16
Coordinates from ORCA-job run
  C   0.64233320478130      0.44142563135927      0.05891773301369
  C   -0.61492776185361     -0.45322084081312     -0.07575955674216
  Cl  0.20044439218015      1.98975883994252      0.85186549599439
  H   -0.26980906085696     -1.37450805525953     -0.56371473147031
  C   1.73989357670959     -0.22982476687528      0.87746466518128
  H   2.02447797568030     -1.17553255157769      0.40844717823905
  H   2.61624458162347      0.41691106712935      0.92942560533076
  H   1.38022611597065     -0.42073515253923      1.88948760981498
  C   1.13348358895594      0.74404641256579     -1.28702976095036
  N   1.53513210480224      0.94058471180405     -2.37378387008585
  C   -1.73793372064281      0.15934250767810     -0.91532260759484
  H   -2.12489787988610      1.06297467664127     -0.44536338533022
  H   -1.37151950706159      0.40447542444620     -1.91380160325837
  H   -2.55440099882552     -0.55781595878888     -1.01302647549424
  C   -1.09832413516375     -0.82321709926872      1.25583356198727
  N   -1.50242247641329     -1.12466484644408      2.31636014136493
