16
Coordinates from ORCA-job run
  C   0.63665007777847      0.37437469210733      0.53293405789062
  C   -0.87417683065106      0.17778973518205      0.23554293260059
  Cl  0.97048411069588     -0.28648626501892      2.17240001610128
  H   -1.42206253665373      0.67367970325739      1.04474260666800
  C   1.54683877715098     -0.31288374306382     -0.47659027909238
  H   2.58928031342845     -0.09986066500491     -0.23830322030222
  H   1.39799115137257     -1.39212206076078     -0.44412028320050
  H   1.33122130579839      0.05736343971033     -1.48192248719003
  C   0.92610424796502      1.80926428088857      0.58142395346189
  N   1.15738843612998      2.96139284075135      0.59877103509256
  C   -1.31300594525121     -1.28669576429811      0.14849124767201
  H   -2.39846892369136     -1.32911422500359      0.04501320008630
  H   -1.03188353413361     -1.82520541885751      1.05336255319830
  H   -0.87449213544942     -1.78173676778639     -0.71839043918791
  C   -1.19545651538004      0.87022946463387     -1.01551234588674
  N   -1.44541199910931      1.39001075326314     -2.03884254791179
