16
Coordinates from ORCA-job run
  C   0.65580815383573      0.33367302496110      0.53685515043593
  C   -0.86393730258438      0.12965642472207      0.29535400329647
  Cl  1.08842023308479     -0.48668673300645      2.07824862033625
  H   -1.37974406752778      0.52675998233693      1.17692711929032
  C   1.52644584085897     -0.21937251830779     -0.58379838210604
  H   1.40152834577287     -1.29952849437094     -0.65916968566972
  H   1.25123478343273      0.24892938033333     -1.53201692422727
  H   2.57522524006091     -0.00574240066933     -0.37608017384438
  C   0.91679541806590      1.76272336247397      0.72394096772049
  N   1.12306753361305      2.91246990237661      0.85318088041582
  C   -1.27686146399434     -1.32913300645412      0.07967483072554
  H   -0.93810930179176     -1.94994553523972      0.90887354049306
  H   -0.87442227730738     -1.72184082188286     -0.85449336038585
  H   -2.36518084471164     -1.38826777434711      0.02675534889211
  C   -1.26303820694463      0.93658060183847     -0.86125869388062
  N   -1.57623208386304      1.54972460523584     -1.81299324149213
