16
Coordinates from ORCA-job run
  C   0.67872617877704      0.44731234902321      0.39703428827478
  C   -0.77585150722116     -0.07311281435491      0.46819175189412
  Cl  1.05230731242191      1.25289858928018      1.95842397593810
  H   -0.81908806611897     -0.73502692048671      1.34129704549903
  C   1.68418153878309     -0.68005853353117      0.18584177625217
  H   1.54609420373025     -1.44236388189896      0.95573701169677
  H   2.69815228456498     -0.28644645113607      0.26025090201280
  H   1.55875666219018     -1.12738250776374     -0.80119092683024
  C   0.79888626710664      1.43897442004400     -0.67265535830704
  N   0.89100310393244      2.18946113424759     -1.57249452511189
  C   -1.19686479359763     -0.83945864736057     -0.79068311445908
  H   -2.24884509807439     -1.11810009741402     -0.71257255699734
  H   -1.07614447029664     -0.21910133564219     -1.68138183252220
  H   -0.61305489473941     -1.75288623301509     -0.90590843487569
  C   -1.70211003653231      1.03686285213281      0.70694045276203
  N   -2.47414868492602      1.90742807787563      0.86416954477369
