16
Coordinates from ORCA-job run
  C   0.68832864615709      0.37130322412647     -0.00403276355372
  C   -0.66141468948298     -0.38855656029963     -0.01205592582104
  Cl  0.42747178879073      2.06138438065152      0.54060508156278
  H   -0.42476247980702     -1.40471937152920     -0.35467324345519
  C   1.71154764442846     -0.28515365730608      0.91640092529360
  H   2.65582405684556      0.25836746127899      0.87436538966935
  H   1.34288082672140     -0.27549009703776      1.94299015246511
  H   1.88264272161879     -1.31804043965897      0.60163132426961
  C   1.19798389141469      0.40937819263562     -1.37634929704191
  N   1.60709880287800      0.39216633169121     -2.47780654107747
  C   -1.71805240805342      0.21224943386057     -0.94151344989186
  H   -1.33532352328056      0.26673833334001     -1.96226714894291
  H   -2.60822108134018     -0.41875394017589     -0.93914374868568
  H   -2.00093209803608      1.21180018163905     -0.61268318068463
  C   -1.16989492261928     -0.50000364124761      1.35650522903112
  N   -1.59517717623521     -0.59366983196829      2.44702719686284
