16
Coordinates from ORCA-job run
  C   0.65481306226434      0.33355744434647      0.53759552343710
  C   -0.86522526944494      0.14347289725724      0.28628140068335
  Cl  1.06588308390445     -0.47152150459177      2.09304696430712
  H   -1.38350621930793      0.55913198028734      1.15767874056476
  C   1.52838097714635     -0.24357314802549     -0.56857562476164
  H   1.39142593768457     -1.32314125404724     -0.63185626389884
  H   1.26717120896897      0.21629241645810     -1.52497905313399
  H   2.57783922412211     -0.03975239207235     -0.35408270843475
  C   0.93043203494131      1.76189073100391      0.70850863157867
  N   1.15177476973907      2.91020341511605      0.82463943658449
  C   -1.29351422699834     -1.31328241754419      0.08814405997218
  H   -0.97100514112286     -1.92525990547793      0.93022563464252
  H   -0.88599429579843     -1.72492470066528     -0.83559713783609
  H   -2.38186692247729     -1.36025918120486      0.02436758187035
  C   -1.24457823680176      0.93812568503516     -0.88513068363481
  N   -1.54002998681961      1.53903993412485     -1.85026650194041
