16

C	-0.413226	-0.031003	-1.46926
C	0.0	0.0	0.0
Br	-2.357953	0.088698	-1.704234
H	1.096652	0.0	0.0
N	0.194748	1.171459	-2.218321
O	1.012876	0.913185	-3.088234
O	-0.19256	2.272942	-1.864424
C	0.024823	-1.254611	-2.12633
N	0.262972	-2.289564	-2.630408
C	-0.419233	-1.270338	0.746917
H	-1.50471	-1.383817	0.786713
H	-0.026568	-1.206525	1.762701
H	0.030551	-2.143835	0.272332
C	-0.503726	1.177595	0.694907
N	-0.903336	2.06871	1.34823
Br	3.34143	0.0	0.0
