16

C	-0.435568	0.011905	-1.475714
C	0.0	0.0	0.0
Br	0.424266	-1.401479	-2.471487
H	1.095921	0.0	0.0
N	-1.967034	-0.190173	-1.518472
O	-2.397095	-1.333116	-1.555805
O	-2.627919	0.838301	-1.410969
C	-0.144896	1.278098	-2.133771
N	0.079778	2.300294	-2.669549
C	-0.451778	-1.239599	0.774967
H	-0.138471	-2.143234	0.252406
H	0.050662	-1.219247	1.743495
H	-1.53209	-1.266277	0.933277
C	-0.472237	1.214254	0.660041
N	-0.837512	2.169383	1.239733
Br	3.361982	0.0	0.0
