16

C	-0.513704	0.029851	-1.450449
C	0.0	0.0	0.0
Br	0.28254	1.482002	-2.443766
H	1.094836	0.0	0.0
N	-0.131056	-1.310578	-2.107777
O	-1.005615	-2.173275	-2.069911
O	1.002565	-1.426994	-2.53548
C	-1.965113	0.158794	-1.518275
N	-3.134294	0.28628	-1.529342
C	-0.459761	-1.24873	0.760263
H	0.020135	-2.135167	0.344385
H	-0.126329	-1.151567	1.794673
H	-1.545054	-1.374697	0.741783
C	-0.46963	1.208542	0.670708
N	-0.860017	2.154213	1.249076
Br	3.387318	0.0	0.0
