16

C	-0.501774	0.032108	-1.45311
C	0.0	0.0	0.0
Br	0.319384	1.471281	-2.449764
H	1.094855	0.0	0.0
N	-0.105916	-1.306093	-2.101223
O	-1.021668	-2.100419	-2.292986
O	1.08037	-1.484996	-2.30172
C	-1.951182	0.16685	-1.538664
N	-3.120062	0.292635	-1.570634
C	-0.477418	-1.256158	0.736678
H	-0.135707	-1.192717	1.770868
H	-0.018026	-2.142279	0.295681
H	-1.565829	-1.358163	0.723112
C	-0.472993	1.206627	0.671215
N	-0.866433	2.155296	1.24255
Br	3.42308	0.0	0.0
