16

C	-0.524119	-0.007638	-1.443311
C	0.0	0.0	0.0
Br	0.276961	1.398968	-2.503391
H	1.094884	0.0	0.0
N	-0.123435	-1.356343	-2.066404
O	1.073098	-1.558344	-2.178851
O	-1.041453	-2.130063	-2.335035
C	-1.976493	0.117752	-1.505042
N	-3.147082	0.240541	-1.502106
C	-0.478101	-1.240863	0.763648
H	-1.567818	-1.33342	0.761621
H	-0.032964	-2.138143	0.330746
H	-0.126456	-1.168425	1.793784
C	-0.470563	1.215848	0.655061
N	-0.860081	2.168888	1.222075
Br	3.409832	0.0	0.0
