15

C	-0.39458	0.009396	-1.454873
C	0.0	0.0	0.0
F	0.383939	0.819447	-2.194996
H	1.096563	0.0	0.0
C	-0.36918	-1.345865	-2.025464
N	-0.385585	-2.420183	-2.501393
N	-1.859101	0.497858	-1.66218
O	-2.076871	1.20763	-2.629594
O	-2.668134	0.076903	-0.84752
C	-0.479593	-1.143481	0.737676
N	-0.810343	-2.09466	1.344695
N	-0.390399	1.258636	0.666865
O	-0.634274	2.225879	-0.056539
O	-0.36822	1.274087	1.893146
F	2.391934	0.0	0.0
