16

C	0.0	0.0	0.0
C	-0.586886	0.088111	-1.401746
Cl	1.790835	0.0	0.0
H	-1.690668	0.121593	-1.121162
H	-0.32123	-0.956448	0.412996
C	-0.486711	1.125869	0.891947
H	-1.580919	1.048879	0.848333
H	-0.129075	2.089619	0.518081
H	-0.117301	0.990346	1.912264
C	-0.273022	-1.13685	-2.258249
H	-0.734891	-1.049141	-3.24474
H	0.804977	-1.270665	-2.39109
H	-0.683267	-2.024446	-1.769337
C	-0.169804	1.308697	-2.077566
N	0.175549	2.271615	-2.657958
F	-2.884041	0.0	0.0
