16

C	0.0	0.0	0.0
C	-0.292229	-0.050578	-1.54395
Cl	1.792648	0.0	0.0
H	0.486603	0.56803	-2.004337
H	-0.332348	-0.92606	0.46718
C	-0.636448	1.182446	0.677811
H	-0.350291	2.12111	0.194322
H	-0.345068	1.225412	1.731097
H	-1.726525	0.991708	0.585311
C	-1.645862	0.445881	-2.060226
H	-2.476304	0.049273	-1.440683
H	-1.679892	1.533983	-1.95278
H	-1.719342	0.206925	-3.12642
C	-0.029226	-1.413614	-2.01957
N	0.176119	-2.495689	-2.429381
F	-3.23947	0.0	0.0
