16

C	0.0	0.0	0.0
C	-0.295634	-0.057313	-1.542314
Cl	1.792528	0.0	0.0
H	0.478217	0.565729	-2.006826
H	-0.327749	-0.925195	0.472498
C	-0.638196	1.185293	0.674679
H	-0.349684	2.122662	0.189244
H	-1.727872	0.995047	0.583481
H	-0.343646	1.230321	1.727607
C	-1.653616	0.4302	-2.058704
H	-2.483536	0.035846	-1.43713
H	-1.689148	1.518227	-1.961979
H	-1.72528	0.179336	-3.122189
C	-0.026154	-1.421084	-2.013987
N	0.17417	-2.506782	-2.416646
F	-3.256199	0.0	0.0
