16

C	0.0	0.0	0.0
C	-0.576366	0.083313	-1.406685
Cl	1.790808	0.0	0.0
H	-1.680297	0.116544	-1.144417
H	-0.314189	-0.956751	0.4172
C	-0.478704	1.133871	0.886516
H	-0.106842	2.090546	0.509216
H	-1.573772	1.071235	0.844007
H	-0.109599	0.999092	1.906979
C	-0.244692	-1.141306	-2.258251
H	-0.701799	-1.062359	-3.247664
H	0.835748	-1.260587	-2.384254
H	-0.646092	-2.032235	-1.767974
C	-0.148712	1.301256	-2.083183
N	0.223486	2.255264	-2.662008
F	-2.87767	0.0	0.0
