16

C	0.0	0.0	0.0
C	-0.254852	0.095809	-1.563767
Cl	1.792719	0.0	0.0
H	0.491127	0.828773	-1.913311
H	-0.337708	-0.946043	0.402858
C	-0.477015	1.216142	0.758135
H	-0.087142	1.212968	1.779443
H	-1.573013	1.143071	0.736917
H	-0.090285	2.111688	0.256981
C	-1.581698	0.511	-2.223106
H	-2.009685	1.383306	-1.742018
H	-2.336078	-0.266761	-2.125918
H	-1.339604	0.740022	-3.271164
C	0.152536	-1.188735	-2.152188
N	0.411478	-2.223789	-2.64271
F	-2.886663	0.0	0.0
