16

C	0.0	0.0	0.0
C	-0.480446	-0.004505	-1.48623
Cl	1.793989	0.0	0.0
H	0.414246	-0.062548	-2.117864
H	-0.29645	-0.937171	0.465872
C	-0.504635	1.142671	0.853427
H	-0.167765	2.109194	0.470854
H	-0.128757	1.027076	1.874049
H	-1.599529	1.028499	0.813514
C	-1.306617	1.210778	-1.918283
H	-2.214315	1.173877	-1.306151
H	-0.737892	2.134035	-1.776372
H	-1.548976	1.120329	-2.982012
C	-1.210498	-1.245768	-1.769177
N	-1.650065	-2.277506	-2.118482
F	-2.847808	0.0	0.0
