14

C	0.0	0.0	0.0
C	-0.614727	0.057413	-1.355515
F	1.385058	0.0	0.0
H	-1.798649	0.088493	-0.900389
H	-0.336969	0.852906	0.586824
H	-0.346948	-0.915928	0.48569
C	-0.360811	-1.14808	-2.229449
H	-0.751543	-2.031633	-1.706807
H	0.713591	-1.279095	-2.410569
H	-0.867095	-1.04468	-3.192261
N	-0.316357	1.301917	-2.01316
O	-0.168532	1.315764	-3.25163
O	-0.287753	2.341424	-1.333928
H	-2.785627	0.0	0.0
