14

C	0.0	0.0	0.0
C	-0.502154	0.042559	-1.414547
F	1.38504	0.0	0.0
H	-1.616954	0.100317	-1.253578
H	-0.357445	-0.907337	0.486322
H	-0.350393	0.868191	0.552219
C	-0.070554	-1.15121	-2.23649
H	-0.465976	-1.103434	-3.250526
H	-0.457572	-2.052802	-1.755935
H	1.018445	-1.217016	-2.290676
N	-0.051275	1.313633	-2.0274
O	0.397209	1.304075	-3.178352
O	-0.186065	2.345372	-1.360972
H	-2.951682	0.0	0.0
