14

C	-0.61057	-0.001948	-1.387231
C	0.0	0.0	0.0
F	-0.159751	-1.060175	-2.118661
H	1.09381	0.0	0.0
H	-1.704371	-0.014136	-1.38393
N	-0.25335	1.264892	-2.123753
O	0.858143	1.330639	-2.628215
O	-1.130017	2.127993	-2.164608
C	-0.458382	-1.197529	0.69714
N	-0.845985	-2.141297	1.28346
N	-0.319621	1.24399	0.690532
H	0.525387	1.521789	1.179505
H	-1.073886	1.144328	1.353588
H	2.633819	0.0	0.0
