14

C	-0.398894	0.097772	-1.451751
C	0.0	0.0	0.0
F	-1.735139	0.392798	-1.617574
H	1.093646	0.0	0.0
H	0.196579	0.864435	-1.94858
N	-0.134665	-1.180556	-2.201678
O	0.962483	-1.268923	-2.744997
O	-1.019008	-2.032715	-2.196289
C	-0.539119	-1.186105	0.651926
N	-0.928573	-2.147311	1.206229
N	-0.350641	1.207889	0.733008
H	-1.177744	1.651275	0.356942
H	0.446841	1.834665	0.679386
H	2.624567	0.0	0.0
