14

C	-0.634541	0.051184	-1.36589
C	0.0	0.0	0.0
F	-0.229125	-0.976955	-2.170018
H	1.095545	0.0	0.0
H	-1.726038	0.054868	-1.327206
N	-0.287739	1.326046	-2.10183
O	0.694262	1.971107	-1.761887
O	-1.035344	1.587869	-3.047563
C	-0.446533	-1.223751	0.651195
N	-0.825584	-2.196873	1.192664
N	-0.438515	1.204746	0.726867
H	0.419396	1.699116	0.962955
H	-0.896788	0.952078	1.592371
H	2.672296	0.0	0.0
