14

C	-0.597569	-0.020757	-1.392837
C	0.0	0.0	0.0
F	-0.131834	-1.081943	-2.109305
H	1.093851	0.0	0.0
H	-1.690585	-0.039852	-1.407477
N	-0.238242	1.240667	-2.136678
O	-1.123898	2.090043	-2.208917
O	0.885002	1.3175	-2.613292
C	-0.467005	-1.189707	0.704983
N	-0.860394	-2.128191	1.29629
N	-0.323203	1.252415	0.670335
H	-1.103495	1.166323	1.306707
H	0.510199	1.523455	1.186881
H	2.637885	0.0	0.0
