14

C	-0.61378	0.006041	-1.386302
C	0.0	0.0	0.0
F	-0.17317	-1.054046	-2.12043
H	1.093827	0.0	0.0
H	-1.707707	0.00378	-1.38262
N	-0.246462	1.271341	-2.123071
O	-1.111233	2.144256	-2.150356
O	0.861526	1.328446	-2.638327
C	-0.460005	-1.201158	0.688924
N	-0.852866	-2.145568	1.271254
N	-0.324366	1.238885	0.69769
H	0.526405	1.527648	1.17295
H	-1.064036	1.123958	1.373915
H	2.635409	0.0	0.0
