14

C	-0.490083	0.052066	-1.442456
C	0.0	0.0	0.0
F	-0.019805	-1.009758	-2.148184
H	1.095429	0.0	0.0
H	-1.581365	0.082228	-1.54101
N	-0.024911	1.318849	-2.125571
O	0.935697	1.266469	-2.873104
O	-0.698306	2.321248	-1.872404
C	-0.527507	-1.23316	0.577878
N	-0.953023	-2.226914	1.040343
N	-0.335161	1.152972	0.825376
H	-1.068286	1.712462	0.418356
H	0.512039	1.713069	0.882813
H	2.636064	0.0	0.0
