14

C	-0.400589	-0.032205	-1.452744
C	0.0	0.0	0.0
F	0.07788	1.074439	-2.081515
H	1.102336	0.0	0.0
H	-0.040781	-0.92965	-1.957394
N	-1.902874	-0.021559	-1.623405
O	-2.457928	1.041843	-1.870852
O	-2.453204	-1.111649	-1.473137
C	-0.468176	-1.17965	0.710504
N	-0.772267	-2.125638	1.338396
N	-0.527966	1.225351	0.62837
H	-0.169138	1.223307	1.579998
H	-0.033592	1.987947	0.170839
H	2.683597	0.0	0.0
