14

C	-0.407315	-0.006123	-1.451116
C	0.0	0.0	0.0
F	0.089915	1.097614	-2.06744
H	1.10228	0.0	0.0
H	-0.069573	-0.902116	-1.97152
N	-1.90946	0.039151	-1.613208
O	-2.483548	-1.035668	-1.453143
O	-2.440131	1.112271	-1.864287
C	-0.470364	-1.186918	0.695948
N	-0.784416	-2.131459	1.320878
N	-0.517538	1.220246	0.648689
H	-0.1809	1.185475	1.60785
H	0.005462	1.981696	0.222627
H	2.682237	0.0	0.0
