14

C	-0.398666	0.105458	-1.449198
C	0.0	0.0	0.0
F	-1.713302	0.490938	-1.614674
H	1.093668	0.0	0.0
H	0.247463	0.822709	-1.958087
N	-0.234936	-1.195898	-2.188616
O	0.819461	-1.345079	-2.798199
O	-1.156876	-2.004803	-2.120193
C	-0.569261	-1.157379	0.674433
N	-0.986239	-2.090111	1.256502
N	-0.304929	1.231058	0.72219
H	0.539225	1.797265	0.700909
H	-1.078544	1.733553	0.309882
H	2.610119	0.0	0.0
