12

C	-0.345971	-0.013891	-1.490538
C	0.0	0.0	0.0
Cl	0.284995	1.471832	-2.278895
H	1.093148	0.0	0.0
H	-0.33674	-0.945109	0.43886
C	0.288073	-1.178003	-2.122706
N	0.769343	-2.100814	-2.666302
C	-1.789289	-0.071576	-1.759032
N	-2.949911	-0.133023	-1.935008
C	-0.611585	1.116506	0.683737
N	-1.092801	2.020728	1.26161
F	2.490191	0.0	0.0
