12

C	-0.345826	0.006841	-1.490581
C	0.0	0.0	0.0
Cl	0.285271	-1.482449	-2.272233
H	1.093117	0.0	0.0
H	-0.33772	0.946972	0.434412
C	-1.789639	0.063183	-1.758763
N	-2.950557	0.124759	-1.933524
C	0.287411	1.168207	-2.128671
N	0.7678	2.089105	-2.676678
C	-0.610861	-1.113565	0.689419
N	-1.08992	-2.015918	1.271968
F	2.490331	0.0	0.0
