13

C	-0.543072	0.070661	-1.423703
C	0.0	0.0	0.0
Br	-0.054441	-1.539437	-2.428295
H	1.092639	0.0	0.0
H	-0.022712	0.882643	-1.935757
H	-0.296043	0.926384	0.511738
C	-2.048749	0.244061	-1.489432
H	-2.551349	-0.602436	-1.018328
H	-2.388372	0.318855	-2.523888
H	-2.33552	1.157447	-0.958729
C	-0.55181	-1.120378	0.752242
N	-1.043958	-2.001866	1.351325
Br	3.541925	0.0	0.0
