13

C	-0.534363	0.046359	-1.432429
C	0.0	0.0	0.0
Br	0.022976	-1.592771	-2.347808
H	1.09275	0.0	0.0
H	-0.032058	0.849659	-1.976853
H	-0.339955	-0.912018	0.500647
C	-2.045313	0.165125	-1.533005
H	-2.366705	0.160544	-2.575943
H	-2.375597	1.097939	-1.06659
H	-2.526998	-0.671975	-1.019895
C	-0.48554	1.159522	0.744874
N	-0.892086	2.106532	1.308068
Br	3.547183	0.0	0.0
