12
Coordinates from ORCA-job run
  C   -0.64611508655096     -0.18171958042507      0.01169892076881
  C   0.68702416147647      0.13361483552868      0.00343749869538
  N   -1.26669977483013     -0.76884962862245     -1.04433897333207
  H   -2.27329717073279     -0.75772822176664     -1.07131757212834
  H   -0.78634157323494     -0.80761224294875     -1.93184125542871
  C   -1.49549245403681      0.02065528403024      1.15401184004372
  N   -2.32171054742956      0.14068018196465      1.98285021141143
  N   1.38657497013526      0.70438821256155      1.14759945746481
  O   2.53314219414378      1.08867111121594      0.93209941970066
  O   0.79307927715500      0.75350858958433      2.21920733933761
  C   1.44268674805727     -0.05612175862919     -1.18123480922564
  N   1.94714925584740     -0.26948678249329     -2.22417207730766
