12
Coordinates from ORCA-job run
  C   -0.65517395458261     -0.14437394938930      0.00570818670940
  C   0.67763628852118      0.17210601091397     -0.01226317902740
  N   -1.31422240303798     -0.59970872249374     -1.09080991471209
  H   -0.77755366415259     -0.88519835646254     -1.89755974694196
  H   -2.21127744161454     -1.03791153008124     -0.96089021177139
  C   -1.49394033746576      0.03978238825779      1.15889775247877
  N   -2.31078652474666      0.11045710829612      2.00281300291508
  N   1.38552053587791      0.75550123916737      1.12071156397509
  O   0.75096036005431      0.97122731592389      2.14710714411080
  O   2.57891225210668      0.98372486935809      0.94109485727967
  C   1.43398108320401     -0.05900630292771     -1.18962348852945
  N   1.93694380583605     -0.30860007056270     -2.22518596648653
