12
Coordinates from ORCA-job run
  C   -0.70826874170499     -0.03614612249587      0.00087050618937
  C   0.63134546069752      0.25960843180260     -0.12651442002495
  N   -1.26551800666649     -1.20619644189380      0.36615131036895
  H   -0.65668075585610     -1.92368755960918      0.73122376696203
  H   -2.25089642007651     -1.23209721138926      0.56965212285973
  C   -1.63585664965643      0.99697677836229     -0.37851178776218
  N   -2.42567121155469      1.81762444306074     -0.67552650641388
  N   1.66734220206678     -0.68455654704102      0.24773584634450
  O   2.83055115289658     -0.31061986304455      0.15216914320218
  O   1.30868326489148     -1.80418184236480      0.63294085820902
  C   1.08058806569156      1.53075235824956     -0.57230249795624
  N   1.42438163927129      2.59252357636329     -0.94588834197853
