12
Coordinates from ORCA-job run
  C   -0.69900785244116      0.01488466975139      0.11024053384145
  C   0.62407363690504      0.22273743212638     -0.21247967420101
  N   -1.29092675923766     -1.13991049184811      0.47057695504423
  H   -0.69723396483392     -1.92981957278093      0.67638567146769
  H   -2.23006954843188     -1.11061862045282      0.83121006035720
  C   -1.58254829225008      1.14331721240709     -0.02300412641162
  N   -2.33838516805240      2.04171787255697     -0.10519325304812
  N   1.62104920030223     -0.82352180920080     -0.08444814211225
  O   2.78258631989469     -0.52800003416468     -0.34039287685282
  O   1.23276906958555     -1.94351634500586      0.26923369192368
  C   1.10498372527556      1.49373878395509     -0.62410738238782
  N   1.47370963328403      2.55699090265627     -0.96802145762061
