12
Coordinates from ORCA-job run
  C   -0.65027638447399     -0.15793191366395      0.03849394594479
  C   0.69145813499488      0.11059242192890     -0.02256495960648
  N   -1.32504075161199     -0.75261394463411     -0.97976276889609
  H   -0.87704976424996     -0.82644181209848     -1.88200370238532
  H   -2.33102178933400     -0.70650294374951     -0.97291064543697
  C   -1.45367362193649      0.09472254147383      1.20427640557716
  N   -2.25444747439750      0.25273724637295      2.05153617230633
  N   1.44840274998992      0.68789970887465      1.08242689285393
  O   2.61924968736626      0.96604919943389      0.83571573120723
  O   0.87390377798641      0.84662367256563      2.15368924784510
  C   1.40162503922377     -0.13201531513970     -1.22577323408888
  N   1.85687039644270     -0.38211886136410     -2.28312308532080
