12
Coordinates from ORCA-job run
  C   -0.70392962077398     -0.05692924502331     -0.05896227098094
  C   0.62562289883729      0.30149532014217     -0.01785651353583
  N   -1.27587353232677     -1.17018109522720      0.43852326933448
  H   -2.23217449363235     -1.37218775154172      0.19847845572527
  H   -0.66716521968295     -1.91383858133450      0.74665925962267
  C   -1.61373992243157      0.90033350480234     -0.63112361098419
  N   -2.38954526266298      1.65138115623850     -1.09944895582537
  N   1.64627070989419     -0.58338913330076      0.51215251508160
  O   2.80435088903170     -0.18295686113257      0.49073811404978
  O   1.27984842075780     -1.67954194504426      0.95293067752568
  C   1.08665944775112      1.53693378249994     -0.54418579260640
  N   1.44067568523852      2.56788084892138     -0.98790514740674
