12
Coordinates from ORCA-job run
  C   -0.70717903466001      0.00282514964758      0.00795459107770
  C   0.64498440236191      0.24565407037562     -0.09564718793469
  N   -1.31655435174452     -1.01511387534711      0.64509539426150
  H   -0.74319225902497     -1.78309707704985      0.96250666690035
  H   -2.30366761863675     -1.15252482926562      0.50423307122363
  C   -1.58748147576136      0.99553178137734     -0.54911099084657
  N   -2.35050955759404      1.78217184455635     -0.97796310194046
  N   1.63466903664253     -0.69401121314791      0.39791031700296
  O   2.81492008470970     -0.41937902660802      0.21221125990251
  O   1.22236021743356     -1.70292283261193      0.98358445442009
  C   1.15161486707348      1.39193663219765     -0.76281881203304
  N   1.54003568920047      2.34892937587590     -1.32695566203398
