12
Coordinates from ORCA-job run
  C   -0.70744143740188      0.02884373760603      0.04736429831579
  C   0.63580855653715      0.14831648181952     -0.23256782266311
  N   -1.32067658239979     -0.92445241507169      0.77649490505865
  H   -0.73057701802149     -1.52629238669600      1.33389294080245
  H   -2.27623561792380     -0.77435348446641      1.05829162070529
  C   -1.58563333659150      0.97871601117498     -0.58439752621922
  N   -2.34688995603533      1.72691528875606     -1.08065044036633
  N   1.63268452480521     -0.73054215630678      0.35187859155367
  O   1.23384264593174     -1.61418519125495      1.12003749357687
  O   2.80460048336305     -0.53327565044915      0.05292851291892
  C   1.13726566400582      1.17702526470605     -1.07350033386235
  N   1.52325207373081      2.04428450018235     -1.76877223982063
