12
Coordinates from ORCA-job run
  C   -0.70419057005685     -0.04132519681931     -0.07040945327080
  C   0.64684841740266      0.20565017140149     -0.11548585654324
  N   -1.34829507940938     -1.07960961064860      0.50876953615478
  H   -2.33444772374101     -0.96070062644377      0.69713154683245
  H   -0.79544369693723     -1.63690813339617      1.14193386266802
  C   -1.54949246830792      0.89256788433825     -0.77447952262900
  N   -2.26621210925000      1.64011924684256     -1.33464729785798
  N   1.61526183794348     -0.64113065909053      0.55347744412515
  O   2.79915845746497     -0.36109245654352      0.41305369152638
  O   1.17638585863896     -1.58375043150327      1.22134455056502
  C   1.18030751296425      1.31666992269194     -0.82286055505416
  N   1.58011956328809      2.24950988917093     -1.41782794651662
