12
Coordinates from ORCA-job run
  C   -0.61241872407302     -0.27252976447003      0.02538771502230
  C   0.65684992224927      0.24130243581853     -0.01520628058823
  N   -1.19206243608208     -0.87618995999315     -1.04423854642959
  H   -2.18819891891866     -1.02131970776875     -1.02753065805742
  H   -0.75749657695182     -0.78388265572264     -1.95109630796339
  C   -1.42312835163677     -0.28065311623579      1.21297465744598
  N   -2.22025973004382     -0.35263396696389      2.07525891164400
  N   1.32688750714608      0.82863512143496      1.13835589259020
  O   2.43352338819818      1.31495502739767      0.91943154617761
  O   0.75011687022188      0.79357744053930      2.21945806639138
  C   1.37391628008898      0.23775926893162     -1.23846035527666
  N   1.85127076980178      0.17097987703216     -2.31333464095619
