12
Coordinates from ORCA-job run
  C   -0.66849398795507     -0.01913551897227      0.04721899911121
  C   0.69525931650750      0.06631060013817     -0.05013140534658
  N   -1.48127813671692     -0.01991549907951     -1.04093386980997
  H   -2.43620832879357     -0.31591285336695     -0.92202908149727
  H   -1.07225343235449     -0.14854640098087     -1.95518253237642
  C   -1.37002427833143     -0.05073839618534      1.30210618380811
  N   -2.09505212364636     -0.10657683563493      2.22700296605452
  N   1.58313153934200      0.14412383889165      1.10320155803984
  O   1.07606297367704      0.21260231367248      2.21716017291171
  O   2.78519907188669      0.13580035186774      0.84998018657100
  C   1.30624409721649      0.05889206174486     -1.32959737158164
  N   1.67641328916812      0.04509633790498     -2.44779580588451
