12
Coordinates from ORCA-job run
  C   -0.66859841986464      0.04841014499550      0.01587195586239
  C   0.69764835360452     -0.02244712800671     -0.05466225309017
  N   -1.31637743788367      1.04227202233218      0.67700873343971
  H   -0.78874989183079      1.64478138947578      1.29204142827915
  H   -2.29342346433271      0.91818820727582      0.88573476624725
  C   -1.54278410843601     -0.87685370138449     -0.65302101773756
  N   -2.39383178162396     -1.54636049233396     -1.11303464622354
  N   1.41533783859568     -1.03761985638061     -0.81573782233582
  O   2.63918904632905     -1.01307001954356     -0.71283551819832
  O   0.75883961094745     -1.82206198616534     -1.49117100950784
  C   1.48359640637299      0.91384119470933      0.66381518948065
  N   2.00915384812211      1.74992022502605      1.30599019378412
