12
Coordinates from ORCA-job run
  C   -0.66968907636075      0.01898843773163      0.03001848029548
  C   0.69877824995587      0.02913854875944     -0.03028686606473
  N   -1.45177931499913      0.11814756942211     -1.07614309267672
  H   -1.02632520593045      0.00765629459053     -1.98530511682944
  H   -2.42445993210037     -0.12864454691455     -0.99466048308776
  C   -1.40528739530640     -0.03166359886665      1.26463404107459
  N   -2.15661919426237     -0.08876284374360      2.16820608636202
  N   1.55863766521410     -0.00129397005889      1.14629993807491
  O   2.76437896748545     -0.07150867326586      0.92185719439949
  O   1.02712678224900      0.04663849834892      2.24986390355604
  C   1.34284600171517      0.04489253597448     -1.29338360074056
  N   1.74339245233986      0.05841174802246     -2.40110048436333
