12
Coordinates from ORCA-job run
  C   -0.61843427308967     -0.25513535838343      0.04341655413048
  C   0.66530131498850      0.21635032532054     -0.03855439232291
  N   -1.29869224921695     -0.71592677054223     -1.03779372266166
  H   -0.92561106463349     -0.54185369008640     -1.95981376439889
  H   -2.29605972072697     -0.82998426673919     -0.96163835051298
  C   -1.34119074283518     -0.36626400650293      1.28140450773917
  N   -2.07727937680600     -0.50320650893733      2.18891568917538
  N   1.44006350132372      0.65179781571963      1.11628521704597
  O   0.94868591550816      0.50243664909892      2.22938181891980
  O   2.54009365830928      1.13793166170615      0.86568282946479
  C   1.28677908190991      0.33072270857959     -1.30806303404345
  N   1.67534395526867      0.37313144076668     -2.41922335253571
