12
Coordinates from ORCA-job run
  C   -0.70675624894637     -0.02018974522575     -0.06354062645217
  C   0.64837247127126      0.21896991868621     -0.12201280722128
  N   -1.33664978333227     -1.06523433483724      0.50923414143985
  H   -0.79388297420816     -1.67104670761300      1.10686110188609
  H   -2.33471211221752     -1.01524578411251      0.63707252445632
  C   -1.56196355845744      0.89829979563940     -0.76873984100379
  N   -2.30491310901995      1.61649311488287     -1.33209813519243
  N   1.60470427601325     -0.61854987808173      0.58302083043335
  O   1.17056969872955     -1.60514322603799      1.18795049746107
  O   2.78583914600648     -0.29730173564467      0.51472006135899
  C   1.19514992102623      1.32381558230273     -0.82493638704919
  N   1.63424227313493      2.23513300004169     -1.42653136011681
