12
Coordinates from ORCA-job run
  C   -0.66978958067887      0.00190583349989     -0.03382616181086
  C   0.69877968682360      0.04068923426706      0.01309062012578
  N   -1.35178528213361     -0.48141193896300     -1.10422973628059
  H   -2.32883394956477     -0.69579639478763     -0.99004610005502
  H   -0.84852591092179     -0.99790326121198     -1.81109900198799
  C   -1.51073015735918      0.52438031506148      1.00905598172135
  N   -2.33885890011266      0.88082595213364      1.76494814224093
  N   1.45211694393554      0.61920759548438      1.11861679461513
  O   2.67313968886784      0.50497379009325      1.04701932399229
  O   0.82560350091808      1.16689800228174      2.01873390605947
  C   1.45098386521125     -0.52812933939019     -1.04570840486233
  N   1.94690009501458     -1.03463978846864     -1.98655536375819
