12
Coordinates from ORCA-job run
  C   -0.65991622521165     -0.11454377296412      0.02341388569599
  C   0.69573070926542      0.08042744927078     -0.00535457760062
  N   -1.32479012417172     -0.77739065649310     -0.95832584491627
  H   -0.84653340259017     -0.96769146916939     -1.82728190601814
  H   -2.32649325215037     -0.68529669448094     -0.99995789038190
  C   -1.49450187637632      0.30102346409834      1.11822798724265
  N   -2.31901481412044      0.58483216657978      1.90797006031286
  N   1.44166790045248      0.72228658154302      1.07006022388412
  O   2.64114599943318      0.88548981485065      0.86077203856560
  O   0.83058725880836      1.04512837006519      2.08247155976602
  C   1.43817822881885     -0.33863552397834     -1.13823469145126
  N   1.92593959784239     -0.73462972932186     -2.13476084509903
