12
Coordinates from ORCA-job run
  C   -0.66779448894197      0.09631150381376      0.14810452540131
  C   0.66521266624487     -0.17846068573338      0.00734029264396
  N   -1.22140080721031      0.57553318591628      1.29729221038358
  H   -2.16026799787331      0.92794055060648      1.26898145300181
  H   -0.60709972741619      0.99271915523302      1.97749322646085
  C   -1.56065804710129     -0.18692576388123     -0.94265614834273
  N   -2.30358584267100     -0.38305241636383     -1.83318213192080
  N   1.16869228247478     -0.71288598986376     -1.26704338385403
  O   1.67140623313000     -1.82845353942757     -1.24209751562015
  O   1.04231326510098      0.01912693073646     -2.24939240614249
  C   1.61283330200661      0.15940187296389      0.99980912737468
  N   2.35934916225683      0.51974519599988      1.83435075061400
