12
Coordinates from ORCA-job run
  C   -0.66824869478908     -0.05075065583455      0.01669026324325
  C   0.70037238356318      0.00724402438216      0.00152399381252
  N   -1.38865117093000     -0.60251546502466     -0.99373110420233
  H   -0.92520309018603     -0.80949117144676     -1.86675493209970
  H   -2.37630168413344     -0.41165701168370     -1.03468547733738
  C   -1.46549118302297      0.40466279959746      1.12349307382094
  N   -2.26363125340677      0.74189972470147      1.91937871509054
  N   1.49778205602776      0.53091854445779      1.10377543452692
  O   0.91444163813177      0.86817153002359      2.12772373100032
  O   2.70862432928688      0.58600328592438      0.90445567199007
  C   1.40624108532625     -0.43419342400427     -1.14618772530705
  N   1.86106558413244     -0.83129218109291     -2.15768164453810
