12
Coordinates from ORCA-job run
  C   -0.65848450837466     -0.09613087636489      0.07424529173703
  C   0.68188164854394      0.13353669602645     -0.09121248451282
  N   -1.43858638612456     -0.61462255052489     -0.90900977621816
  H   -0.99634164316819     -1.02108869197482     -1.72075121422375
  H   -2.34923188598235     -0.96463422931492     -0.66044957899319
  C   -1.37873558045402      0.25442512909301      1.26852720931332
  N   -2.11620772984598      0.46023936635223      2.16185079083094
  N   1.52470537467949      0.75859612154417      0.92050818628030
  O   1.00332846147199      1.09207885175940      1.97870414311782
  O   2.70621388154304      0.89892079499482      0.61538351635237
  C   1.31441808445652     -0.26072106543329     -1.29727549364404
  N   1.70804028325478     -0.64059954615726     -2.34052059003982
