12
Coordinates from ORCA-job run
  C   -0.70763558606300     -0.03112514460063     -0.01761585007754
  C   0.63413802001934      0.27890943643487     -0.05509920107725
  N   -1.29081300381157     -1.11436719355376      0.53048081627716
  H   -0.69264036439401     -1.87326377221127      0.82224316101575
  H   -2.26414711562612     -1.28771063602196      0.34183073275121
  C   -1.61305881667137      0.95016753689175     -0.55509016943942
  N   -2.38661601296686      1.72258845666697     -0.99133316389753
  N   1.65023586964162     -0.63771766511150      0.42676599703811
  O   2.82007619629821     -0.29005467379349      0.31431196900378
  O   1.26927017684381     -1.70509814860357      0.92229810726967
  C   1.10897278869356      1.48786478499603     -0.62889248765838
  N   1.47321784803639      2.49880701890655     -1.10889991120556
