12
Coordinates from ORCA-job run
  C   -0.70776060553724     -0.01832688191444      0.01975750731448
  C   0.63470921158471      0.24336979903307     -0.14590457436594
  N   -1.28481839941745     -1.17842094396122      0.38616991073137
  H   -0.68517694745489     -1.91629060195112      0.72493713638372
  H   -2.26431837559622     -1.18162049874890      0.61751175541603
  C   -1.61921480192338      1.04464659103742     -0.31388480225584
  N   -2.39740395406466      1.88997176763197     -0.56903661707363
  N   1.65611013102961     -0.73228142096776      0.18466868606582
  O   1.28004701258674     -1.84329924884701      0.57773346506758
  O   2.82528647074890     -0.39143116526872      0.04694570889573
  C   1.10295095795825      1.51120373606883     -0.58179380104967
  N   1.45958930008564      2.57147886788786     -0.94710437512965
