12
Coordinates from ORCA-job run
  C   -0.67035215156858     -0.01954868803151     -0.00078716221542
  C   0.69680293823326      0.06753062839965     -0.01182783161180
  N   -1.39474921527746     -0.29901195356072     -1.11522041876515
  H   -2.35445408634746     -0.58111261993434     -1.00064946713858
  H   -0.91313036123660     -0.63719125657191     -1.93585895795681
  C   -1.46928709752845      0.23789159337901      1.16690735478766
  N   -2.26811941087844      0.39184511258306      2.01684691546501
  N   1.49114562042346      0.43821304325120      1.15290195007937
  O   2.70933632075731      0.39992273026545      0.99931313930836
  O   0.89816473868753      0.75456482119688      2.17810865278500
  C   1.40690326457125     -0.23777459801721     -1.20022706887382
  N   1.86673944016418     -0.51532881295956     -2.24850710586382
