12
Coordinates from ORCA-job run
  C   -0.61705573447905     -0.25965665466282      0.03157190393760
  C   0.66148236360162      0.22714978639172     -0.04173316880172
  N   -1.40964358401236     -0.40120148756542     -1.06185583208751
  H   -1.12691849417037      0.03105630448081     -1.92952198753265
  H   -2.39640016022227     -0.54308193696330     -0.92191547944631
  C   -1.21591490099679     -0.72452762719901      1.25350935292756
  N   -1.86054620414551     -1.12274104445334      2.15359028004698
  N   1.55580187561257      0.32253816214426      1.10491660989732
  O   1.17088686046512     -0.13436431716331      2.17527445540750
  O   2.63902373127874      0.86087704875206      0.89071513088231
  C   1.15958683281911      0.69620997266024     -1.28379192446842
  N   1.44169741424919      1.04874179357812     -2.37175934076266
