12
Coordinates from ORCA-job run
  C   -0.66646859482012     -0.07661927098547     -0.00879554038207
  C   0.68936612628000      0.11929508696366     -0.01544300546261
  N   -1.31672894346623     -0.72529886414117     -1.00932377767110
  H   -0.77530240587486     -1.24243929282447     -1.68699128773914
  H   -2.25834808610180     -1.03935389356066     -0.84087530457900
  C   -1.53361446393408      0.43775929167283      1.01636622281974
  N   -2.37674410337442      0.76365643992520      1.76943948299148
  N   1.40081389080557      0.87463707588029      1.00823489330724
  O   0.74033008868905      1.42409417952429      1.88257984540528
  O   2.62440408617601      0.89373409958311      0.90034015887448
  C   1.47309148129942     -0.45082675446233     -1.05053249819543
  N   1.99820092432148     -0.97763809757529     -1.96399918936888
