12
Coordinates from ORCA-job run
  C   -0.65539129590990     -0.13936010691024      0.01982169227971
  C   0.67362002458579      0.19060652026062     -0.02159962047934
  N   -1.40794063115470     -0.28603210159909     -1.10102265168527
  H   -2.30104279669360     -0.74355824457038     -1.01986570565712
  H   -0.94528238494746     -0.33712132885670     -1.99713459627155
  C   -1.39251594557692     -0.29709554661350      1.24441917225682
  N   -2.13631721750158     -0.48007481279913      2.13747626203837
  N   1.48495853312872      0.42285196295915      1.16655142677392
  O   0.93059763477055      0.38628327627329      2.25929998180435
  O   2.67652330536798      0.64081445992013      0.96214235666465
  C   1.32873126117274      0.29501110139337     -1.27476517169237
  N   1.74305951275840      0.34567482054248     -2.37632314603216
