12
Coordinates from ORCA-job run
  C   -0.64628504010550     -0.17418218229913      0.03737018267419
  C   0.66473883822854      0.21864479169838     -0.02341372663027
  N   -1.53158713916355      0.07409107081810     -0.96242961312005
  H   -2.40069002428949     -0.43419456089390     -0.96615777396235
  H   -1.18207776294324      0.38967274407322     -1.85578431015356
  C   -1.22387720127288     -0.82325028806576      1.18310016830098
  N   -1.84758624229280     -1.37178380326146      2.01635231090749
  N   1.61386920274071      0.03323868568917      1.06718829106810
  O   2.76954102510222      0.37577629864011      0.82980916705164
  O   1.19801144491973     -0.43855536539879      2.11942518535158
  C   1.15766473359277      0.82824979572704     -1.20484795146252
  N   1.42927816548348      1.32129281327303     -2.23961193002520
