12
Coordinates from ORCA-job run
  C   -0.64241814629178     -0.18902943654878      0.01727555074008
  C   0.65873704966274      0.23656804904592     -0.03482330940994
  N   -1.25748142030141     -0.79183036365506     -1.03289981516619
  H   -2.12171012709832     -1.27951119603262     -0.86287063015411
  H   -0.69681700609792     -1.10976898062004     -1.81026055973045
  C   -1.49747485691362      0.02000676871892      1.15442983941978
  N   -2.32182835069971      0.08581987109489      1.99122367571362
  N   1.31832338918122      0.95077491861172      1.05119680677866
  O   2.49527810359555      1.24406856519799      0.85690672820488
  O   0.66411295795519      1.20086015590370      2.05727769394607
  C   1.43716905800432     -0.03615752690455     -1.18812324641596
  N   1.96410934900373     -0.33180082481210     -2.19933273392645
