12
Coordinates from ORCA-job run
  C   -0.66906597912433     -0.04921338933649      0.00216032865005
  C   0.69295073260040      0.09463066001256     -0.02678371992737
  N   -1.36617409541646     -0.62027623254580     -1.01402061397258
  H   -0.86206013630377     -1.12284274433402     -1.73029207756174
  H   -2.31650774577432     -0.90372788709407     -0.83985005931715
  C   -1.49255392695170      0.44434169306592      1.07261420257362
  N   -2.30445461171343      0.76325987797604      1.86210186720436
  N   1.45618443808033      0.76498970848692      1.01841809975579
  O   0.83714535327023      1.29374539530440      1.93492563097960
  O   2.67703380752346      0.74038441648058      0.88400733533697
  C   1.43077745696691     -0.45244586176621     -1.10698761328177
  N   1.91472470684267     -0.95284563624983     -2.05729338043979
