12
Coordinates from ORCA-job run
  C   -0.64586490178879     -0.17896857620239      0.01196881743548
  C   0.66065524622480      0.23150894988922     -0.02395383436477
  N   -1.31171865397467     -0.59878046397657     -1.09460746213973
  H   -2.17802060872298     -1.09634017443719     -0.97068662658816
  H   -0.78784194894127     -0.79059213001843     -1.93629151974388
  C   -1.45203681334805     -0.14494440597049      1.20229731499305
  N   -2.24029075065970     -0.20271788108143      2.07382404564027
  N   1.37444458454103      0.75339055698495      1.13473470237690
  O   2.56222746067845      1.01066398858319      0.95572480430623
  O   0.75009076975709      0.89652750710990      2.17994049114777
  C   1.39228273783810      0.13055259113648     -1.23425150592634
  N   1.87707287839598     -0.00929996201724     -2.29869922713682
