12
Coordinates from ORCA-job run
  C   -0.66086448946800     -0.08389135996929     -0.00949981830373
  C   0.69976991903792      0.07921258609299      0.01151753498415
  N   -1.48238532018168      0.51995886732108      0.88559806367547
  H   -1.11423481159885      1.24431637471925      1.48481668697932
  H   -2.47236473239602      0.52916207190032      0.70434773783079
  C   -1.33874444319486     -0.95674584642683     -0.92898415130129
  N   -2.05557910215794     -1.59925930728039     -1.60546895980180
  N   1.60943850301837     -0.62795905257688     -0.87979850655542
  O   1.12964883196601     -1.40112645402281     -1.70090156967935
  O   2.80303629448475     -0.38127194694636     -0.72280764847992
  C   1.27792345621250      0.96405150127290      0.95664408445192
  N   1.60435589427780      1.71455256591603      1.80353654619989
