12
Coordinates from ORCA-job run
  C   -0.66815687246807     -0.04532228950464     -0.03399384312232
  C   0.69474539187165      0.08663280728200      0.00931016025991
  N   -1.30925912851990     -0.68847293057365     -1.04360090258247
  H   -2.27131871637372     -0.95244957048642     -0.90773626619697
  H   -0.76777111601572     -1.24673236612653     -1.68772071584761
  C   -1.54881959778672      0.53449336474395      0.94392358828344
  N   -2.40403945019567      0.91748868685509      1.65530275838760
  N   1.40097123745359      0.83414320756544      1.04193062987219
  O   2.62730023001736      0.78780516004304      0.98705804770789
  O   0.73374472346257      1.44225259685644      1.87124094209334
  C   1.48979445505601     -0.54766368416539     -0.97873677162754
  N   2.02380884349861     -1.12317498248934     -1.85697762722746
