12
Coordinates from ORCA-job run
  C   -0.66222318096798     -0.10704891734931      0.01468949336115
  C   0.68220573276256      0.15026690157064     -0.04109832366464
  N   -1.31377308395207     -0.80697569120207     -0.94982393617826
  H   -2.23407271303399     -1.15906512186064     -0.74303821550931
  H   -0.77186291502618     -1.31555180225366     -1.63345225658197
  C   -1.51827928759300      0.38950463150548      1.05780941909868
  N   -2.34817340035955      0.69334346052271      1.83431044337370
  N   1.39059403306970      0.96006392053168      0.94217463091339
  O   2.60789702701190      1.03216319814631      0.79358719974840
  O   0.73378890648268      1.49929357200040      1.82564198041351
  C   1.45720439161208     -0.40692313155659     -1.08974495588540
  N   1.97569448999383     -0.93007102005496     -2.00905547908923
