12
Coordinates from ORCA-job run
  C   -0.70700500424233     -0.01400012677560      0.02053960521781
  C   0.63821298485114      0.23456502759485     -0.15051937478690
  N   -1.28211038936380     -1.02706864538042      0.68941810005439
  H   -0.69880467264407     -1.74770632407836      1.08646985551967
  H   -2.28393725511641     -1.11535825602007      0.70346084920660
  C   -1.61793324957092      0.94232579448183     -0.55278466796925
  N   -2.38393025669045      1.71230923244870     -1.00554588567562
  N   1.65559507158635     -0.64865706549435      0.38438574114741
  O   1.27577343497550     -1.64884128715461      1.00541327996345
  O   2.82662361414888     -0.34118141117386      0.19355852095532
  C   1.10645116036323      1.35884825866179     -0.88012619483653
  N   1.47006456170285      2.29476480289009     -1.49426982879636
