14

C	-0.478994	0.026946	-1.446892
C	0.0	0.0	0.0
Cl	0.063284	1.525901	-2.252306
H	1.091468	0.0	0.0
H	-0.023156	-0.801442	-1.986167
C	-1.935081	-0.063115	-1.53492
N	-3.106869	-0.140436	-1.57434
N	-0.3526	-1.307715	0.566877
O	-0.54468	-1.380795	1.788935
O	-0.306145	-2.292464	-0.188648
N	-0.432951	1.106317	0.782038
H	-1.203502	0.848114	1.380945
H	0.348252	1.385386	1.367623
H	2.511238	0.0	0.0
