14

C	-0.532709	0.056186	-1.423996
C	0.0	0.0	0.0
Cl	0.149623	-1.250178	-2.44966
H	1.089879	0.0	0.0
H	-1.615033	-0.095683	-1.435373
C	-0.225563	1.345539	-2.034883
N	-0.078161	2.395658	-2.539028
N	-0.530643	-1.218392	0.667974
O	0.006526	-1.543985	1.720491
O	-1.479006	-1.825971	0.149848
N	-0.338729	1.139132	0.805147
H	-1.117468	1.67865	0.454022
H	0.493352	1.717743	0.889072
H	2.60865	0.0	0.0
