14

C	-0.471507	-0.183316	-1.437358
C	0.0	0.0	0.0
Cl	0.076687	1.18435	-2.448832
H	1.101461	0.0	0.0
H	-0.011961	-1.080956	-1.84919
C	-1.926978	-0.286847	-1.521713
N	-3.09851	-0.3697	-1.559368
N	-0.355168	-1.203102	0.752876
O	-0.509699	-1.099674	1.979534
O	-0.349264	-2.286729	0.143593
N	-0.42522	1.213314	0.610014
H	-1.199165	1.052238	1.240244
H	0.355476	1.568742	1.15018
H	2.492906	0.0	0.0
