14

C	-0.64075	0.043593	-1.383789
C	0.0	0.0	0.0
Cl	-0.296105	-1.420726	-2.352679
H	1.090042	0.0	0.0
H	-1.727891	0.081088	-1.263693
C	-0.217713	1.235362	-2.112093
N	0.05598	2.186653	-2.742976
N	-0.529374	-1.260782	0.649992
O	0.218662	-2.217944	0.803267
O	-1.722157	-1.236752	0.987147
N	-0.419616	1.167486	0.713221
H	0.319419	1.423307	1.359019
H	-1.297896	1.02326	1.193446
H	2.737175	0.0	0.0
