14

C	-0.399693	-0.004358	-1.479286
C	0.0	0.0	0.0
Cl	0.080084	1.545301	-2.243758
H	1.090924	0.0	0.0
H	0.154156	-0.787035	-1.994525
C	-1.835115	-0.19038	-1.671616
N	-2.995707	-0.324839	-1.792961
N	-0.413474	-1.321308	0.558397
O	-0.319055	-2.284567	-0.219394
O	-0.724166	-1.415529	1.745225
N	-0.42758	1.077052	0.799881
H	0.342561	1.715998	0.948479
H	-1.251179	1.553434	0.467159
H	2.578729	0.0	0.0
