14

C	-0.380392	0.081025	-1.45956
C	0.0	0.0	0.0
Cl	-2.142232	0.412547	-1.727009
H	1.091672	0.0	0.0
H	0.137407	0.970148	-1.830309
C	0.021545	-1.033725	-2.313468
N	0.346427	-1.851886	-3.09105
N	-0.485783	-1.238736	0.64252
O	-0.356036	-1.327264	1.862303
O	-0.9081	-2.148451	-0.0834
N	-0.335471	1.149241	0.768309
H	0.496612	1.716804	0.887818
H	-1.103163	1.682229	0.388261
H	2.538011	0.0	0.0
