16

C	-0.482226	0.081719	-1.438931
C	0.0	0.0	0.0
Br	0.042901	-1.626508	-2.389526
H	1.089806	0.0	0.0
H	0.153522	0.812442	-1.940506
N	-1.850021	0.41378	-1.601927
H	-2.424863	-0.290596	-1.156405
H	-2.087616	0.481928	-2.582537
N	-0.513966	-1.2222	0.684806
O	0.23988	-1.835955	1.42874
O	-1.707047	-1.5053	0.5091
C	-0.46424	1.202632	0.814586
H	-0.012663	1.149248	1.807697
H	-0.104417	2.113286	0.331556
H	-1.551029	1.246438	0.88934
Cl	3.382922	0.0	0.0
