16

C	-0.48208	0.036385	-1.441666
C	0.0	0.0	0.0
Br	0.026394	-1.710581	-2.330594
H	1.089809	0.0	0.0
H	0.160142	0.742108	-1.968876
N	-1.845919	0.373695	-1.615448
H	-2.086497	0.404655	-2.597042
H	-2.427382	-0.304066	-1.139208
N	-0.517657	-1.200313	0.718608
O	0.243742	-1.821319	1.448401
O	-1.720093	-1.461117	0.577763
C	-0.463611	1.227587	0.775698
H	-0.098726	2.121429	0.266399
H	-1.550235	1.277304	0.845566
H	-0.015438	1.203382	1.77159
Cl	3.378972	0.0	0.0
