16

C	-0.377125	-0.066026	-1.477791
C	0.0	0.0	0.0
Br	-0.293285	1.840692	-2.273625
H	1.092038	0.0	0.0
H	-1.428349	-0.292102	-1.641104
N	0.475183	-0.978262	-2.096407
H	1.452425	-0.825923	-1.851745
H	0.342392	-1.067145	-3.09371
N	-0.470538	-1.31009	0.569483
O	-1.683729	-1.533087	0.504254
O	0.350467	-2.057001	1.087178
C	-0.596064	1.10929	0.837896
H	-1.675719	1.18394	0.691409
H	-0.125179	2.053975	0.573015
H	-0.387826	0.909952	1.892167
Cl	3.378515	0.0	0.0
