9
Coordinates from ORCA-job run
  C   -1.25252027496913     -0.41211222337040     -0.07329188510529
  C   -0.00181651567612      0.08190426365061      0.03538707315439
  H   -1.44756100005144     -1.47081557482858      0.05916476969899
  H   -2.08780516141426      0.24544320218602     -0.26901992227459
  N   1.13848056248462     -0.63176347640869      0.40633017335735
  H   1.02716101985032     -1.63238651087990      0.33545030224959
  H   1.98715140175999     -0.31503191458734     -0.03770092440629
  C   0.21798148685680      1.49473944182337     -0.14498641900317
  N   0.41792848115922      2.64102279241491     -0.31133316767098
