9
Coordinates from ORCA-job run
  C   -1.16358271857861     -0.40020431170801     -0.47831887400391
  C   0.01628624529619      0.08062339251305     -0.03478687836154
  H   -1.98642675292328      0.26891501065204     -0.68709790900372
  H   -1.30104645214154     -1.46061629920879     -0.65971596268126
  N   1.18872605279385     -0.65316066676885      0.15195073162288
  H   1.76191333291021     -0.32769206763228      0.91581046426715
  H   1.03475222978964     -1.64978087590465      0.19592762105209
  C   0.16112851770007      1.49624979720644      0.19229954049044
  N   0.28724954515347      2.64566602085106      0.40393126661785
