9
Coordinates from ORCA-job run
  C   -1.22622528405587     -0.32290470382064     -0.36817716822652
  C   0.00953413121203      0.08741609355109     -0.01567654796120
  H   -2.07491209178748      0.33891581846406     -0.26718200401380
  H   -1.38815214668737     -1.31052992307329     -0.78608974893896
  N   1.19982058881554     -0.61479339299931     -0.21206907429412
  H   1.89081175819079     -0.46279179309586      0.50751738091749
  H   1.05971562958729     -1.59752182309964     -0.39541591334803
  C   0.18557744095335      1.40799222905547      0.53331794022130
  N   0.34282997377171      2.47421749501814      1.00277513564383
