9
Coordinates from ORCA-job run
  C   -1.27090665764238     -0.34234868188036     -0.09853316884782
  C   0.00778433452020      0.08249248673307     -0.03390250018939
  H   -2.08867722899966      0.35720623478575      0.00329967802113
  H   -1.50383372852902     -1.38610822487640     -0.27838550930057
  N   1.14634423629193     -0.68874553721531     -0.27231856573281
  H   1.94717125003439     -0.42544186817407      0.28195615865972
  H   0.97252944204773     -1.68232450248999     -0.23414437423701
  C   0.27753128129036      1.47742396336268      0.20654955610934
  N   0.51405707098646      2.60784612975463      0.42547872551739
