9
Coordinates from ORCA-job run
  C   -1.17396423674168     -0.35120130145170     -0.49144906398475
  C   -0.01339848280799      0.07347930986035      0.04927111899711
  H   -1.93955133024501      0.35650560479434     -0.77688680060444
  H   -1.37227337505923     -1.40871972657192     -0.62710822656621
  N   0.99727337546444     -0.73441322907023      0.57255065894171
  H   0.93477355167507     -1.69735297855064      0.27646042657347
  H   1.92744415600238     -0.36314193554834      0.45076465269160
  C   0.21449544637676      1.48677505711387      0.21363306740049
  N   0.42520089533525      2.63706919942427      0.33276416655102
