9
Coordinates from ORCA-job run
  C   -1.18966017475161     -0.44926514208009     -0.35376794530434
  C   0.00953405784932      0.08119636544107     -0.03667545901260
  H   -2.05629392135269      0.18507411933798     -0.47584482081347
  H   -1.30196325455570     -1.51516965267863     -0.51923322172338
  N   1.22388722505492     -0.60381512388977      0.02682548161537
  H   1.11608067849400     -1.60559269128510      0.08695877133137
  H   1.86093554093424     -0.25179755332369      0.72553530853898
  C   0.11900976361604      1.50241562798741      0.17441575671444
  N   0.21847008471148      2.65695405049082      0.37178612865363
