9
Coordinates from ORCA-job run
  C   -1.24951490597395     -0.42403971721941     -0.03803164047651
  C   -0.00123785627090      0.08230420574924      0.03554569048891
  H   -2.09530871276559      0.22338915357849     -0.22186518546715
  H   -1.43195807366030     -1.48240957618360      0.11278285231018
  N   1.15344080729810     -0.61752123380747      0.38896835458239
  H   1.04959302427012     -1.61954506709283      0.32610453952385
  H   1.98970651456161     -0.29650714592989     -0.07540028028200
  C   0.20088122102982      1.49417924066515     -0.16970474141088
  N   0.38339798151108      2.64015014024031     -0.35739958926879
