9
Coordinates from ORCA-job run
  C   -1.25336425010011     -0.39083200834566     -0.13825764933539
  C   -0.00192677120926      0.08164642112264      0.03654624426226
  H   -1.47280709525832     -1.44616000582119     -0.01855311021783
  H   -2.06756655468906      0.28120970723867     -0.36999213669021
  N   1.10600505027590     -0.65323292506112      0.46092233939997
  H   0.98197456047589     -1.65131404409902      0.37551079132209
  H   1.98152010379475     -0.34752147530939      0.06360533533821
  C   0.25000614280977      1.49093130173340     -0.12808583643263
  N   0.47515881390043      2.63427302854167     -0.28269597764649
