9
Coordinates from ORCA-job run
  C   -1.17985773074458     -0.42994606579774     -0.40763143843686
  C   0.01261960493219      0.08021379138149     -0.03679999603162
  H   -2.02504090609796      0.21992957258322     -0.58571168372953
  H   -1.30701115309461     -1.49605561034645     -0.56090328015521
  N   1.20641211946032     -0.62903129166364      0.10241007174029
  H   1.07471604666622     -1.62741637014545      0.17105866567076
  H   1.81360651260218     -0.27833437925921      0.82765326609044
  C   0.14357075265166      1.50250146098455      0.15452742306656
  N   0.25998475362458      2.65813889226324      0.33539697178517
