9
Coordinates from ORCA-job run
  C   -1.25671859540675     -0.37901763467970     -0.13848893473421
  C   -0.00100769358625      0.08427570263460      0.02962576800017
  H   -2.05240445674362      0.28609796564329     -0.44333307387453
  H   -1.49843902681485     -1.41844400113350      0.05494240269011
  N   1.08274850752137     -0.63406716653648      0.53671577508876
  H   1.97306526702154     -0.37477089724807      0.13932322528302
  H   0.94216573925232     -1.63350702317782      0.52559419214827
  C   0.28089266141378      1.47241058871092     -0.23531695299580
  N   0.53069759734246      2.59702246578677     -0.46906240160580
