9
Coordinates from ORCA-job run
  C   -1.18304060267086     -0.38502774161522     -0.44157494393109
  C   -0.01295005080055      0.07186456782113      0.05018211866980
  H   -1.98321807557712      0.30084989850072     -0.68181924934506
  H   -1.35488823152505     -1.44717332871267     -0.57756389547442
  N   1.04643142204813     -0.70663065059532      0.51800122245889
  H   1.95754179718742     -0.30337364897666      0.35897248780294
  H   1.00228498445917     -1.66868667586836      0.21600515517644
  C   0.17572351168738      1.49065546123850      0.21799899200890
  N   0.35211524519149      2.64652211820787      0.33879811263360
