9
Coordinates from ORCA-job run
  C   -1.17940450455616     -0.44422896358082     -0.39224429149795
  C   0.01207062864811      0.07973907992450     -0.03787123854637
  H   -2.03247612954816      0.19668885119133     -0.56459272733328
  H   -1.29914434100376     -1.51260173087733     -0.53485410960080
  N   1.21369546097288     -0.61755635919965      0.09475015066448
  H   1.09108555862803     -1.61624290352177      0.17365265074048
  H   1.82507059074237     -0.25556769969956      0.81097794200817
  C   0.13119619751957      1.50469564527022      0.14048817553385
  N   0.23790653859711      2.66307408049308      0.30969344803142
