9
Coordinates from ORCA-job run
  C   -1.26049815623447     -0.38057817342638     -0.09758031113168
  C   0.01121177302485      0.06778964356600     -0.05609331394708
  H   -2.07702627436030      0.29873408499689     -0.29784514588199
  H   -1.48550647701656     -1.43194946857579      0.04429802571875
  N   1.15872563889650     -0.71684830558195      0.06530358738286
  H   0.97381426048082     -1.65092172992285      0.40062544215773
  H   1.91029161977612     -0.27610953472105      0.57401407257649
  C   0.27161353478619      1.47204782354389     -0.24841304510264
  N   0.49737408064685      2.61783566012124     -0.38230931177244
