9
Coordinates from ORCA-job run
  C   -1.20969222332546     -0.32824227128066     -0.41394648092116
  C   -0.00953890560938      0.04529725071589      0.07573584319303
  H   -2.08125724779606      0.29399325248865     -0.26670267049273
  H   -1.32928829798954     -1.26852785160888     -0.94101548715859
  N   1.15917945895214     -0.71705586961496      0.06688765419825
  H   2.00558623122769     -0.17579657397408     -0.02548718824414
  H   1.13196861498743     -1.48720423153035     -0.58527643855783
  C   0.10885887400834      1.30238404980337      0.77028968721498
  N   0.22518349554483      2.33515224500102      1.31951508076817
