14
Coordinates from ORCA-job run
  C   0.79378603605944     -0.06864815937848      0.01014070534541
  C   -0.71262585738537     -0.25518942711959     -0.27575178448576
  Cl  1.49127420168499     -1.77792514770384      0.09349130015971
  H   -0.77416813819212     -0.74111054522342     -1.26379901177393
  N   1.38830101120186      0.72886060776551     -0.99167902821756
  H   2.35588636534072      0.94587851214750     -0.79045283972309
  H   1.31463795368618      0.30107409439505     -1.90662361511037
  C   1.00171936706350      0.52961096644556      1.32876792365277
  N   1.20373077233974      1.00848547384776      2.38179244941731
  C   -1.33953974431862      1.06598788705189     -0.39056645915131
  N   -1.88916149967144      2.09702890611226     -0.50341012632074
  N   -1.34176324364426     -0.99619577178798      0.80105100383706
  H   -1.14892813778915     -1.98495328517844      0.70867823727337
  H   -2.34314908637547     -0.85390411137380      0.79636124509714
