14
Coordinates from ORCA-job run
  C   0.90508031532959     -0.15732039213984      0.06912396742545
  C   -0.58115703627831     -0.44768984433485     -0.30137039351564
  Cl  1.72194649321654     -1.73848580593082      0.21975217287811
  H   -0.54947396623447     -1.09545156270280     -1.18378263167691
  N   1.63547554278005      0.63458831757023     -0.88124941642541
  H   1.25124850637603      1.57023602608505     -0.95068172044083
  H   1.63778749204427      0.19047317362231     -1.79209989859245
  C   0.92037774945139      0.51759191346435      1.37307215941557
  N   0.85587168682379      1.07721002691280      2.40386809607592
  C   -1.20239603080760      0.83490608310094     -0.69341975230795
  N   -1.70896927111803      1.86164252057466     -0.95988272479861
  N   -1.26437139141922     -1.14496687873726      0.76241227610213
  H   -2.10504289132774     -1.59172272760916      0.42068762892689
  H   -1.51737719883629     -0.51001084987562      1.51057023693374
