14
Coordinates from ORCA-job run
  C   0.84162658721387     -0.18007081486439     -0.20967501149026
  C   -0.65614034255132     -0.54205839963221     -0.09037660763102
  Cl  1.56655151063278     -1.08836575811746     -1.56237018557670
  H   -0.71956754541979     -1.60335794008404      0.17052991629976
  N   0.94998910611619      1.22983697770582     -0.47492232787761
  H   0.64178337318762      1.73044881032667      0.35287744319487
  H   1.91290913124085      1.48031707028446     -0.66831050684348
  C   1.51163712145682     -0.61899026799076      1.02935191406424
  N   2.03878177993385     -0.93085622223200      2.03252369960267
  C   -1.33259351786219     -0.34412507042071     -1.37945421765057
  N   -1.95026446572089     -0.17062718019385     -2.36289171632470
  N   -1.22289598303229      0.27646968325348      0.97392576104836
  H   -1.77834422811088      1.03291425623849      0.59672523952651
  H   -1.80347252708462     -0.27353514427348      1.59106659965791
