14
Coordinates from ORCA-job run
  C   0.82825271934333     -0.33589463269565     -0.10345835076941
  C   -0.71383736433110     -0.45035455498085     -0.05355344131981
  Cl  1.48385584086656     -1.74367237895419     -0.98753657548788
  H   -0.95741835017446     -1.42908651190254      0.38149903795985
  N   1.17661386918593      0.86959221863313     -0.78587440197214
  H   0.68058823063514      1.63782551997420     -0.34453914603723
  H   2.17532075876277      1.03452090991563     -0.76312399827652
  C   1.31274762486736     -0.42630199731369      1.28930260700076
  N   1.64220786131974     -0.43984886135101      2.41801726122540
  C   -1.25509336475741     -0.41449612627504     -1.41467659196653
  N   -1.77648350825585     -0.39454265029087     -2.46584279847506
  N   -1.21465043494526      0.68974898730431      0.70999867955412
  H   -2.15221010929574      0.93760952642012      0.42162182273953
  H   -1.22989377322099      0.46690055151647      1.69816589582489
