14
Coordinates from ORCA-job run
  C   0.81158675586524     -0.32909960434662     -0.12310699555099
  C   -0.72696922675923     -0.45258703363636     -0.04693965991243
  Cl  1.44865934571152     -1.53718032727271     -1.26988970769932
  H   -0.95896457201313     -1.43806149070581      0.36958979379539
  N   1.14036002726423      0.98991420867162     -0.59508719715815
  H   0.88323657713072      1.65635912435070      0.12633888399713
  H   2.13605008423045      1.06523678188738     -0.76880976463744
  C   1.35736491588225     -0.65038042634149      1.20945708373321
  N   1.79616565945441     -0.86313092313048      2.27890889127111
  C   -1.31143549982962     -0.37217525572495     -1.39275740523916
  N   -1.85101237575332     -0.27262590979231     -2.43080894693312
  N   -1.20853291048711      0.59841592895936      0.83982851438460
  H   -1.62016680480184      1.35912655408178      0.31544796116204
  H   -1.89534197589461      0.24518837299982      1.49082854878711
