14
Coordinates from ORCA-job run
  C   0.74565787651403     -0.15817586567349     -0.19277245252049
  C   -0.77723049997994     -0.49730755123999     -0.21151888218660
  Cl  1.48650913392749     -0.88196793483469     -1.70236554835254
  H   -0.87354685521941     -1.56712794730166     -0.41692589160825
  N   0.92536792330385      1.24218066844171     -0.06266594455942
  H   1.89342059909484      1.49144653690387      0.09647707899177
  H   0.57980850827537      1.73085208673711     -0.88196761036922
  C   1.35061006580682     -0.84746799561036      0.94921314703371
  N   1.79427570456080     -1.41291170358673      1.87843542371407
  C   -1.37999147316562      0.24694968834215     -1.32682436276261
  N   -1.82472437433949      0.89828554926872     -2.19617161115042
  N   -1.46913782818187     -0.18353800924382      1.01426951766318
  H   -1.20025405133459     -0.82590173819926      1.74909306847181
  H   -1.25176472926231      0.76268421599644      1.30372406763502
