14
Coordinates from ORCA-job run
  C   0.64390564099920      0.07210264175234      0.26551375204834
  C   -0.82785534966439      0.07358337691630     -0.25550523691095
  Cl  0.74250499673191     -0.90300173489322      1.75378548371874
  H   -0.80680715910358      0.67822872041609     -1.17287529440485
  N   1.45683465926550     -0.56800031026195     -0.74823049441763
  H   1.57166879831780      0.06352238115698     -1.53586778542990
  H   2.37732686896425     -0.77707517896049     -0.37787465866631
  C   1.06712377005738      1.44283427279165      0.58699606231961
  N   1.39987116080853      2.55796764275288      0.75758531236716
  C   -1.69711262275248      0.75946751995844      0.70465503030956
  N   -2.38919322191453      1.30714615001998      1.47824905328949
  N   -1.35679931677733     -1.22766851900814     -0.57936224301840
  H   -0.67340579436132     -1.71800097182597     -1.14606379332309
  H   -1.50706243057092     -1.76210599081490      0.26799481211823
