14
Coordinates from ORCA-job run
  C   0.83257807980572     -0.11011934863917      0.01334317478254
  C   -0.65582479818469     -0.34608342044078     -0.34522923677169
  Cl  1.63589594369443     -1.74837600762138      0.02920756241381
  H   -0.65640496747172     -0.89209577340008     -1.29527211930930
  N   1.41560299423418      0.80158809780299     -0.90302301031593
  H   1.40936972267150      0.42678212198999     -1.84457480938652
  H   2.36432511626845      1.04234245291389     -0.64500010600862
  C   0.92221389023500      0.42367886240645      1.37524437094837
  N   0.96389864719539      0.86166576140542      2.46437139367708
  C   -1.31269635052150      0.95878242147477     -0.56023849066941
  N   -1.92640750532700      1.95222093519491     -0.69090263752279
  N   -1.29940504009318     -1.16881320550709      0.65450963622938
  H   -2.14159503518983     -1.58655589279384      0.28145674703154
  H   -1.55155069731679     -0.61501700478607      1.46510752490153
