14
Coordinates from ORCA-job run
  C   0.79234034302935     -0.18064871735524     -0.02097329180138
  C   -0.72073763440629     -0.35255453848517     -0.28377381466757
  Cl  1.49680038009927     -1.82322640302564      0.10751894785124
  H   -0.78172436697366     -0.91606999109974     -1.22599627157852
  N   1.40070825291146      0.46996247278388     -1.15397872842020
  H   2.41017686842891      0.45930527805951     -1.06051437875700
  H   1.09508994352243      1.43781281039379     -1.19844629239784
  C   1.01013304333513      0.49874868914638      1.26711090959135
  N   1.24002385603209      1.12538479700410      2.23484153800569
  C   -1.29280915070493      0.97750980781276     -0.51709501670836
  N   -1.72956834709172      2.04950879776457     -0.71370538579977
  N   -1.36181239989812     -0.97114985967432      0.86106027197821
  H   -2.35946354572028     -0.80465330515215      0.85184941988384
  H   -1.19915724256365     -1.96992983817274      0.85010209282030
