14
Coordinates from ORCA-job run
  C   0.66819343585998      0.16258968224799      0.23852804955470
  C   -0.81378288908973      0.13968143813910     -0.24457387149596
  Cl  0.75109723403356     -0.78157924445281      1.80795775810315
  H   -0.83074082771346      0.79800844189849     -1.12045712188001
  N   1.49554145359420     -0.37088748311733     -0.78579171243017
  H   2.47790538608087     -0.25003883176001     -0.57139144181520
  H   1.30770948008681     -1.35839886693260     -0.90868867833027
  C   1.07368161088284      1.53471928119460      0.54057841115165
  N   1.39386025087646      2.64624640856650      0.74707181944601
  C   -1.68376167469534      0.72933956304032      0.78085678050402
  N   -2.38773850761825      1.20313117867760      1.59164326217562
  N   -1.31929431997941     -1.14705476314784     -0.64483194754058
  H   -1.22069201500140     -1.84284935720862      0.08254036767334
  H   -0.91097861731715     -1.46090744714536     -1.51344167511636
