14
Coordinates from ORCA-job run
  C   0.75061924986365     -0.10872515216409      0.00851641057139
  C   -0.75211390102281     -0.26327958988170     -0.38384946225427
  Cl  1.40474452902956     -1.83132034987856      0.14355189060140
  H   -0.75295854030333     -0.78483836622548     -1.34945909127649
  N   1.43309154749095      0.68307440220081     -0.93556487543210
  H   1.38179016706963      0.28887498748830     -1.86702229453497
  H   2.39810855845497      0.85417191341129     -0.68351660425279
  C   0.85312701059783      0.47326585285880      1.34683746437628
  N   0.88341475096394      0.93627135779466      2.42616018522465
  C   -1.31209307051319      1.08024233970203     -0.58586360303449
  N   -1.78768413788468      2.14475261330564     -0.72113045273219
  N   -1.59409524387406     -0.99593690111134      0.52573921142006
  H   -1.64896237198729     -0.53547859691415      1.42650618392890
  H   -1.25598854788518     -1.94107451058622      0.64909503739462
