14
Coordinates from ORCA-job run
  C   0.87818931272215     -0.07559873527506     -0.17395084901086
  C   -0.58818755393280     -0.56568050092044     -0.23291718717380
  Cl  1.81611081998915     -0.90659139000619     -1.44837143107286
  H   -0.57191047816976     -1.66167695810788     -0.16290671461010
  N   0.90024653931828      1.33464288316019     -0.39731601631682
  H   0.25065305715201      1.76862484359341      0.25111081033026
  H   1.83002779307791      1.71655785955731     -0.27629057431277
  C   1.42649896971029     -0.50809598142219      1.12787624369281
  N   1.80821456144239     -0.81042501119184      2.19825811964201
  C   -1.17740614570819     -0.20237895369636     -1.52407367356591
  N   -1.72307557337806      0.06234033394347     -2.52877965334450
  N   -1.31615089325557      0.09602124088036      0.84728955889316
  H   -2.29676157587139      0.19380827645368      0.61846758213210
  H   -1.23644883309639     -0.44254790696845      1.70160378471731
