14
Coordinates from ORCA-job run
  C   0.74450215192395      0.25340197652272      0.19454620669248
  C   -0.71448197470413      0.03085589367338     -0.26308392523973
  Cl  0.91692550431454     -0.55924605395405      1.84562207921421
  H   -0.79881386806331      0.56471478045662     -1.21543193091786
  N   1.59985362121629     -0.26295485872574     -0.79702581736271
  H   1.32694508563705     -1.21403298639096     -1.01830377712055
  H   2.57624395341046     -0.20465031980764     -0.53982772853999
  C   1.00121237590724      1.67725714824645      0.41758544300640
  N   1.19943529174039      2.82514530813801      0.56930454048919
  C   -1.66937083946252      0.62468258187397      0.68598893006226
  N   -2.48235270942099      1.05037774356919      1.41925424772460
  N   -0.91061371529741     -1.38523972432969     -0.51886687236479
  H   -1.70597319935233     -1.52240438792645     -1.12945024308215
  H   -1.08551167784919     -1.87690710134582      0.34968884743865
