14
Coordinates from ORCA-job run
  C   0.75396221213887      0.15375032578007      0.25340925319022
  C   -0.68712264441750      0.12777160410352     -0.30366702657373
  Cl  0.72118353494406     -0.75319679503237      1.86338013421566
  H   -0.64576728508597      0.71382087705700     -1.22775731472888
  N   1.60867648019402     -0.41108138579331     -0.71245400509222
  H   1.24400437699166     -1.31189024397145     -1.00151410248870
  H   2.56603434848939     -0.47975889265689     -0.39363302767056
  C   1.15744201587732      1.52457682030418      0.57097102499909
  N   1.47564931677919      2.63270868303855      0.79644742004084
  C   -1.62901935290119      0.78392149723571      0.61724154198646
  N   -2.43489563254919      1.26590655991757      1.32303980230459
  N   -1.02713473804588     -1.24092209099509     -0.64948478680481
  H   -1.31377000150252     -1.75044569950102      0.17809113181510
  H   -1.79024263091222     -1.25416125948649     -1.31407004519306
