14
Coordinates from ORCA-job run
  C   0.80538796809897     -0.21491403432777     -0.08470058183438
  C   -0.70705969618165     -0.49206767825825     -0.22065962383252
  Cl  1.61842476510564     -0.93626104382024     -1.56011428123693
  H   -0.83834759689296     -1.56116032346900     -0.40638575856258
  N   1.02007472779608      1.18063108672741      0.06835141560479
  H   1.97321945036367      1.39038926461660      0.33699388759868
  H   0.79342743608571      1.67756991877818     -0.78666574191016
  C   1.32916340319444     -0.93390122026767      1.07895564199247
  N   1.78727454182133     -1.51494133306113      1.99063940447678
  C   -1.21420634535783      0.25072748025254     -1.39392533394472
  N   -1.64463896527997      0.88038594562300     -2.28777526870496
  N   -1.33774265352269     -0.14666304011916      1.03313470650137
  H   -2.30848694370646     -0.43230406351506      1.04127935946408
  H   -1.27649009152428      0.85150904084050      1.19087217438807
