14
Coordinates from ORCA-job run
  C   0.75785704795608      0.18124496351382      0.22118219025041
  C   -0.71225916367661      0.10631844410509     -0.24859152150035
  Cl  0.88550931930000     -0.85774300354124      1.74424835717091
  H   -0.76789808355147      0.76988912656029     -1.11788147879795
  N   1.58087429428068     -0.24221958032105     -0.83973376397555
  H   1.25283805365717     -1.13708791102246     -1.18561285551943
  H   2.55908294552643     -0.27553723518229     -0.58493448464248
  C   1.09728549213416      1.54432232637077      0.63350960500799
  N   1.37432772801710      2.64577245534681      0.93364457457923
  C   -1.62994050306659      0.61903494763027      0.78151130328025
  N   -2.42359370292498      0.99293346671775      1.56268077537366
  N   -0.98991880411717     -1.24777139062896     -0.69298594486006
  H   -1.79296212656335     -1.25561482452053     -1.30882697148166
  H   -1.19020249697146     -1.84354178502826      0.10179021511491
