14
Coordinates from ORCA-job run
  C   0.85370054239534     -0.27577574760519     -0.04483982092869
  C   -0.67534632314432     -0.49892506181496     -0.11864531042475
  Cl  1.67442506067350     -1.60935529374749     -0.90576247135170
  H   -0.88066738184610     -1.50320391453129      0.27586325154941
  N   1.16652854305850      0.96988916385354     -0.67033950424405
  H   2.14568395402229      1.20375322745870     -0.56269439207646
  H   0.58355207643854      1.68838692216724     -0.25213665190071
  C   1.23683151342659     -0.36969914844426      1.37868212424271
  N   1.49934242444951     -0.38692133861517      2.52476953216485
  C   -1.11201048487703     -0.46480635612057     -1.51674530199565
  N   -1.54040676276726     -0.44412062022631     -2.60915108440753
  N   -1.31403503089820      0.58207835231924      0.62813485347353
  H   -2.23698604989312      0.78066011150269      0.26491812899351
  H   -1.39961208103823      0.32803970380384      1.60494664690552
