14
Coordinates from ORCA-job run
  C   0.83210745580010     -0.22616228789695     -0.00442532315814
  C   -0.66372377581240     -0.44527574097504     -0.33201723530113
  Cl  1.60818487515190     -1.82096248854641      0.15149141783360
  H   -0.67164157423570     -1.10314713854058     -1.20535332350426
  N   1.46007094570529      0.47012498322463     -1.10001904417215
  H   2.46495790747723      0.49058397496288     -0.96946203304355
  H   1.12113833859392      1.42598539480601     -1.15017119963299
  C   0.93876313539587      0.45411549908775      1.30010517134359
  N   0.99205029602326      1.05804723310125      2.30754677610381
  C   -1.24595255737330      0.85446865955131     -0.72496694594811
  N   -1.72263171451310      1.89631759990884     -0.98750827272034
  N   -1.34248549178443     -1.09165406500401      0.76763571912606
  H   -2.19402394503613     -1.53525977202920      0.45048173582007
  H   -1.57681389539250     -0.42718185165047      1.49566255725356
