14
Coordinates from ORCA-job run
  C   0.79013132806107     -0.10408256503843      0.05671217126812
  C   -0.70218864781576     -0.22643657687705     -0.32304318563177
  Cl  1.41086566073009     -1.84088570412677      0.17020757996174
  H   -0.72157073238156     -0.70291355053776     -1.31737971657993
  N   1.47734738110684      0.67336850432252     -0.90084519534137
  H   2.43771104846860      0.85194938472257     -0.63688061137418
  H   1.44628047334872      0.25018633687853     -1.82039603827106
  C   0.93894476911179      0.47954767804232      1.38947006791899
  N   1.08275573693026      0.97789995460471      2.44299560756611
  C   -1.26569185440400      1.12062542761785     -0.46096918132376
  N   -1.77459576774193      2.17327328777454     -0.56469049678339
  N   -1.42694784096738     -0.94835377989427      0.70547299360391
  H   -1.27439096559011     -1.94398864425418      0.61179576358215
  H   -2.41865058885661     -0.75918975323462      0.64455024140445
