14
Coordinates from ORCA-job run
  C   0.69535901520987      0.04812928086264      0.28740806352778
  C   -0.79798707624979      0.04657450097862     -0.11608088326362
  Cl  0.93341168847998     -0.87513250898331      1.78611838726046
  H   -0.84610304186975      0.67648648539129     -1.02307835329646
  N   1.43428488158295     -0.60427200862463     -0.77869448514298
  H   1.52768059868153      0.03339933312960     -1.56400828470265
  H   2.36507390671171     -0.84486606447388     -0.45732494917399
  C   1.13208256860202      1.43342404562636      0.53191780186153
  N   1.50533757697345      2.54308545680644      0.64062563552226
  C   -1.60712789132745      0.71214634969623      0.91017788101537
  N   -2.28471170088235      1.24977454537732      1.70353181546172
  N   -1.24151507132968     -1.31748444471052     -0.30217859262664
  H   -0.62431459681973     -1.76843741986644     -0.96687323032082
  H   -2.19147085776278     -1.33282755120971     -0.65054080612195
