14
Coordinates from ORCA-job run
  C   0.78995133843376     -0.19843186398984      0.01417497820532
  C   -0.71417004875324     -0.33742201602365     -0.31252274896308
  Cl  1.44992076338040     -1.85532039525249      0.18570026255499
  H   -0.74761369957263     -0.90664355961221     -1.25270296589510
  N   1.46111816476614      0.42785102436725     -1.09729353021780
  H   2.46521628892697      0.39313068566832     -0.96146039409589
  H   1.18182870000351      1.40255484148460     -1.16122677076105
  C   0.96655629531645      0.48744083618361      1.30492553610462
  N   1.14890152643386      1.11240975463751      2.28359795360018
  C   -1.24448934068956      1.00384996592208     -0.57884096690746
  N   -1.65189946196100      2.08335598030819     -0.79655952037129
  N   -1.41882696137151     -0.93173093618316      0.80758007703675
  H   -1.27471408093132     -1.93347325051816      0.81312988415839
  H   -2.41177948398186     -0.74757106699207      0.74949820555146
