14
Coordinates from ORCA-job run
  C   0.77701071133140      0.14951265097272      0.31068023398996
  C   -0.67964404362217      0.03461049154710     -0.21467810596409
  Cl  0.81655586731660     -0.72263592105928      1.91843946482885
  H   -0.70687276043427      0.64564975338289     -1.12395845488861
  N   1.70602526893179     -0.41567797629074     -0.59233323075863
  H   2.26026898812364      0.25386565952998     -1.10188240729259
  H   1.27055703164240     -1.12244149000190     -1.17041266989661
  C   1.08807332008978      1.55384869483102      0.57679869731317
  N   1.32145308381859      2.69447231005533      0.73453995506383
  C   -1.65200112250557      0.59450476658267      0.73792264355198
  N   -2.47553580083096      1.00235948210794      1.46989615446325
  N   -0.91932646469421     -1.34366947615371     -0.59969513248738
  H   -1.05384523899486     -1.91774673645886      0.22489922472510
  H   -1.75171884017219     -1.40865220904515     -1.17221637264829
