16

C	-0.623439	0.042025	-1.393853
C	0.0	0.0	0.0
Cl	-0.066352	1.498456	-2.239568
H	1.095521	0.0	0.0
N	-0.197933	-1.126133	-2.299819
O	0.989806	-1.385754	-2.316486
O	-1.083705	-1.645576	-2.970415
C	-2.084255	0.064105	-1.31873
N	-3.24387	0.147732	-1.145336
N	-0.44733	-1.255068	0.669428
O	-0.499695	-1.260217	1.899066
O	-0.696684	-2.23497	-0.041952
N	-0.37328	1.164155	0.734332
H	0.413039	1.431377	1.309778
H	-1.183563	1.012682	1.319608
F	2.46935	0.0	0.0
