16

C	-0.610193	0.010527	-1.399142
C	0.0	0.0	0.0
Cl	0.070254	1.379975	-2.304678
H	1.089246	0.0	0.0
N	-0.251074	-1.226777	-2.229484
O	-1.108889	-1.624752	-3.011683
O	0.877284	-1.662499	-2.089351
C	-2.064973	0.142399	-1.361653
N	-3.219523	0.327942	-1.243438
N	-0.487518	-1.207212	0.719624
O	-0.343408	-1.223922	1.940794
O	-0.992583	-2.127751	0.066185
N	-0.338323	1.208697	0.685834
H	0.466279	1.487221	1.228958
H	-1.142822	1.108053	1.290356
F	2.473755	0.0	0.0
