16

C	-0.516663	-0.034439	-1.432172
C	0.0	0.0	0.0
Cl	-2.278217	-0.335063	-1.521375
H	1.090893	0.0	0.0
N	-0.232321	1.384655	-1.991397
O	0.949123	1.587062	-2.227634
O	-1.159939	2.162035	-2.124611
C	0.167764	-0.966335	-2.320659
N	0.670521	-1.679481	-3.108524
N	-0.405435	-1.272758	0.664403
O	-0.820858	-1.214326	1.822172
O	-0.26261	-2.314956	0.027446
N	-0.439348	1.168214	0.672842
H	-1.31859	1.034817	1.155619
H	0.274497	1.433832	1.338124
F	2.467821	0.0	0.0
