16

C	-0.624192	0.019509	-1.391802
C	0.0	0.0	0.0
Cl	0.01293	1.413109	-2.286836
H	1.089197	0.0	0.0
N	-0.256267	-1.200349	-2.249027
O	0.897681	-1.580255	-2.180845
O	-1.141505	-1.638099	-2.976459
C	-2.080865	0.122676	-1.325543
N	-3.237491	0.264598	-1.168995
N	-0.471667	-1.218148	0.714332
O	-0.892242	-2.168435	0.043587
O	-0.386566	-1.219895	1.94236
N	-0.344766	1.197128	0.703633
H	-1.135242	1.073359	1.321238
H	0.464424	1.46957	1.245284
F	2.472707	0.0	0.0
