16

C	-0.38845	0.033396	-1.488174
C	0.0	0.0	0.0
Cl	0.317414	-1.304183	-2.384806
H	1.090511	0.0	0.0
N	-1.92882	-0.002892	-1.651826
O	-2.46989	-1.054794	-1.95168
O	-2.492222	1.056856	-1.381038
C	0.057072	1.300313	-2.059804
N	0.409164	2.319344	-2.52703
N	-0.597047	-1.252448	0.575177
O	-1.782921	-1.19323	0.917118
O	0.113381	-2.249497	0.671957
N	-0.421684	1.118165	0.766704
H	0.344281	1.773031	0.821732
H	-1.283748	1.554977	0.476411
F	2.50577	0.0	0.0
