14

C	-0.506031	-0.050157	-1.437668
C	0.0	0.0	0.0
Cl	-2.36063	-0.515021	-1.308082
H	1.092837	0.0	0.0
H	-0.308868	-0.949039	0.45771
C	-0.562112	1.261214	-2.087354
N	-0.598491	2.286557	-2.658557
N	0.219849	-0.955732	-2.205091
H	0.572099	-1.745999	-1.686422
H	-0.189126	-1.203005	-3.093348
N	-0.511026	1.164813	0.696855
H	0.242881	1.602534	1.207389
H	-1.247033	0.92038	1.33953
Br	3.58464	0.0	0.0
