14

C	-0.412729	0.006649	-1.477345
C	0.0	0.0	0.0
Cl	0.103787	-1.524627	-2.252051
H	1.093609	0.0	0.0
H	-0.321976	0.97357	0.400954
C	-1.877276	0.083966	-1.588347
N	-3.047313	0.185151	-1.608392
N	0.193057	1.098189	-2.21641
H	1.199465	1.022692	-2.069992
H	-0.105549	1.96987	-1.785848
N	-0.536722	-1.127143	0.735773
H	0.193041	-1.542053	1.29505
H	-1.292704	-0.850231	1.341291
Br	3.615728	0.0	0.0
