14

C	-0.601781	0.019662	-1.405234
C	0.0	0.0	0.0
Cl	0.132678	1.451844	-2.317295
H	1.095007	0.0	0.0
H	-0.359419	-0.922222	0.466475
C	-0.226711	-1.171166	-2.173662
N	0.05535	-2.137885	-2.77787
N	-2.015445	0.109621	-1.307249
H	-2.438972	0.318234	-2.201817
H	-2.210143	0.842553	-0.630599
N	-0.54237	1.153604	0.737108
H	-0.545261	0.922937	1.722536
H	0.118935	1.915029	0.626765
Br	3.617863	0.0	0.0
