16

C	0.0	0.0	0.0
C	-0.482997	0.978969	-1.134892
Cl	1.755996	0.0	0.0
H	0.107919	1.873029	-0.90154
C	-0.447437	0.511332	1.294051
N	-0.746028	1.027856	2.306576
N	-0.487384	-1.442479	-0.118144
O	-0.326062	-2.138564	0.875545
O	-0.955534	-1.799205	-1.19138
N	-1.859754	1.357939	-1.112911
H	-2.527752	0.583911	-1.105249
H	-2.100531	1.908153	-0.297703
N	-0.010632	0.490242	-2.418712
H	-0.659372	-0.219164	-2.737991
H	-0.098271	1.274195	-3.054946
Cl	-4.444659	0.0	0.0
