16

C	0.0	0.0	0.0
C	-0.492358	0.008024	-1.48016
Cl	1.772811	0.0	0.0
H	0.039939	-0.829093	-1.948975
C	-0.472897	1.142034	0.765884
N	-0.756109	2.104395	1.377595
N	-0.413318	-1.297573	0.691385
O	-0.694963	-1.240078	1.880022
O	-0.371519	-2.304677	-0.006092
N	-0.123623	1.314412	-2.008282
H	0.822455	1.312195	-2.365591
H	-0.765056	1.498005	-2.769654
N	-1.887392	-0.187556	-1.66487
H	-2.511546	0.395019	-1.103242
H	-2.176009	-1.138925	-1.486756
Cl	-4.557312	0.0	0.0
