16

C	0.0	0.0	0.0
C	-0.570359	0.376599	-1.387541
Cl	1.76044	0.0	0.0
H	-0.331253	-0.486607	-2.02764
C	-0.432352	0.941706	1.029141
N	-0.682532	1.761734	1.832524
N	-0.439417	-1.416817	0.395871
O	-0.407717	-2.256906	-0.493703
O	-0.730227	-1.602308	1.570226
N	0.153605	1.532381	-1.896736
H	-0.454028	2.329869	-1.748403
H	0.320803	1.42867	-2.888258
N	-1.954232	0.695722	-1.215912
H	-2.471556	0.6759	-2.085071
H	-2.542699	0.212439	-0.530826
Cl	-4.733611	0.0	0.0
