13

C	-0.548736	-0.104695	-1.434398
C	0.0	0.0	0.0
Cl	0.184342	-1.491566	-2.276542
H	1.094137	0.0	0.0
H	-1.620941	-0.310942	-1.375192
C	-0.352253	1.11184	-2.218869
N	-0.263631	2.090601	-2.861572
N	-0.432718	-1.17188	0.759963
H	-1.147468	-0.932409	1.435085
H	0.373239	-1.536063	1.251981
C	-0.489395	1.246	0.59927
N	-0.933476	2.195848	1.13097
Cl	3.251671	0.0	0.0
