13

C	-0.454797	-0.07137	-1.464061
C	0.0	0.0	0.0
Cl	-0.047807	1.409821	-2.364542
H	1.094037	0.0	0.0
H	0.098422	-0.896338	-1.914513
C	-1.890381	-0.332076	-1.562879
N	-3.043136	-0.552001	-1.616663
N	-0.407119	-1.248059	0.636117
H	-1.299028	-1.157121	1.107832
H	0.303732	-1.512743	1.308271
C	-0.522277	1.197381	0.669496
N	-0.970082	2.104508	1.267874
Cl	3.253873	0.0	0.0
