13

C	-0.42684	0.035559	-1.465797
C	0.0	0.0	0.0
Cl	-2.215737	0.189066	-1.627687
H	1.102724	0.0	0.0
H	0.003711	0.91229	-1.953463
C	-0.007054	-1.173195	-2.169229
N	0.269143	-2.135049	-2.781946
N	-0.454787	-1.216928	0.644502
H	0.241762	-1.510732	1.31656
H	-1.344321	-1.091365	1.107893
C	-0.440134	1.232995	0.669435
N	-0.801451	2.203559	1.225111
Cl	3.233875	0.0	0.0
