13

C	-0.42883	0.099043	-1.462959
C	0.0	0.0	0.0
Cl	-2.21803	0.254512	-1.616723
H	1.102726	0.0	0.0
H	-0.000116	0.997358	-1.912335
C	-0.006743	-1.077872	-2.217297
N	0.265634	-2.021187	-2.860918
N	-0.454285	-1.243745	0.591566
H	-1.335192	-1.135115	1.075336
H	0.251512	-1.579882	1.233837
C	-0.442406	1.20182	0.721295
N	-0.821018	2.145889	1.310109
Cl	3.233028	0.0	0.0
