13

C	-0.403229	-0.000647	-1.479326
C	0.0	0.0	0.0
Cl	-2.152759	0.302446	-1.730121
H	1.102769	0.0	0.0
H	0.137332	0.798121	-1.991581
C	-0.062675	-1.282056	-2.092311
N	0.196561	-2.311002	-2.594576
N	-0.552947	-1.1774	0.678298
H	-0.649899	-0.97438	1.666835
H	0.150938	-1.908583	0.605231
C	-0.457839	1.233157	0.633707
N	-0.814249	2.225899	1.149934
Cl	3.266202	0.0	0.0
