13

C	-0.433894	0.004479	-1.463343
C	0.0	0.0	0.0
Cl	-2.225329	0.160131	-1.618756
H	1.096098	0.0	0.0
H	-0.004237	0.869975	-1.97352
C	-0.020543	-1.221109	-2.140776
N	0.30069	-2.204936	-2.695222
N	-0.454886	-1.200811	0.676438
H	0.257217	-1.492705	1.332763
H	-1.326414	-1.051046	1.165636
C	-0.437168	1.246386	0.646354
N	-0.795818	2.216986	1.203475
Cl	3.233771	0.0	0.0
