13

C	-0.457706	0.048562	-1.462477
C	0.0	0.0	0.0
Cl	-0.057933	1.602667	-2.238358
H	1.097501	0.0	0.0
H	0.097895	-0.732508	-1.982813
C	-1.892361	-0.207691	-1.581292
N	-3.046348	-0.403563	-1.675052
N	-0.405464	-1.297743	0.531965
H	-1.282567	-1.239679	1.033849
H	0.318516	-1.627212	1.159151
C	-0.521473	1.134434	0.767568
N	-0.957059	1.995635	1.437858
Cl	3.253354	0.0	0.0
