13

C	-0.547122	-0.063703	-1.436911
C	0.0	0.0	0.0
Cl	0.164765	-1.443753	-2.307692
H	1.094164	0.0	0.0
H	-1.62274	-0.254238	-1.384748
C	-0.328397	1.16671	-2.194596
N	-0.219059	2.158702	-2.81376
N	-0.440204	-1.19277	0.725448
H	-1.119234	-0.962166	1.437316
H	0.372697	-1.599172	1.172111
C	-0.486999	1.229426	0.632826
N	-0.931668	2.17164	1.17729
Cl	3.25204	0.0	0.0
