13

C	-0.354269	0.005127	-1.498938
C	0.0	0.0	0.0
Cl	-2.130208	0.170982	-1.770649
H	1.09709	0.0	0.0
H	0.120038	0.859849	-1.984946
C	0.08272	-1.234111	-2.135071
N	0.408988	-2.233062	-2.65868
N	-0.461534	-1.143959	0.752409
H	-1.387365	-1.435611	0.46602
H	0.196351	-1.903798	0.633208
C	-0.478681	1.248722	0.600899
N	-0.881589	2.247549	1.068444
Cl	3.2327	0.0	0.0
