13
Coordinates from ORCA-job run
  C   -0.58853907761739      0.27787279629919      0.10659783428389
  C   0.85089933300780     -0.05398667415521     -0.23902972698420
  Br  -0.67357381739796      0.92763880458521      1.96158068828436
  H   1.20124390756861     -0.84435812856604      0.44271759023062
  H   -0.90723935703728      1.13058709337212     -0.49495700370420
  H   0.84136967352200     -0.47347654910073     -1.25191100613946
  C   -1.52524979190927     -0.90411666567334     -0.04792193527908
  H   -1.51964231724551     -1.23750289083024     -1.09054186887103
  H   -2.54766995610777     -0.63711045989368      0.22144562237062
  H   -1.20978028075073     -1.73587277222922      0.58537130970054
  N   1.67965123831468      1.14443105555615     -0.26022185111337
  H   2.59906384612951      0.91822234913550     -0.61837208161761
  H   1.79846659952333      1.48767204150028      0.68524242883892
