13
Coordinates from ORCA-job run
  C   -0.76027747983718      0.49169507573985     -0.00239008891492
  C   0.69466639201422      0.63940382831392     -0.44328533875751
  Br  -0.98329654037078      1.31252924561138      1.76849844075336
  H   0.73183053224225      0.35507917352178     -1.50427517134963
  H   -1.40293218939173      1.08711610449589     -0.65596501630421
  H   0.97023287687236      1.69658023534307     -0.39324790541173
  C   -1.21450367794556     -0.95152977964144      0.05208403154512
  H   -2.25601115732944     -1.03142959805625      0.36499011352905
  H   -1.12010895305205     -1.40043019694208     -0.94359798688716
  H   -0.58466069288661     -1.50442164808389      0.74821993256471
  N   1.58874348028948     -0.17441390885428      0.36649338503969
  H   2.03389276191912     -0.90055411998626     -0.17304184865521
  H   2.30142464747592      0.37937558853831      0.81451745284845
