15

C	-0.329283	-0.064543	-1.462856
C	0.0	0.0	0.0
Cl	-2.117304	-0.785646	-1.736456
H	1.096399	0.0	0.0
H	0.270636	-0.843171	-1.930558
N	-0.183607	1.153293	-2.133398
H	-0.400699	1.080578	-3.116418
H	-0.723005	1.893399	-1.703132
C	-0.32828	-1.268721	0.780175
H	-1.39934	-1.441398	0.908825
H	0.160386	-1.208407	1.755036
H	0.110195	-2.119332	0.251787
C	-0.556072	1.185246	0.613236
N	-1.00864	2.163794	1.086439
F	2.532767	0.0	0.0
