15

C	-0.472393	0.051904	-1.442596
C	0.0	0.0	0.0
Cl	0.307767	-1.344873	-2.371886
H	1.094444	0.0	0.0
H	-0.047411	0.931285	-1.926156
N	-1.891524	0.053111	-1.592015
H	-2.280653	-0.784864	-1.178124
H	-2.146473	0.066892	-2.571852
C	-0.43951	-1.240242	0.775946
H	-1.522739	-1.310663	0.934783
H	0.04782	-1.21918	1.752553
H	-0.086081	-2.131957	0.255803
C	-0.4586	1.209116	0.665065
N	-0.811162	2.179825	1.228748
F	2.564395	0.0	0.0
