15

C	-0.599132	0.034503	-1.397452
C	0.0	0.0	0.0
Cl	0.114864	1.384125	-2.353995
H	1.09482	0.0	0.0
H	-1.666713	0.300537	-1.348335
N	-0.353437	-1.196309	-2.122025
H	-0.778526	-1.961759	-1.612038
H	-0.800778	-1.136413	-3.029424
C	-0.331526	-1.304892	0.734754
H	0.013243	-1.217363	1.766284
H	-1.400367	-1.561254	0.745414
H	0.249124	-2.10853	0.278169
C	-0.510637	1.131519	0.753755
N	-0.945651	2.028785	1.378663
F	2.554625	0.0	0.0
