15

C	-0.331182	-0.068797	-1.462331
C	0.0	0.0	0.0
Cl	-2.123244	-0.78588	-1.729578
H	1.096452	0.0	0.0
H	0.264855	-0.851775	-1.928313
N	-0.182769	1.14554	-2.137403
H	-0.399034	1.070949	-3.120367
H	-0.718361	1.889756	-1.709654
C	-0.32901	-1.26559	0.78505
H	-1.399913	-1.436444	0.915865
H	0.161225	-1.202529	1.758728
H	0.10773	-2.118484	0.258892
C	-0.554214	1.188319	0.609458
N	-1.00582	2.170361	1.076141
F	2.534141	0.0	0.0
