15

C	-0.467066	-0.006831	-1.458999
C	0.0	0.0	0.0
Cl	0.100474	-1.509487	-2.263287
H	1.095489	0.0	0.0
H	0.047315	0.806416	-1.975156
N	-1.894417	0.113908	-1.722868
H	-2.374618	-0.638423	-1.23988
H	-2.204576	0.98705	-1.307014
C	-0.460931	-1.188495	0.839026
H	-0.021372	-2.100938	0.433509
H	-0.081371	-1.065884	1.855739
H	-1.551645	-1.302713	0.890356
C	-0.479378	1.245958	0.571356
N	-0.897258	2.261973	0.995831
F	2.560171	0.0	0.0
