17

C	0.0	0.0	0.0
C	-0.468871	-0.160423	-1.437964
Br	2.057926	0.0	0.0
H	-1.557112	-0.028976	-1.365593
H	-0.061035	0.669532	-2.027994
N	-0.440426	1.234296	0.49735
H	-0.208937	2.016277	-0.09823
H	-0.16742	1.40907	1.453315
C	-0.451742	-1.117946	0.911453
H	-0.02551	-2.07658	0.616637
H	-0.15126	-0.914628	1.943133
H	-1.545967	-1.140288	0.850287
C	-0.140315	-1.489157	-2.102397
H	-0.465725	-1.467983	-3.146313
H	-0.671228	-2.310181	-1.616622
H	0.932377	-1.698906	-2.082924
Cl	-3.983208	0.0	0.0
