17

C	0.0	0.0	0.0
C	-0.466997	-0.212555	-1.438013
Br	1.983096	0.0	0.0
H	-1.555479	-0.087084	-1.405644
H	-0.052069	0.604462	-2.036002
N	-0.451728	1.306054	0.415785
H	-0.271888	1.416811	1.409217
H	-1.469035	1.290294	0.297885
C	-0.428436	-1.123188	0.933989
H	-0.102167	-0.904689	1.955256
H	-1.522058	-1.157248	0.903886
H	-0.012305	-2.089669	0.643097
C	-0.140913	-1.564255	-2.059524
H	0.930291	-1.780991	-2.027549
H	-0.457531	-1.572417	-3.106097
H	-0.677817	-2.369865	-1.554382
Cl	-3.758501	0.0	0.0
