13
Coordinates from ORCA-job run
  C   0.80246215592690     -0.62777139366200      0.42757406975384
  C   -0.48356520259567      0.10655228284038      0.07261971964210
  F   1.71545185885555     -0.40198476090664     -0.58878119350511
  H   -1.23025476373292     -0.05981313844415      0.85283537677706
  H   0.62343840457343     -1.70245670807495      0.48876850634605
  C   1.34361857127769     -0.12984692287850      1.69585313061388
  N   1.76967695467960      0.23276700140271      2.72704534271653
  N   -1.06129302281742     -0.65071640432410     -1.15089031087126
  O   -1.30532513386931     -1.84025437840852     -0.97672824783028
  O   -1.24448944427136     -0.01007349621069     -2.17816707681375
  N   -0.24724295385107      1.47546677650912     -0.14123635927385
  H   -1.09622089538687      1.98661212354538     -0.33512462039382
  H   0.41274333297535      1.62251644399116     -0.89276726515791
