13
Coordinates from ORCA-job run
  C   0.75853215107508     -0.60602949788476      0.41489492685630
  C   -0.55285459653926      0.05467195941274     -0.03245885169453
  F   1.70464872813702     -0.38798204347264     -0.56911928116064
  H   -1.32154494612396     -0.13111687960656      0.71994986892530
  H   0.63442343523363     -1.68423813036222      0.53966021742099
  C   1.20524509484491      0.01084271632854      1.66870557805048
  N   1.51571809801427      0.52297568198044      2.67814347173782
  N   -0.98449267819587     -0.75401444526332     -1.24956871068556
  O   -0.90795736195482     -0.22764296662811     -2.34924704015301
  O   -1.33457042323163     -1.90620897404390     -1.00650960335930
  N   -0.49018068465341      1.43065015896347     -0.35919927557571
  H   0.32277021736866      1.65872993182677     -0.91386404982666
  H   -0.54973703397462      2.01936248874956      0.45861274946450
