13
Coordinates from ORCA-job run
  C   0.76217147689674      0.10759085731751      0.72074532000869
  C   -0.57941194816502     -0.01455983190913     -0.01922831028017
  F   0.48498086603447      0.61472989124008      1.97618022969315
  H   -1.19985594264722     -0.76785218939035      0.46629700610891
  H   1.40810274502612      0.81675438102605      0.19646890077405
  C   1.43699219511618     -1.18790715658410      0.85091683318682
  N   1.95870035517949     -2.23570632223854      0.94100072703902
  N   -0.26259965267598     -0.53698948007519     -1.39110232555340
  O   0.39316919183717      0.22690048502242     -2.09834554189667
  O   -0.65994564689756     -1.65615109259741     -1.69284829377396
  N   -1.30291968593623      1.20705741345471     -0.16535806491567
  H   -1.73550260158138      1.47087165951067      0.70887194079055
  H   -0.70488135218678      1.95526138522326     -0.49259842118131
