13
Coordinates from ORCA-job run
  C   0.88708042151147     -0.50451321999737      0.28260697641459
  C   -0.53103365791396      0.00735387270872      0.02811882472388
  F   1.67352362742790     -0.11043785081160     -0.78850620112438
  H   -1.17856575885140     -0.27494736029369      0.86059855093558
  H   0.91393212161583     -1.59273386998231      0.33975452567019
  C   1.41422662857762      0.09491154254546      1.51350829855338
  N   1.81408483169417      0.57091821479467      2.50866708979698
  N   -1.05504648407780     -0.87269437428358     -1.14604693783585
  O   -1.08034429248379     -2.07558402134573     -0.89761140925419
  O   -1.41100157990328     -0.33216417931597     -2.17774798058638
  N   -0.63062865844972      1.37188999983131     -0.26820197772499
  H   -0.99115111855965      1.94915672205803      0.47138908703214
  H   0.17392391941262      1.76884452409206     -0.72652884660096
