13
Coordinates from ORCA-job run
  C   0.35641345691697     -0.43791262276203      1.00596379984518
  C   -0.69007398973961      0.05513291855540     -0.00808708389462
  F   0.29558590993881     -1.80963357853137      1.11988499757879
  H   -1.68287971971088     -0.13022901162220      0.40522639310316
  H   0.11819086732036     -0.00750687159328      1.98078049119254
  C   1.70753068234139     -0.02386452910574      0.62562878027302
  N   2.76711266227037      0.36344783042669      0.31088717831412
  N   -0.58486961464983     -0.83287424051223     -1.21484075220001
  O   -1.44454763153167     -1.69221780078318     -1.34713877133022
  O   0.36278734200943     -0.60845800533176     -1.96580113900401
  N   -0.58554606595909      1.40950058128325     -0.42697406138561
  H   0.34512619861461      1.66026682824652     -0.73389737405525
  H   -0.96583009782088      2.05334850172992      0.24936754156290
