13
Coordinates from ORCA-job run
  C   0.32303168661371     -0.45695373669431      1.11103357932764
  C   -0.65355720901471      0.10136209194156      0.07506194701577
  F   -0.01185789456396     -1.72817626651686      1.50121761176225
  H   -1.66715449361332     -0.15541956493505      0.39507855592583
  H   0.24928215738661      0.19579085424105      1.98443775449859
  C   1.70039726012469     -0.40852784453096      0.59916898958034
  N   2.78742874712107     -0.28793693810132      0.17334640072280
  N   -0.48757309631356     -0.63329252702110     -1.26898034622528
  O   -0.13842167352698     -1.80734367859610     -1.23411275592080
  O   -0.76738932027427      0.01421517257580     -2.27248501325828
  N   -0.50047369562490      1.50646542609898     -0.02849511156721
  H   -1.22768477409120      1.90954177084307     -0.60282776652516
  H   0.39497230577679      1.75127524069524     -0.43544384533650
