13
Coordinates from ORCA-job run
  C   0.75529527912106      0.09407781357683      0.81419189906585
  C   -0.47193631101380     -0.00581804065221     -0.08591202546932
  F   0.30551751383239      0.50672376342400      2.06084087283858
  H   -1.09394092596821     -0.85744054356476      0.21987379470370
  H   1.44140769755122      0.84834679243643      0.42849859434688
  C   1.42648140591163     -1.20112508574613      0.95679359788263
  N   1.93470431630958     -2.24930208702570      1.09832208974134
  N   -0.04385601803718     -0.32720752456009     -1.49356400532959
  O   -0.96322579961278     -0.53869498515762     -2.27627515456581
  O   1.15531940389506     -0.32278285705818     -1.75849994765144
  N   -1.13138473802990      1.26921331482269     -0.14311242817015
  H   -1.29376317634960      1.60843385743537      0.79636918443652
  H   -2.02161864760947      1.17657558206937     -0.61652647182921
