12
Coordinates from ORCA-job run
  C   0.70362208036313      0.16293024173945      0.54527870311312
  C   -0.58377056244445     -0.59730731581081      0.26075062736601
  Br  1.01806100759793      0.13274785794917      2.49063005446919
  H   -0.51561072831095     -1.60252671397818      0.69209798791934
  H   1.56800235182985     -0.38675898473240      0.15172382472316
  H   -1.39204101443552     -0.06358000833817      0.76526817632868
  N   0.57154711351886      1.51034387587996      0.08877076890339
  H   1.46776102598834      1.97422224763502      0.02702635216013
  H   0.13524625315557      1.47322272054588     -0.82669691622132
  N   -0.83102012613992     -0.57297303217584     -1.18264197133569
  H   -1.81507934278777     -0.70580673169098     -1.37344948927339
  H   -0.32771805833508     -1.32351415702310     -1.63875811815262
