12
Coordinates from ORCA-job run
  C   0.45643802507184      0.36006887871582      0.50276224574481
  C   -0.33211005026451     -0.44650537870701     -0.51785696434645
  Br  -0.80217588267919      1.74703472226776      1.26752444355462
  H   0.39556011053264     -1.08970457421318     -1.02547735339220
  H   0.68444663347809     -0.25508230429414      1.37174044557207
  H   -0.73373412285135      0.24485293347679     -1.26691049191066
  N   1.63618184531087      0.90936279554797     -0.04862546218821
  H   1.43083656521953      1.53378808938542     -0.81855959150785
  H   2.17836229090396      1.41275067348003      0.64033225133666
  N   -1.38388421294984     -1.21946145031544      0.12605528820142
  H   -1.23322351031856     -2.20955904147645      0.00431717567618
  H   -2.29569769145349     -0.98654534386759     -0.23530198674039
