12
Coordinates from ORCA-job run
  C   0.38306246238660      0.42199802852550      0.48329953087527
  C   -0.32419578838592     -0.43741718961863     -0.54531149880219
  Br  -0.93798337279104      1.52971882669655      1.42939065679531
  H   0.45598458976896     -0.97763491664976     -1.09607597584594
  H   0.78817788045804     -0.21911057515268      1.27292252435538
  H   -0.82895913115566      0.23295427408967     -1.25377636068032
  N   1.31966017051379      1.30960943355348     -0.16241226448603
  H   2.00218228681950      0.75710378854872     -0.67037300917672
  H   1.81119430852440      1.86923663619878      0.52329520268638
  N   -1.17488989334977     -1.42603519676914      0.10351886614220
  H   -1.50635543845946     -2.09361143765995     -0.58085676212523
  H   -1.98687807432945     -0.96481167176253      0.49537909026189
