16

C	0.0	0.0	0.0
C	-0.276675	0.449488	-1.476885
Br	2.115651	0.0	0.0
H	0.537533	0.081139	-2.105424
N	-0.373306	0.850079	1.075717
H	-0.018535	1.790483	0.957158
H	-1.392455	0.848409	1.121575
N	-0.52162	-1.240768	0.201408
H	-0.707233	-1.832387	-0.589148
H	-0.42758	-1.647575	1.115193
C	-0.2007	1.92584	-1.535215
N	-0.153572	3.096232	-1.642914
N	-1.509025	-0.142199	-1.957709
H	-1.750874	0.237515	-2.866471
H	-2.302326	0.020557	-1.319959
Cl	-4.018859	0.0	0.0
