16

C	0.0	0.0	0.0
C	-0.292335	0.360503	-1.500146
Br	2.016736	0.0	0.0
H	0.4094	-0.231579	-2.094248
N	-0.542704	0.96555	0.858089
H	-0.691206	0.647851	1.803284
H	-0.105873	1.874711	0.820336
N	-0.479834	-1.329325	0.243721
H	-0.129139	-1.671144	1.129529
H	-1.500192	-1.253109	0.297427
C	0.039457	1.780289	-1.715136
N	0.293652	2.915281	-1.877985
N	-1.620585	0.094537	-1.979697
H	-1.748459	-0.909351	-2.02367
H	-2.347908	0.442652	-1.349119
Cl	-4.078925	0.0	0.0
