16

C	0.0	0.0	0.0
C	-0.470511	-0.140016	-1.47044
Br	1.954284	0.0	0.0
H	-1.565363	-0.200029	-1.371205
N	-0.469284	1.28054	0.460961
H	-1.493608	1.232579	0.418139
H	-0.210994	1.363185	1.438986
N	-0.435231	-1.072827	0.853637
H	-0.137028	-1.97026	0.484908
H	-1.457374	-1.036026	0.850347
C	-0.009426	-1.413244	-2.038869
N	0.320042	-2.440975	-2.50163
N	-0.02667	0.980108	-2.301244
H	0.001868	1.782758	-1.677618
H	-0.751582	1.161735	-2.988035
Cl	-3.556874	0.0	0.0
