16

C	0.0	0.0	0.0
C	-0.318762	-0.509902	-1.463907
Br	1.957725	0.0	0.0
H	0.449119	-1.237949	-1.735441
N	-0.473772	1.30794	0.343387
H	-1.494776	1.273288	0.339536
H	-0.15264	2.010964	-0.311761
N	-0.476356	-0.970295	0.916644
H	-0.783721	-0.513905	1.764575
H	-1.231367	-1.502972	0.498334
C	-0.163884	0.63519	-2.388724
N	-0.078204	1.525711	-3.15127
N	-1.591531	-1.187024	-1.525551
H	-1.779166	-1.517354	-2.46276
H	-2.388038	-0.62881	-1.196907
Cl	-4.042113	0.0	0.0
