16

C	0.0	0.0	0.0
C	-0.272607	-0.023043	-1.5568
Br	1.965612	0.0	0.0
H	0.453451	-0.741633	-1.944695
N	-0.492331	1.205599	0.598077
H	-1.506436	1.209526	0.451974
H	-0.341949	1.168411	1.601119
N	-0.456205	-1.273502	0.523489
H	-1.475708	-1.195963	0.570757
H	-0.11366	-1.385582	1.472381
C	0.075501	1.284159	-2.141359
N	0.341333	2.302557	-2.661402
N	-1.558818	-0.44259	-2.049681
H	-1.721102	-1.397469	-1.75311
H	-2.325238	0.094509	-1.652033
Cl	-3.83838	0.0	0.0
