16

C	0.0	0.0	0.0
C	-0.26712	0.042554	-1.539013
Br	2.10883	0.0	0.0
H	0.444312	-0.657951	-1.982803
N	-0.520255	1.099791	0.650824
H	-0.227506	2.008093	0.323824
H	-0.615327	1.029205	1.650499
N	-0.428324	-1.266472	0.511246
H	-1.445188	-1.206826	0.606086
H	-0.015579	-1.439334	1.419953
C	0.061075	1.388405	-2.03965
N	0.339282	2.483217	-2.361287
N	-1.59144	-0.33242	-1.959083
H	-1.705044	-1.32832	-1.816747
H	-2.329743	0.112813	-1.407081
Cl	-4.069022	0.0	0.0
