16

C	0.0	0.0	0.0
C	-0.149387	-0.470851	-1.496544
Br	2.063572	0.0	0.0
H	0.571186	0.118399	-2.076469
N	-0.463901	1.300704	0.156302
H	-0.589733	1.552968	1.125814
H	0.037472	1.997101	-0.370229
N	-0.552271	-0.84046	0.970767
H	-0.399528	-1.799157	0.675551
H	-1.570019	-0.651849	0.934442
C	-1.424022	-0.209654	-2.188379
N	-2.213617	-0.084504	-3.051392
N	0.152863	-1.90428	-1.566063
H	1.109425	-2.040086	-1.861978
H	-0.469144	-2.363257	-2.216311
Cl	-3.606887	0.0	0.0
