13

C	-0.135167	0.139283	0.018888
C	-0.615835	0.314496	-1.436187
Cl	1.543304	-0.485081	0.080871
H	-1.65785	0.643301	-1.329526
H	-0.852458	-0.678696	0.37398
C	-0.239806	1.350976	0.804819
N	-0.375479	2.32926	1.444805
N	-0.645767	-0.925253	-2.186416
H	-1.244803	-1.533785	-1.604059
H	0.287368	-1.324789	-2.175688
C	0.135973	1.357075	-2.148962
N	0.750503	2.181443	-2.716479
H	-2.066278	-1.712769	0.093186
