13
Coordinates from ORCA-job run
  C   -0.01822084108527     -0.00405104010143      0.38145096758820
  C   1.31049622715694     -0.51074247557365     -0.12288355663280
  F   -0.07663422373168     -0.16670622100297      1.73636153240038
  H   1.40347403013933     -0.34300924666955     -1.19452806256768
  H   2.11962581906957      0.00536808352278      0.39715425194602
  H   1.38393624069637     -1.57865643382434      0.08835726416042
  N   -0.07388458241268      1.49916931091466      0.11993404106913
  O   -0.15492937249923      2.25475669039047      1.07784930371352
  O   -0.03097762152692      1.82047929245277     -1.06459940704137
  C   -1.24060720483261     -0.62659221787870     -0.24684389766599
  H   -1.24333543791786     -0.46471325955046     -1.32341327489073
  H   -1.23821723014208     -1.69741535895701     -0.03759658132709
  H   -2.13972580291388     -0.18688712372256      0.18875741924800
