13
Coordinates from ORCA-job run
  C   -0.02321823528682     -0.00425937719113      0.38109686836484
  C   1.31498063733833     -0.50264469718008     -0.10611614207182
  F   -0.09819266692381     -0.16759776921303      1.73510948963411
  H   1.39301111957509     -1.56977959730252      0.10739428477364
  H   1.42002297416178     -0.33563915836677     -1.17676480227467
  H   2.11430999306897      0.01948646295905      0.42299115956227
  N   -0.08453975936795      1.49866447180642      0.11913755638283
  O   -0.18226362708215      2.25353003465112      1.07607532881814
  O   -0.02817068198911      1.82052840779569     -1.06468889704874
  C   -1.23354924063420     -0.63416297932957     -0.26302967545692
  H   -1.22630905097714     -1.70526726807141     -0.05532998166279
  H   -1.22429352309690     -0.47059790103330     -1.33930171863111
  H   -2.14078793878609     -0.20126062952448      0.16242652961022
