14

C	-0.401337	0.014169	-1.450634
C	0.0	0.0	0.0
Cl	-2.138757	0.344436	-1.808549
H	1.091479	0.0	0.0
H	0.156448	0.83353	-1.904247
C	-0.02702	-1.244793	-2.087344
N	0.226545	-2.265769	-2.608922
N	-0.54719	-1.166431	0.740498
O	0.263014	-1.930735	1.259763
O	-1.772784	-1.297015	0.773683
N	-0.418048	1.232309	0.684424
O	-0.70445	1.163766	1.877334
O	-0.354334	2.268473	0.023963
F	2.441035	0.0	0.0
