14

C	-0.409683	-0.036712	-1.460224
C	0.0	0.0	0.0
Cl	0.124271	1.452766	-2.282042
H	1.089454	0.0	0.0
H	0.171456	-0.847175	-1.898956
C	-1.829634	-0.275294	-1.722256
N	-2.951735	-0.526383	-1.963515
N	-0.455009	-1.244773	0.656983
O	-0.348689	-2.269978	-0.01772
O	-0.847149	-1.200015	1.818942
N	-0.565348	1.146572	0.741888
O	0.041307	1.507825	1.746766
O	-1.603209	1.658767	0.31097
F	2.445749	0.0	0.0
