13

C	-0.45735	-0.091933	-1.444126
C	0.0	0.0	0.0
F	-0.128177	1.094741	-2.108944
H	1.093087	0.0	0.0
H	0.12949	-0.885174	-1.919455
H	-0.298323	-0.921285	0.516588
C	-1.944428	-0.307103	-1.645655
H	-2.186318	-0.340471	-2.711471
H	-2.264628	-1.245177	-1.183213
H	-2.498176	0.516188	-1.187939
C	-0.600487	1.128212	0.685238
N	-1.104389	2.035708	1.238057
F	2.594481	0.0	0.0
