13

C	-0.265014	-0.037608	-1.488765
C	0.0	0.0	0.0
F	-1.62465	-0.274013	-1.793905
H	1.093913	0.0	0.0
H	-0.029366	0.943035	-1.913455
H	-0.342179	-0.932103	0.461537
C	0.606335	-1.102052	-2.120245
H	1.61923	-0.928948	-1.740939
H	0.57095	-1.05842	-3.210711
H	0.269598	-2.090939	-1.797985
C	-0.602656	1.134005	0.670425
N	-1.091378	2.055501	1.212717
F	2.630977	0.0	0.0
