18

C	0.0	0.0	0.0
C	-0.582768	0.023093	-1.425558
Cl	1.793597	0.0	0.0
H	-1.651316	0.251719	-1.287475
C	-0.467813	1.164035	0.870103
H	-0.114647	2.105375	0.452966
H	-0.070189	1.039408	1.878695
H	-1.560086	1.149348	0.889561
C	-0.382067	-1.268918	0.633409
N	-0.582289	-2.300481	1.158971
C	-0.399307	-1.262564	-2.199685
H	-1.017856	-2.031086	-1.737144
H	-0.736855	-1.12616	-3.226677
H	0.642685	-1.581036	-2.217642
N	0.010892	1.179269	-2.173897
O	-0.403671	2.303557	-1.892745
O	0.872468	0.944033	-3.020569
Br	-3.80239	0.0	0.0
