14

C	0.0	0.0	0.0
C	-0.267108	-0.020461	-1.556283
F	1.401565	0.0	0.0
H	0.357146	0.789309	-1.950565
C	-0.943081	0.955719	0.612552
N	-0.817929	1.874909	1.394935
N	-0.340962	-1.291094	0.578005
H	0.349836	-1.974906	0.291306
H	-0.292748	-1.173036	1.583594
C	-1.632312	0.245189	-2.069328
N	-2.576127	0.664886	-2.580686
C	0.234215	-1.276051	-2.12422
N	0.630715	-2.291833	-2.562934
H	-2.056167	0.0	0.0
