14

C	0.0	0.0	0.0
C	-0.591227	-0.004334	-1.408417
F	1.374443	0.0	0.0
H	-1.77217	0.043072	-0.973966
C	-0.377878	1.292414	0.642684
N	-0.62581	2.30497	1.188767
N	-0.506644	-1.066439	0.810884
H	-0.298016	-1.947607	0.316239
H	-1.533981	-0.910269	0.744765
C	-0.329306	-1.266979	-2.050454
N	-0.103799	-2.30723	-2.55503
C	-0.179865	1.113259	-2.225368
N	0.221674	2.007414	-2.881628
H	-2.709996	0.0	0.0
