16

C	0.0	0.0	0.0
C	-0.573343	0.165993	-1.38438
F	1.360246	0.0	0.0
H	-0.501468	-0.772834	-1.9316
H	-1.633585	0.444299	-1.302377
N	-0.358931	1.208665	0.879602
O	-1.097502	2.074515	0.433224
O	0.152794	1.194907	1.997191
C	-0.531154	-1.234002	0.67611
H	-0.224384	-2.112151	0.103732
H	-0.110843	-1.289141	1.679906
H	-1.623453	-1.176647	0.713768
N	0.140666	1.169575	-2.224428
O	0.058758	1.00146	-3.440912
O	0.740107	2.090979	-1.6779
Br	-3.902827	0.0	0.0
