16

C	0.0	0.0	0.0
C	-0.236503	0.383587	-1.466882
F	1.369896	0.0	0.0
H	0.025306	1.428663	-1.600187
H	0.451128	-0.25479	-2.022358
N	-0.360363	1.157394	0.938745
O	-0.411745	0.885197	2.133055
O	-0.46282	2.279929	0.454712
C	-0.605281	-1.274229	0.481641
H	-0.23625	-1.50111	1.481032
H	-0.353745	-2.076501	-0.212569
H	-1.694895	-1.146706	0.501858
N	-1.549437	0.163894	-2.127328
O	-2.149787	1.159956	-2.515191
O	-1.856086	-1.005873	-2.34024
Br	-4.048799	0.0	0.0
