18

C	-0.517618	-0.009417	-1.454517
C	0.0	0.0	0.0
Cl	0.651468	-0.799557	-2.574781
H	1.092396	0.0	0.0
C	-1.868352	-0.711135	-1.617431
H	-2.58326	-0.318629	-0.889214
H	-1.735081	-1.779358	-1.447963
H	-2.255659	-0.560109	-2.626057
C	-0.655346	1.370101	-1.93052
N	-0.822312	2.451092	-2.361242
N	-0.404917	-1.296957	0.601979
O	0.097814	-2.316082	0.126709
O	-1.220203	-1.307633	1.53223
C	-0.54701	1.156124	0.809695
H	-0.041257	2.067113	0.488935
H	-0.317525	0.993814	1.862173
H	-1.630505	1.289819	0.718185
F	2.526003	0.0	0.0
