18

C	-0.244071	0.047454	-1.502577
C	0.0	0.0	0.0
Cl	-2.015767	0.253718	-1.910769
H	1.093134	0.0	0.0
C	0.55909	1.215975	-2.075848
H	0.122676	2.165321	-1.766383
H	0.571273	1.17204	-3.165489
H	1.56593	1.099513	-1.657072
C	0.196124	-1.154197	-2.221005
N	0.595614	-2.001759	-2.930176
N	-0.544986	-1.233313	0.603432
O	-0.249037	-2.306971	0.081852
O	-1.243338	-1.137248	1.61834
C	-0.457462	1.23022	0.751884
H	-1.523758	1.440806	0.636971
H	0.13289	2.083217	0.416351
H	-0.244441	1.089153	1.810523
F	2.55816	0.0	0.0
