18

C	-0.508888	0.038761	-1.442382
C	0.0	0.0	0.0
Cl	0.332576	-1.177071	-2.483336
H	1.093592	0.0	0.0
C	-2.018367	-0.133761	-1.623033
H	-2.309179	-1.130996	-1.301346
H	-2.287995	0.001973	-2.672104
H	-2.543054	0.616945	-1.025298
C	-0.1404	1.339761	-2.015554
N	0.067546	2.39722	-2.483763
N	-0.45338	-1.19879	0.722728
O	-0.378267	-1.180106	1.954998
O	-0.825206	-2.192977	0.087834
C	-0.3481	1.247199	0.800128
H	0.118504	1.150188	1.77735
H	-1.423678	1.408987	0.934743
H	0.098429	2.112716	0.312742
F	2.493917	0.0	0.0
