18

C	-0.458786	0.026352	-1.462579
C	0.0	0.0	0.0
Cl	0.251088	-1.373571	-2.353025
H	1.090837	0.0	0.0
C	-1.968001	-0.005115	-1.695737
H	-2.180468	0.034665	-2.76601
H	-2.439282	0.849175	-1.206191
H	-2.386516	-0.921527	-1.28033
C	0.098558	1.237815	-2.074457
N	0.469868	2.230574	-2.580434
N	-0.538472	-1.234217	0.634943
O	-1.686515	-1.201155	1.103771
O	0.180086	-2.231126	0.662136
C	-0.460959	1.21135	0.785853
H	0.006523	2.098055	0.354483
H	-1.54425	1.338043	0.832189
H	-0.078434	1.113465	1.805511
F	2.541224	0.0	0.0
