18

C	-0.496283	0.021074	-1.452852
C	0.0	0.0	0.0
Cl	0.308825	-1.270217	-2.421667
H	1.091828	0.0	0.0
C	-2.005242	-0.152311	-1.622949
H	-2.272155	-0.07494	-2.678377
H	-2.309159	-1.130321	-1.25084
H	-2.535298	0.618866	-1.061343
C	-0.103322	1.294458	-2.058554
N	0.104359	2.325173	-2.583618
N	-0.536917	-1.225048	0.64638
O	-1.594359	-1.135114	1.288976
O	0.084987	-2.277527	0.500929
C	-0.429083	1.227073	0.783188
H	-0.10376	1.09555	1.817185
H	0.114022	2.086193	0.385457
H	-1.503645	1.425643	0.785108
F	2.540889	0.0	0.0
