18

C	-0.472608	0.025864	-1.459777
C	0.0	0.0	0.0
Cl	0.269126	-1.330693	-2.389996
H	1.091087	0.0	0.0
C	-1.984599	-0.0558	-1.664027
H	-2.220006	-0.001012	-2.728425
H	-2.36301	-0.996117	-1.26313
H	-2.476408	0.7704	-1.14674
C	0.022763	1.264828	-2.069402
N	0.373627	2.27565	-2.554829
N	-0.547615	-1.222323	0.642476
O	0.09714	-2.265792	0.553699
O	-1.635475	-1.13655	1.232988
C	-0.436183	1.226968	0.778971
H	0.096903	2.090467	0.37737
H	-0.105004	1.101183	1.812213
H	-1.512403	1.413638	0.785551
F	2.538941	0.0	0.0
