15

C	-0.334847	-0.090649	-1.476937
C	0.0	0.0	0.0
Br	0.307771	1.506269	-2.439546
H	1.088567	0.0	0.0
H	-0.322618	-0.919349	0.498379
C	0.490527	-1.272999	-1.99701
H	0.44895	-1.335386	-3.084823
H	1.511495	-1.104585	-1.635896
H	0.099106	-2.201452	-1.568387
C	-1.756316	-0.233362	-1.781486
N	-2.890565	-0.456496	-1.998195
N	-0.623219	1.100888	0.747838
O	-1.357506	1.898212	0.159453
O	-0.370114	1.146381	1.951612
F	2.567437	0.0	0.0
