15

C	-0.490461	0.022653	-1.4408
C	0.0	0.0	0.0
Br	-0.025282	-1.76254	-2.161531
H	1.091253	0.0	0.0
H	-0.385542	-0.872855	0.525219
C	-1.996833	0.19813	-1.608707
H	-2.517214	-0.560479	-1.020447
H	-2.278653	1.192085	-1.257432
H	-2.285535	0.095899	-2.655779
C	0.224024	0.986298	-2.280845
N	0.724567	1.714594	-3.055902
N	-0.459372	1.174325	0.740261
O	-0.578005	2.24542	0.131678
O	-0.645965	1.048402	1.953352
F	2.499334	0.0	0.0
