15

C	-0.339626	-0.068664	-1.477861
C	0.0	0.0	0.0
Br	0.292188	1.548976	-2.411773
H	1.088567	0.0	0.0
H	-0.327997	-0.922235	0.489803
C	0.489421	-1.236854	-2.022465
H	0.440344	-1.281133	-3.110695
H	1.51176	-1.06862	-1.664006
H	0.104931	-2.174765	-1.607774
C	-1.760472	-0.211725	-1.781151
N	-2.894682	-0.445294	-1.985651
N	-0.6104	1.100894	0.758525
O	-0.312514	1.164566	1.951526
O	-1.378974	1.880914	0.189037
F	2.568431	0.0	0.0
