15

C	-0.336803	-0.010744	-1.480018
C	0.0	0.0	0.0
Br	0.377274	1.584964	-2.392208
H	1.091503	0.0	0.0
H	-0.325947	-0.941053	0.450694
C	0.431284	-1.208916	-2.047908
H	1.460919	-1.094986	-1.692692
H	0.382159	-1.230203	-3.137148
H	0.005098	-2.135985	-1.649229
C	-1.765601	-0.070002	-1.780487
N	-2.916877	-0.183593	-1.995621
N	-0.601171	1.064677	0.808272
O	-1.18497	2.000932	0.25261
O	-0.467946	0.95374	2.029063
F	2.556365	0.0	0.0
