15

C	-0.278692	0.056923	-1.478549
C	0.0	0.0	0.0
Br	-2.222056	0.307909	-1.877192
H	1.09375	0.0	0.0
H	-0.362587	0.898765	0.496787
C	0.512339	1.255029	-2.010726
H	1.539676	1.091307	-1.661409
H	0.12179	2.177714	-1.575932
H	0.455409	1.313995	-3.097244
C	0.13593	-1.135266	-2.218427
N	0.49263	-1.99875	-2.93219
N	-0.560689	-1.143291	0.716428
O	-0.763728	-2.192294	0.104052
O	-0.759253	-0.994992	1.924255
F	2.54593	0.0	0.0
