15

C	-0.253085	0.099985	-1.499241
C	0.0	0.0	0.0
Br	-2.142166	0.58916	-1.944272
H	1.092307	0.0	0.0
H	-0.439348	-0.887391	0.447631
C	0.725544	1.043247	-2.193252
H	1.705321	0.782333	-1.77216
H	0.693587	0.911462	-3.275629
H	0.49184	2.071756	-1.929984
C	-0.09203	-1.252271	-2.034041
N	0.051183	-2.339554	-2.457619
N	-0.477271	1.149868	0.771124
O	-0.374292	2.277618	0.287425
O	-0.92078	0.920502	1.899487
F	2.561953	0.0	0.0
