15

C	-0.276167	0.057841	-1.47929
C	0.0	0.0	0.0
Br	-2.217602	0.327362	-1.878933
H	1.09373	0.0	0.0
H	-0.360842	0.900885	0.494313
C	0.524361	1.246692	-2.014861
H	0.140429	2.173901	-1.582923
H	0.468603	1.302601	-3.101272
H	1.54899	1.076485	-1.665669
C	0.126109	-1.138321	-2.220069
N	0.490197	-2.004796	-2.926583
N	-0.567875	-1.139043	0.716328
O	-0.74558	-2.197948	0.110984
O	-0.800354	-0.977722	1.917239
F	2.546246	0.0	0.0
