13

C	0.0	0.0	0.0
C	-0.364248	-0.887967	-1.21542
Cl	1.823472	0.0	0.0
H	0.359522	-0.625896	-1.995205
H	-0.30368	-0.479467	0.930768
N	-0.485198	1.319766	-0.236461
H	-1.518124	1.122423	-0.149427
H	-0.191733	1.910087	0.535252
C	-1.687997	-0.735068	-1.859188
N	-2.44439	-0.816753	-2.76042
C	-0.136194	-2.302984	-0.899164
N	0.088691	-3.43221	-0.666939
F	-2.607805	0.0	0.0
