13

C	0.0	0.0	0.0
C	-0.504898	-0.217912	-1.456739
Cl	1.823793	0.0	0.0
H	0.369116	-0.271054	-2.11984
H	-0.262133	-0.881301	0.588506
N	-0.468389	1.245464	0.508451
H	-0.177066	1.323438	1.477617
H	-1.504529	1.046702	0.471659
C	-1.33604	0.878175	-1.972736
N	-1.839225	1.754429	-2.570048
C	-1.196594	-1.504264	-1.577657
N	-1.580891	-2.597636	-1.765531
F	-2.588746	0.0	0.0
