13

C	0.0	0.0	0.0
C	-0.625748	-0.148152	-1.384192
Cl	1.777581	0.0	0.0
H	-1.759223	-0.129413	-1.019972
H	-0.281316	-0.905619	0.549714
N	-0.496537	1.223138	0.5701
H	-0.186317	1.278687	1.534044
H	-1.518615	1.063689	0.55743
C	-0.312175	-1.421781	-2.005324
N	-0.085901	-2.469938	-2.487591
C	-0.331543	0.966034	-2.269228
N	-0.121552	1.840316	-3.02608
F	-2.793466	0.0	0.0
