13

C	0.0	0.0	0.0
C	-0.511468	-0.216842	-1.459589
Cl	1.776553	0.0	0.0
H	0.362873	-0.227684	-2.124369
H	-0.294049	-0.870605	0.589523
N	-0.471895	1.257673	0.494007
H	-0.181493	1.344922	1.462575
H	-1.505808	1.058934	0.464289
C	-1.387298	0.841446	-1.977734
N	-1.921587	1.683496	-2.597831
C	-1.138692	-1.53554	-1.599695
N	-1.497808	-2.635404	-1.801359
F	-2.588733	0.0	0.0
