13

C	0.0	0.0	0.0
C	-0.49958	-0.024503	-1.472534
Cl	1.830403	0.0	0.0
H	0.374847	-0.11004	-2.13045
H	-0.251917	-0.9602	0.45443
N	-0.475758	1.151874	0.68378
H	-0.196037	1.078078	1.656782
H	-1.513206	0.959675	0.603806
C	-1.188062	1.205612	-1.87528
N	-1.63524	2.18177	-2.348899
C	-1.326973	-1.204548	-1.745425
N	-1.787117	-2.212661	-2.136988
F	-2.595459	0.0	0.0
