13
Coordinates from ORCA-job run
  C   -0.50084020236041     -0.07941958677403      0.65800257184907
  C   0.95655981647781     -0.22707508764696      0.25847284051339
  F   -0.71977988075600     -0.65413996930141      1.87340348396777
  H   1.16710902579303     -1.29768175321260      0.27864944137796
  H   1.55989896437371      0.25786276370419      1.03572404848229
  C   -0.93012881398132      1.32109065367817      0.67902116946208
  N   -1.17852990267076      2.46651140189235      0.75236042105658
  N   -1.34993501346487     -0.85023163765447     -0.35261165471554
  O   -1.10146113855805     -2.04680890426495     -0.41058464796320
  O   -2.18368356397210     -0.23056652647168     -0.99756169266192
  N   1.10861289934307      0.30232285908834     -1.08128389224311
  H   1.77426782423176     -0.23153530737116     -1.61940965422976
  H   1.39690998554412      1.27067109433418     -1.07418243489561
