13
Coordinates from ORCA-job run
  C   -0.42295785327627     -0.00597936487379      0.59650508055086
  C   0.81932012749458      0.46164374955246     -0.14334207464294
  F   -0.08666715462941     -0.93228555290647      1.52843191486083
  H   1.46982010145599      0.93988373037783      0.60164347124795
  H   0.51014365065405      1.21722260664553     -0.86603834786627
  C   -1.16661263887650      1.08931846081909      1.22484932693874
  N   -1.71679059791572      1.99251208718343      1.73554412062531
  N   -1.35010640748391     -0.67634175679562     -0.42074083190040
  O   -1.59819408861924     -1.85710487437054     -0.26542878768287
  O   -1.73669387354974      0.07052580694273     -1.30928813406416
  N   1.38357081570326     -0.68221601354172     -0.82806156886786
  H   1.91292290502344     -0.39734028190927     -1.63858633737388
  H   1.98224501401948     -1.21983859712367     -0.21748783182533
