13
Coordinates from ORCA-job run
  C   -0.42829908307234     -0.07221179042906      0.48821608350269
  C   0.64965186379289     -0.20268189727262     -0.57716541262969
  F   0.01937292219580     -0.59241031760390      1.65672847795129
  H   0.24760232308354      0.19108251121239     -1.51181739457048
  H   0.83177554134187     -1.27993998502403     -0.70407904728109
  C   -0.87588236586614      1.30667902414845      0.69016598999471
  N   -1.23579850962559      2.41317151199585      0.84588356390827
  N   -1.63592931707801     -0.89906092200768      0.03833366120219
  O   -2.22140702997872     -0.45165112477444     -0.93968750002856
  O   -1.86790511717784     -1.93166971756274      0.64571212560257
  N   1.79302238724021      0.57390246529269     -0.14976556198122
  H   2.39839075622000      0.03682436171777      0.45463628159494
  H   2.32640562892433      0.90796588030731     -0.93916126726561
