13
Coordinates from ORCA-job run
  C   -0.47101661670184     -0.03554482900337      0.55813402567742
  C   0.85109196156915      0.42542942450559     -0.03186183534364
  F   -0.26174842083374     -1.06284889552777      1.41912004879318
  H   1.46174933040902      0.78926552114974      0.80600448353172
  H   0.64291113380704      1.26467979880791     -0.69613249647208
  C   -1.20945974407238      1.03740824445814      1.22923411326392
  N   -1.75945235577785      1.91546035526970      1.78238403638274
  N   -1.33982326143287     -0.55410517481748     -0.59129681901144
  O   -1.64612488921660     -1.73118026158000     -0.57955873056986
  O   -1.62140000277366      0.29586630020665     -1.42454181506543
  N   1.40893756113723     -0.67750198576663     -0.78586965920279
  H   1.90560100673971     -1.32018720663156     -0.18510067462852
  H   2.03873429714677     -0.34574129107091     -1.50151467735521
