13
Coordinates from ORCA-job run
  C   -0.42887786654277     -0.01890066576200      0.59157996075670
  C   0.81967389866932      0.46699300571364     -0.12486338135298
  F   -0.10057735917310     -0.96386082938760      1.50757800913849
  H   1.46176046947377      0.93092701907514      0.63650074663913
  H   0.51565249819555      1.23705609425590     -0.83442936898221
  C   -1.18229590415100      1.06134875047722      1.23400536499003
  N   -1.74298621191598      1.95134436048826      1.75631708378749
  N   -1.34265858118809     -0.67060735004124     -0.45017711757189
  O   -1.58516824363527     -1.85602531751592     -0.32470816924913
  O   -1.72602027770218      0.09450515627059     -1.32420841356688
  N   1.39251753554430     -0.65997803795869     -0.83063242645031
  H   1.94624960178862     -0.35250218956562     -1.61652052024877
  H   1.97173044063683     -1.22029999604969     -0.22144176788967
