13
Coordinates from ORCA-job run
  C   -0.44910602752988     -0.03096758562466      0.47078423727383
  C   0.67721317564783     -0.24384386824766     -0.52867987457698
  F   -0.05048784701837     -0.43353697647121      1.70212817560077
  H   0.31572643143268      0.06319304043744     -1.51082123023638
  H   0.87253434510818     -1.32579606757370     -0.55320906528892
  C   -0.91985618851384      1.35402644008965      0.52295644146430
  N   -1.30071640164535      2.46381042056445      0.56087094481696
  N   -1.62689767638605     -0.91378464727497      0.04733864950685
  O   -2.15784852543725     -0.58029687197683     -1.00474779230114
  O   -1.89201675657700     -1.87484319743072      0.75068028179264
  N   1.79402757354229      0.58066239048146     -0.12044225569910
  H   2.37380857057176      0.82896664172980     -0.90847033667386
  H   2.36261932680500      0.11241028129696      0.57061182432103
