13
Coordinates from ORCA-job run
  C   -0.43043115116427     -0.09227185355249      0.48004168860101
  C   0.64931455472369     -0.17623900659581     -0.58750371019604
  F   0.00658683793300     -0.68019488003163      1.62024737229670
  H   0.81729225585060     -1.24633003414537     -0.77824434332230
  H   0.25621330583896      0.27820895778426     -1.49778375236404
  C   -0.86344661197830      1.27852527832478      0.75564576737331
  N   -1.21421787433790      2.37748756859205      0.97352404577827
  N   -1.64622149838685     -0.87948504321078     -0.01744248032698
  O   -2.20833244592573     -0.38463037653403     -0.98654150509653
  O   -1.90877054564917     -1.92800055078943      0.54847436358583
  N   1.80153308958148      0.55875119851575     -0.11159152082606
  H   2.38521465944701     -0.01661855198210      0.47860818019302
  H   2.35526542406748      0.90879729362481     -0.87943410569619
