13
Coordinates from ORCA-job run
  C   -0.45760563886280     -0.05447650412972      0.61953391593965
  C   1.00293184502850     -0.37134852304649      0.31888902630060
  F   -0.81974837731219     -0.57468613337149      1.82759533137236
  H   1.10133569649124     -1.45831550497904      0.31948351823593
  H   1.57058452887283      0.01435644505219      1.17049637603261
  C   -0.72559753215962      1.38664319465897      0.58959771117582
  N   -0.84330313411854      2.55486905008367      0.55846859056038
  N   -1.40735471938742     -0.71176965216894     -0.39219679283217
  O   -2.58335685283016     -0.38592884700910     -0.29483877046560
  O   -0.93014897714182     -1.53781341206261     -1.16294195376329
  N   1.52772123276251      0.17059940531138     -0.90664702017817
  H   1.50211397524895      1.18053255158589     -0.93065630928077
  H   1.06142795340853     -0.21166206992472     -1.71578362309736
