13
Coordinates from ORCA-job run
  C   -0.42505595803651     -0.12478792823445      0.40838952206116
  C   0.70471427154179     -0.27376465385309     -0.61801658867618
  F   -0.07841115590890     -0.74463919359306      1.56458908278870
  H   0.83451606593024     -1.35032321855609     -0.76959526518601
  H   0.37073498430499      0.16803872229227     -1.55856009805234
  C   -0.75527626957367      1.27592678128224      0.67698181381928
  N   -0.94115712525745      2.41756971371424      0.88087865513033
  N   -1.66725166305477     -0.81436781750855     -0.14781571491122
  O   -2.20077898658608     -0.22475240895372     -1.07979979895148
  O   -1.96738107994060     -1.89672604529073      0.32927906643024
  N   1.95529621460969      0.31052473647131     -0.21079820511668
  H   2.26681740510882     -0.06074087826580      0.67619471842732
  H   1.90323329686245      1.31904219049542     -0.15272718776312
