13
Coordinates from ORCA-job run
  C   -0.50069441694864      0.13946030635568      0.51408338673680
  C   0.89652692426854      0.31374481350398     -0.05670203380194
  F   -0.46329604542175     -0.68633514623941      1.58949960023925
  H   0.82579227250531      0.99870189477102     -0.90213353719934
  H   1.50147246055822      0.79088056443345      0.72663290360093
  C   -1.13681762495386      1.40823187404202      0.87847694291315
  N   -1.60063355429805      2.44352151919895      1.18246224644843
  N   -1.36558232005643     -0.52571496373815     -0.56027218880096
  O   -1.82027133153517     -1.62724987411496     -0.31603956914431
  O   -1.49372019898361      0.13990580120953     -1.57854694214299
  N   1.35697147141608     -0.98343022966655     -0.50578199924759
  H   1.74560532577287     -1.52044110637041      0.25657271608525
  H   2.05464703767648     -0.89027545338515     -1.22925152568668
