13
Coordinates from ORCA-job run
  C   -0.45604668228706     -0.06392143547154      0.46065561265705
  C   0.70609878218385     -0.19412954068967     -0.51146657829180
  F   -0.05792094753546     -0.43308127195499      1.70236708526231
  H   0.98359361273260     -1.25828465720945     -0.52505582480871
  H   0.34478490897243      0.08067168218716     -1.50320660791182
  C   -1.03054773488815      1.28192149474245      0.49655404022433
  N   -1.49367895472769      2.36040955825628      0.52234873816701
  N   -1.55474501397838     -1.03270944356953      0.01314711061672
  O   -2.08250616561068     -0.74242271009915     -1.05325486325064
  O   -1.76511193271657     -2.00899220583613      0.71399834047068
  N   1.74745512802032      0.71442333881677     -0.08224180667725
  H   2.32527393218008      1.00204012170921     -0.85820871505405
  H   2.33335106765470      0.29307506911860      0.62436346859618
