13
Coordinates from ORCA-job run
  C   -0.45360364396699     -0.03277361166434      0.57404054252605
  C   0.84770120623415      0.42723579703611     -0.06192631337809
  F   -0.21435150536216     -1.04870174092730      1.43982244787139
  H   0.61405005590952      1.25602806285134     -0.73062662192671
  H   1.48120593342224      0.80646815664206      0.75148824726618
  C   -1.17526705156055      1.04613550219029      1.25424922678930
  N   -1.70885789692244      1.93211403091354      1.81064684748523
  N   -1.35591313108346     -0.56747598639874     -0.54153873901201
  O   -1.67046760462852     -1.74186111219750     -0.49801463611494
  O   -1.65598500838932      0.26830004730494     -1.38272951989157
  N   1.38976739793464     -0.68322104658859     -0.81583061007828
  H   1.97292116446294     -0.35989159154414     -1.57308006649775
  H   1.92880008394997     -1.30235650761768     -0.22750080503880
