13
Coordinates from ORCA-job run
  C   -0.47189714383084     -0.05896373240642      0.60815492558132
  C   0.99745177965523     -0.36573872028493      0.34245096649482
  F   -0.86017812894410     -0.58447551009283      1.80556893602332
  H   1.54195580027942      0.02197483774699      1.20815190942081
  H   1.10307315607309     -1.45206046184922      0.34342364737775
  C   -0.74832849608264      1.38056845882723      0.57459297952777
  N   -0.87375863094707      2.54796968141146      0.54221966621198
  N   -1.39250392994484     -0.71970088839386     -0.42819248091138
  O   -2.57269980522962     -0.40196575943788     -0.35806086120312
  O   -0.89155122834887     -1.54067448487153     -1.18921310543173
  N   1.54845847870218      0.18217684699146     -0.86901417798104
  H   1.10381303481564     -0.20111908634759     -1.68981587550658
  H   1.51616511380244      1.19200881870711     -0.89126652960393
