13
Coordinates from ORCA-job run
  C   -0.48440097098940     -0.07731030833695      0.67161376384192
  C   0.94322188342709     -0.31406393070540      0.21239543393560
  F   -0.71038505985614     -0.70189313801641      1.86104796511916
  H   1.60747213732614      0.07940250249398      0.99139905156962
  H   1.06995020463314     -1.39700266538068      0.16784580463108
  C   -0.79977376278571      1.34896827029267      0.78329483763984
  N   -0.94812869965349      2.50619043944255      0.91675651047637
  N   -1.42417045914899     -0.72126775174276     -0.34741851529409
  O   -2.23844690198195     -0.00671325396634     -0.91450149094444
  O   -1.26380185534124     -1.92588760682909     -0.48997588930617
  N   1.09293787623575      0.27805082454184     -1.10159135964869
  H   1.47262588493125      1.21306028483455     -1.05308520088120
  H   1.68389972320354     -0.28253366662799     -1.69678091113900
