13
Coordinates from ORCA-job run
  C   -0.46415134699749      0.15191458194624      0.54340121570576
  C   0.88208396273969      0.32914998325216     -0.13825985867384
  F   -0.32669049945459     -0.62312654592839      1.64791567856625
  H   0.73221643535478      0.97319867915164     -1.00520922272576
  H   1.53170075474828      0.85370202143133      0.57592762916256
  C   -1.10119285930860      1.42291878813794      0.89899529818988
  N   -1.56604507367385      2.46098607813050      1.19160474326447
  N   -1.39093912252425     -0.57836475100439     -0.43210357315288
  O   -1.80053033833046     -1.67651559639744     -0.10636529765674
  O   -1.61079636236457      0.03827155274722     -1.46544316313315
  N   1.33936166057229     -0.97736462396580     -0.56301016238755
  H   1.79708058777710     -1.46997957405300      0.19097133307377
  H   1.97890220146168     -0.90279059344801     -1.34042462023278
