13
Coordinates from ORCA-job run
  C   -0.46149807766067     -0.00942050319210      0.56641958634143
  C   0.85758858211393      0.40805343751415     -0.06160753532272
  F   -0.25561046691957     -1.01399563261002      1.45428926224278
  H   0.65134315704502      1.22746220908624     -0.75084412283894
  H   1.48891413628050      0.79049764053273      0.75239884932340
  C   -1.16649142179466      1.09766015178330      1.21778990166719
  N   -1.68673659992335      2.00278030798933      1.75572137630088
  N   -1.36162828124037     -0.54557395372106     -0.55043258619284
  O   -1.64310067237053      0.28414863113919     -1.40414338027311
  O   -1.68977069104957     -1.71590795773941     -0.49788040417946
  N   1.38329690155218     -0.72959446347752     -0.78579638571930
  H   2.00518670357441     -0.43548036985068     -1.52418021988248
  H   1.87850673039269     -1.36062949745415     -0.17173434146683
