13
Coordinates from ORCA-job run
  C   -0.40965239153141      0.04223471721826      0.57304461619774
  C   0.92807021385362      0.46660157420379     -0.04490962609506
  F   -0.20296758051304     -0.92774462087103      1.49844693094802
  H   0.73762154718265      1.28353180166601     -0.74276387308766
  H   1.53146007998263      0.85627960782189      0.78025264314645
  C   -1.15666560067340      1.15361334145817      1.16120692658400
  N   -1.69998272383725      2.07460128459406      1.64764189791167
  N   -1.25706615199199     -0.55831834428668     -0.54681404098787
  O   -1.60667698293705      0.24481070522587     -1.40266379680545
  O   -1.44614382079119     -1.76359419272783     -0.52707550318639
  N   1.63888714401939     -0.59439356551255     -0.70926290395594
  H   1.19657309291070     -0.87237441712286     -1.57463282859517
  H   1.74754317432635     -1.40324789166710     -0.11247044207435
