13
Coordinates from ORCA-job run
  C   -0.39906298705267     -0.08647377009818      0.44349890236882
  C   0.71464502265205     -0.31335320809298     -0.58654737734194
  F   0.04273474014114     -0.43162179420342      1.67922091386091
  H   0.31095950619657     -0.09703257965229     -1.57734945437436
  H   0.95736171656048     -1.37994381081707     -0.53814853071276
  C   -0.87524325598838      1.29769936930116      0.45668832302854
  N   -1.18026996908453      2.43191969858027      0.44999448028699
  N   -1.57002302341309     -0.99602040925598      0.08477951644191
  O   -1.73604786095585     -1.99168145066028      0.77047763371401
  O   -2.18889162916695     -0.65555066784607     -0.91622875881118
  N   1.90355401240907      0.46345194090150     -0.35378805167098
  H   1.74310637557426      1.45344012835750     -0.48515675853273
  H   2.27517735212789      0.30416655348585      0.57255916174277
