13
Coordinates from ORCA-job run
  C   -0.47543241854796     -0.10950065059798      0.64112291484707
  C   1.00002370241387     -0.34886074715718      0.25972344545572
  F   -0.73154419639092     -0.68225366813159      1.84064844919620
  H   1.57485751963491     -0.04329414334223      1.13822017435335
  H   1.11226310048177     -1.43294472204439      0.15646644999308
  C   -0.82220610607331      1.31184870803032      0.66510610297829
  N   -1.02231829941355      2.46839165146188      0.71115754153365
  N   -1.35342079866321     -0.79768363622225     -0.39948030884907
  O   -1.42648160962841     -0.21980347923033     -1.47923164690328
  O   -1.82967034202742     -1.87938190204558     -0.09709391327110
  N   1.50103207717653      0.32119470070362     -0.90728040181172
  H   1.49804611367385      1.32607443101222     -0.79355670358749
  H   0.97385125736386      0.08621345756350     -1.73680210393469
