13
Coordinates from ORCA-job run
  C   -0.39841330743992      0.03807119640510      0.58137797962492
  C   0.92167473500146      0.47598256177322     -0.06474315285043
  F   -0.16235745061788     -0.92905478312867      1.50263591633748
  H   0.70786189974980      1.29058737977259     -0.75857360715841
  H   1.53776790787043      0.87261270967371      0.74764219550819
  C   -1.14411998070497      1.14234822033788      1.18439217957093
  N   -1.68561878484308      2.05816904406379      1.68231721075528
  N   -1.26253096822603     -0.57190031076669     -0.52035834896107
  O   -1.64577555583428      0.22835320368135     -1.36443038482801
  O   -1.43039419556542     -1.78039364590306     -0.50154036644772
  N   1.62994557006074     -0.57762239255818     -0.74306034302922
  H   1.76029186761514     -1.38447210326033     -0.14803867319928
  H   1.17266826293400     -0.86168108009071     -1.59862060532266
