13
Coordinates from ORCA-job run
  C   -0.46830875419992     -0.12302282229774      0.64401296737906
  C   1.00671324536125     -0.33861713456864      0.24726114465545
  F   -0.70639769854740     -0.71267322488914      1.83906371582345
  H   1.58507719115699     -0.03544518409785      1.12427374585237
  H   1.13222565506710     -1.41990276964964      0.13077491079282
  C   -0.83345992423652      1.29328442243166      0.68723518441365
  N   -1.04771537476004      2.44660651924090      0.74807730433058
  N   -1.34639186235274     -0.81079123553433     -0.39674777898248
  O   -1.43628135412392     -0.22193096939035     -1.46926754481503
  O   -1.80552601942588     -1.90220029704465     -0.10286418589487
  N   1.48878018430956      0.35115341236621     -0.91622178555987
  H   1.47402405229110      1.35454297635290     -0.79082007416086
  H   0.95726065946040      0.11899630708068     -1.74377760383428
