13
Coordinates from ORCA-job run
  C   -0.45696934649653     -0.12118386758998      0.65637258383127
  C   0.98114898215662     -0.25267153084013      0.17180142869851
  F   -0.59225879349755     -0.72769270905141      1.86224179544520
  H   1.59010334994824      0.01972101780923      1.03781014823586
  H   1.15347621538670     -1.31882813239946     -0.03370258407851
  C   -0.91645938897642      1.26831864032110      0.73615408002359
  N   -1.30238295553862      2.37206251472139      0.84506651506209
  N   -1.41295842182836     -0.85102853417602     -0.30423233494719
  O   -1.15042393784328     -0.73985538997924     -1.49610755380650
  O   -2.34180246262980     -1.46147806807155      0.19729936112627
  N   1.25939522121638      0.66248638476792     -0.91143891257110
  H   2.24746737248413      0.86213018244674     -0.96717815809319
  H   0.94066416561849      0.28901949204142     -1.79308636892630
