17

C	-0.5007	0.042056	-1.445803
C	0.0	0.0	0.0
Br	0.280511	-1.479978	-2.4474
H	1.095484	0.0	0.0
C	-2.018325	-0.056672	-1.592237
H	-2.36754	-0.985891	-1.139408
H	-2.48941	0.790137	-1.084953
H	-2.304572	-0.041259	-2.645879
C	-0.040392	1.259697	-2.116406
N	0.207918	2.26296	-2.677457
C	-0.501143	-1.189139	0.664642
N	-0.902881	-2.13531	1.238521
C	-0.364773	1.256789	0.795297
H	-1.439676	1.391088	0.948116
H	0.049893	2.134415	0.294161
H	0.125688	1.183244	1.769541
H	2.647027	0.0	0.0
