17

C	-0.421012	-0.004726	-1.476449
C	0.0	0.0	0.0
Br	0.260265	1.633954	-2.364441
H	1.096695	0.0	0.0
C	0.189059	-1.201173	-2.198869
H	-0.233446	-2.123267	-1.791665
H	1.265468	-1.181389	-2.006516
H	-0.013343	-1.153354	-3.269982
C	-1.874218	0.0512	-1.630303
N	-3.045872	0.060189	-1.734666
C	-0.453734	-1.245356	0.601647
N	-0.811425	-2.246023	1.107721
C	-0.484435	1.18963	0.822006
H	-0.064577	2.109063	0.412039
H	-0.106843	1.079412	1.841046
H	-1.575474	1.266215	0.85222
H	2.696465	0.0	0.0
