17

C	-0.323073	0.073697	-1.481256
C	0.0	0.0	0.0
Br	-2.30301	0.371686	-1.833261
H	1.09897	0.0	0.0
C	0.460784	1.191667	-2.147105
H	1.507786	1.053008	-1.83902
H	0.107485	2.162993	-1.801273
H	0.362363	1.145017	-3.232753
C	-0.02807	-1.198072	-2.137436
N	0.230991	-2.215385	-2.666584
C	-0.527097	-1.198617	0.622112
N	-0.950182	-2.151398	1.167573
C	-0.369758	1.245684	0.801492
H	-1.434073	1.483761	0.741843
H	0.223312	2.092783	0.454168
H	-0.099035	1.076575	1.845741
H	2.634944	0.0	0.0
