17

C	-0.397269	-0.019318	-1.486402
C	0.0	0.0	0.0
Br	0.240437	1.645558	-2.355644
H	1.096659	0.0	0.0
C	0.280385	-1.18977	-2.191154
H	-0.114601	-2.128167	-1.793738
H	0.106443	-1.151821	-3.267936
H	1.349552	-1.124652	-1.966131
C	-1.847425	-0.02081	-1.670925
N	-3.016353	-0.054531	-1.798532
C	-0.451701	-1.247733	0.598519
N	-0.80362	-2.250816	1.104314
C	-0.505905	1.190275	0.807092
H	-0.051857	2.106002	0.427296
H	-0.189291	1.069645	1.846066
H	-1.596634	1.283078	0.778315
H	2.71055	0.0	0.0
