11

C	-0.515794	0.000757	-1.42808
C	0.0	0.0	0.0
Cl	-2.33638	0.006689	-1.425762
H	1.091692	0.0	0.0
H	-0.368502	-0.892411	0.508716
H	-0.368102	0.891839	0.510205
C	-0.099849	1.19686	-2.166358
N	0.21715	2.153204	-2.771221
C	-0.110347	-1.197491	-2.169659
N	0.202486	-2.154645	-2.773308
Br	3.540189	0.0	0.0
