11

C	-0.529823	-0.008513	-1.430554
C	0.0	0.0	0.0
Cl	0.081785	-1.458037	-2.299111
H	1.090195	0.0	0.0
H	-0.36675	-0.890904	0.513109
H	-0.369371	0.893851	0.509468
C	-1.998694	-0.073661	-1.448895
N	-3.172217	-0.122525	-1.422155
C	-0.119934	1.186619	-2.176612
N	0.197665	2.140839	-2.78275
Br	3.575633	0.0	0.0
