11

C	-0.530067	-0.009037	-1.430527
C	0.0	0.0	0.0
Cl	0.081182	-1.459463	-2.298666
H	1.090058	0.0	0.0
H	-0.369319	0.89415	0.508928
H	-0.366954	-0.890554	0.513397
C	-1.999029	-0.073882	-1.448225
N	-3.17263	-0.124099	-1.422825
C	-0.119714	1.185455	-2.177498
N	0.199476	2.140959	-2.780826
Br	3.575122	0.0	0.0
