11

C	-0.528778	-0.01901	-1.43082
C	0.0	0.0	0.0
Cl	0.075796	-1.479448	-2.285106
H	1.090206	0.0	0.0
H	-0.367385	-0.886874	0.519343
H	-0.369441	0.897638	0.502489
C	-1.997801	-0.075723	-1.450572
N	-3.171612	-0.117912	-1.420931
C	-0.113464	1.168502	-2.18613
N	0.15995	2.142321	-2.783566
Br	3.575818	0.0	0.0
