16

C	-0.562385	0.014279	-1.419084
C	0.0	0.0	0.0
Cl	-0.035548	-1.374963	-2.425558
H	1.090114	0.0	0.0
H	-0.09603	0.890343	-1.872375
C	-2.074874	0.120082	-1.476301
H	-2.39502	0.997796	-0.911554
H	-2.543141	-0.770753	-1.05182
H	-2.411348	0.224025	-2.510472
N	-0.488131	-1.20714	0.740299
O	0.02629	-2.289189	0.465156
O	-1.386892	-1.062943	1.586126
N	-0.393404	1.223261	0.651191
H	0.39025	1.503312	1.234225
H	-1.198599	1.055251	1.241683
H	2.716727	0.0	0.0
