17

C	-0.437518	-0.026029	-1.463741
C	0.0	0.0	0.0
Cl	0.400822	1.206258	-2.417122
H	1.094677	0.0	0.0
C	-0.215227	-1.332549	-2.079871
N	-0.006551	-2.342383	-2.642001
N	-1.950165	0.249261	-1.532747
O	-2.33193	1.406033	-1.655961
O	-2.673369	-0.72008	-1.318615
N	-0.418646	-1.242298	0.623969
H	-1.23221	-1.129427	1.217984
H	0.360536	-1.586982	1.170669
C	-0.467529	1.251795	0.722252
H	-1.54875	1.247743	0.923728
H	0.066728	1.293633	1.674868
H	-0.226652	2.159688	0.165737
F	2.571484	0.0	0.0
