17

C	-0.50518	-0.025227	-1.448409
C	0.0	0.0	0.0
Cl	0.328145	-1.269019	-2.387593
H	1.093788	0.0	0.0
C	-1.946125	-0.269252	-1.523563
N	-3.102175	-0.48284	-1.521068
N	-0.236577	1.338881	-2.091103
O	-1.169117	2.14176	-2.044427
O	0.884093	1.557067	-2.52013
N	-0.421596	-1.26575	0.594269
H	0.395949	-1.669721	1.033765
H	-1.140563	-1.1272	1.292803
C	-0.496419	1.219656	0.758313
H	-0.104871	1.139875	1.77579
H	-1.591898	1.287129	0.803111
H	-0.104977	2.148496	0.339571
F	2.591288	0.0	0.0
