17

C	-0.526162	-0.036881	-1.439851
C	0.0	0.0	0.0
Cl	0.305104	-1.275219	-2.387624
H	1.093782	0.0	0.0
C	-1.966001	-0.295638	-1.490063
N	-3.118174	-0.528326	-1.465818
N	-0.283917	1.326904	-2.094017
O	-1.224937	2.119319	-2.034726
O	0.825684	1.555512	-2.546984
N	-0.40985	-1.264902	0.606829
H	0.416273	-1.662635	1.035164
H	-1.117358	-1.125489	1.316392
C	-0.493164	1.219686	0.76079
H	-0.074009	1.151159	1.768138
H	-1.588188	1.273308	0.833077
H	-0.124652	2.150856	0.32648
F	2.590257	0.0	0.0
