17

C	-0.476302	0.060268	-1.437824
C	0.0	0.0	0.0
Cl	-2.262932	0.243999	-1.594728
H	1.094153	0.0	0.0
C	0.143502	1.156591	-2.178229
N	0.576143	2.075108	-2.769177
N	-0.071645	-1.249481	-2.137652
O	1.106646	-1.294003	-2.463725
O	-0.904906	-2.129601	-2.269369
N	-0.417564	-1.258761	0.590893
H	0.366402	-1.606923	1.128918
H	-1.220163	-1.149657	1.19857
C	-0.418026	1.239427	0.774336
H	0.121882	1.224721	1.724703
H	-0.130822	2.156999	0.253085
H	-1.496863	1.270897	0.973937
F	2.56697	0.0	0.0
