17

C	-0.51726	0.007442	-1.423904
C	0.0	0.0	0.0
Cl	-2.313643	0.103481	-1.524558
H	1.094227	0.0	0.0
C	0.022541	1.114796	-2.208617
N	0.402704	2.036459	-2.830381
N	-0.07	-1.296415	-2.110758
O	1.106609	-1.297609	-2.445535
O	-0.871238	-2.20891	-2.229817
N	-0.394174	-1.247884	0.634843
H	0.414977	-1.582327	1.142379
H	-1.167438	-1.12512	1.276513
C	-0.420038	1.253989	0.749649
H	0.136028	1.267968	1.690525
H	-0.151078	2.161316	0.201582
H	-1.495471	1.279038	0.966669
F	2.568345	0.0	0.0
