17

C	-0.502829	0.018957	-1.428173
C	0.0	0.0	0.0
Cl	-2.297515	0.139669	-1.54689
H	1.094202	0.0	0.0
C	0.061105	1.119413	-2.20396
N	0.512312	2.015444	-2.815358
N	-0.06959	-1.289854	-2.113786
O	-0.88176	-2.191584	-2.233463
O	1.107069	-1.307961	-2.446477
N	-0.407607	-1.247722	0.623185
H	-1.212183	-1.129222	1.228502
H	0.38044	-1.576295	1.16822
C	-0.414782	1.254028	0.752456
H	-1.491947	1.288637	0.958606
H	-0.130486	2.161874	0.212942
H	0.130681	1.256514	1.699341
F	2.567203	0.0	0.0
