17

C	-0.503668	0.019381	-1.429096
C	0.0	0.0	0.0
Cl	-2.298803	0.128457	-1.547733
H	1.094131	0.0	0.0
C	0.051432	1.127759	-2.201186
N	0.433805	2.054515	-2.814254
N	-0.060048	-1.283598	-2.118997
O	-0.860787	-2.195716	-2.231302
O	1.115652	-1.286041	-2.459156
N	-0.402035	-1.249745	0.623948
H	-1.194519	-1.131583	1.243479
H	0.393917	-1.581205	1.154434
C	-0.421645	1.25125	0.753327
H	0.125772	1.258121	1.698927
H	-1.49867	1.278661	0.961006
H	-0.145216	2.160916	0.213129
F	2.568473	0.0	0.0
