15

C	0.0	0.0	0.0
C	-0.536211	-0.021134	-1.453709
Cl	1.789099	0.0	0.0
H	-0.147839	-0.943276	-1.90319
C	-0.445801	1.206332	0.701034
N	-0.739404	2.212966	1.232048
C	-0.439774	-1.20688	0.705876
N	-0.722875	-2.212879	1.243791
C	0.029464	1.109031	-2.19435
N	0.456829	2.009853	-2.815433
C	-2.066805	-0.00335	-1.480436
H	-2.412175	-0.115172	-2.509557
H	-2.480074	0.920733	-1.078362
H	-2.503125	-0.810094	-0.891075
Br	-5.137574	0.0	0.0
