15

C	0.0	0.0	0.0
C	-0.536456	-0.064011	-1.451351
Cl	1.789482	0.0	0.0
H	-0.113282	-0.977754	-1.885803
C	-0.445312	1.222036	0.673834
N	-0.731808	2.242947	1.180982
C	-0.433674	-1.1901	0.739254
N	-0.734972	-2.172074	1.310741
C	-0.011077	1.074431	-2.207906
N	0.387788	1.982449	-2.83724
C	-2.065768	-0.108066	-1.474961
H	-2.458464	-0.973302	-0.941504
H	-2.52335	0.765665	-1.012029
H	-2.412466	-0.160741	-2.508081
Br	-5.141823	0.0	0.0
