15

C	0.0	0.0	0.0
C	-0.531649	0.023825	-1.453848
Cl	1.789526	0.0	0.0
H	-1.615215	-0.165595	-1.331854
C	-0.423694	1.1874	0.749756
N	-0.572916	2.185749	1.352173
C	-0.405111	-1.2333	0.687424
N	-0.574703	-2.256988	1.239352
C	0.07104	-1.061062	-2.220613
N	0.540206	-1.908351	-2.886457
C	-0.339277	1.377835	-2.129356
H	-0.687169	1.31499	-3.162029
H	-0.946906	2.1212	-1.61057
H	0.708097	1.688882	-2.129978
Br	-3.486348	0.0	0.0
