14

C	-0.603641	0.035654	-1.40165
C	0.0	0.0	0.0
Br	0.280597	1.322785	-2.527114
H	1.092385	0.0	0.0
H	-1.656272	0.310407	-1.363249
N	-0.556543	-1.299717	-2.086009
O	0.455382	-1.974219	-1.945125
O	-1.552281	-1.604688	-2.743242
C	-0.495199	-1.18947	0.703759
N	-0.963866	-2.084395	1.305199
N	-0.400501	1.237752	0.676341
H	-1.144974	1.07284	1.34071
H	0.408045	1.59425	1.172031
Br	3.414369	0.0	0.0
