14

C	-0.572606	0.029793	-1.414342
C	0.0	0.0	0.0
Br	0.234879	1.404113	-2.49004
H	1.092437	0.0	0.0
H	-1.645361	0.211393	-1.406567
N	-0.394114	-1.287779	-2.114711
O	-1.360856	-1.691361	-2.761459
O	0.68595	-1.849283	-1.99333
C	-0.482868	-1.220236	0.668074
N	-0.938019	-2.136803	1.246083
N	-0.42509	1.212889	0.691378
H	-1.276949	1.057486	1.216737
H	0.312361	1.489128	1.329013
Br	3.461736	0.0	0.0
