14

C	-0.560293	0.047079	-1.427621
C	0.0	0.0	0.0
Br	0.200896	1.481825	-2.465274
H	1.093684	0.0	0.0
H	-1.638666	0.185205	-1.419926
N	-0.349187	-1.239323	-2.169459
O	-1.366642	-1.755931	-2.629333
O	0.790797	-1.668063	-2.248736
C	-0.512283	-1.225227	0.626132
N	-0.974888	-2.200765	1.088001
N	-0.391924	1.14835	0.800535
H	0.260612	1.899344	0.625854
H	-1.333119	1.452218	0.596007
Br	3.439096	0.0	0.0
