17

C	0.0	0.0	0.0
C	-0.345288	-0.030919	-1.518915
F	1.3698	0.0	0.0
H	0.337309	0.708094	-1.950475
N	-0.322032	1.402431	0.539479
O	-0.433105	1.518323	1.75412
O	-0.329358	2.329682	-0.268615
C	-0.635961	-1.043186	0.853131
H	-0.38209	-2.028101	0.457071
H	-1.718449	-0.894916	0.802708
H	-0.301398	-0.954879	1.884125
N	-1.668512	0.255269	-1.9979
H	-2.382705	-0.323486	-1.556525
H	-1.911518	1.200149	-1.731246
C	0.10312	-1.342876	-2.02066
N	0.470013	-2.371921	-2.450942
Br	-4.255637	0.0	0.0
