12
Coordinates from ORCA-job run
  C   -0.74394092481032      0.33233537855783     -0.05075345907485
  C   0.44774867627061     -0.64661869522395     -0.10364845249852
  Br  -0.53522116706863      1.70003345572400     -1.40724027423782
  H   0.29557918819778     -1.37229463973434      0.70812973962256
  H   -1.64739026027908     -0.22010380871414     -0.33592586864771
  N   -0.76526097087397      0.94608587647601      1.25473415942522
  H   -1.34338893831621      1.77663109726503      1.25273369748633
  H   -1.14448582447271      0.29522049497431      1.93472000951999
  C   1.72111911643768      0.03575229825499      0.14272645869592
  N   2.75869389053400      0.54768248825366      0.33848160219766
  C   0.48052232089293     -1.39325486745109     -1.36465276985605
  N   0.47602489348791     -2.00346907838229     -2.36730484263274
