12
Coordinates from ORCA-job run
  C   -0.75506661004443      0.41092432198055     -0.24362154452761
  C   0.54862604664911     -0.30258312297889     -0.65434508967214
  Br  -0.59422361319950      2.30233153558512     -0.90969166563302
  H   0.74919786781058     -0.09757304172299     -1.71090965893344
  H   -1.58147398101639      0.00323968854529     -0.82517168659473
  N   -0.99857941038057      0.26537731725510      1.13050491340827
  H   -1.92540865201204      0.56782324395919      1.39682526611943
  H   -0.30594256442826      0.72740460881418      1.70823432574067
  C   0.39026159677238     -1.75111937374556     -0.47434916633306
  N   0.23987616356160     -2.91020270240741     -0.36658557526160
  C   1.67701317230885      0.19085065257306      0.14142058088908
  N   2.55571998397866      0.59352687214236      0.80768930079816
