12
Coordinates from ORCA-job run
  C   -0.69549531536125      0.39029545157541     -0.16744269128093
  C   0.41582783530064     -0.67459767100664     -0.05299073867520
  Br  -0.14673270296811      1.78779565226981     -1.39214047441431
  H   0.06862673920315     -1.41429113989109      0.68249854979396
  H   -1.56600381939511     -0.08045285374524     -0.63985415906719
  N   -0.91602322181923      0.95453002157668      1.14204485421144
  H   -1.42452321188578      1.82697413779145      1.07751222242855
  H   -1.45936756729846      0.31000955124800      1.70705409445910
  C   1.66665026264415     -0.10039135943159      0.45016868373251
  N   2.68238805455339      0.32670084911946      0.85352881499036
  C   0.62343842347385     -1.37663370755733     -1.32281649004314
  N   0.75021452355276     -1.95093893194892     -2.33856266613516
