12
Coordinates from ORCA-job run
  C   -0.76848426693211      0.25088759406411      0.01902592051654
  C   0.61087885621589     -0.21834489218794     -0.49492264356295
  Br  -1.79129708689073      0.90634837468186     -1.49570490462382
  H   1.07676322013187      0.63872227615261     -0.99395573998205
  H   -1.32795115904540     -0.61473746003119      0.39283653374508
  N   -0.55965715657162      1.33010429663117      0.95280617852713
  H   -0.21002597576295      0.96122994933452      1.83196712776780
  H   -1.43115102929175      1.81166873676376      1.13540822624095
  C   0.50052704928581     -1.33743686157121     -1.43398257219999
  N   0.40572011189531     -2.23852941366020     -2.18020049115516
  C   1.43873179578978     -0.60290738985106      0.65465152913456
  N   2.05594564117589     -0.88800521032643      1.61207083559191
