12
Coordinates from ORCA-job run
  C   -0.78090849893310      0.26953680999148     -0.15306138400802
  C   0.39993352647688     -0.71757016661962     -0.06861044480418
  Br  -0.31428093183641      1.69756360040646     -1.46666244200115
  H   0.07137659035513     -1.51858877009122      0.60624685026013
  H   -1.63089458774801     -0.24120219624942     -0.60580131226986
  N   -1.11186250000585      0.72186636097788      1.14360325582850
  H   -0.38232372636125      1.30149183504764      1.54331903380232
  H   -1.98082416140210      1.23947767151850      1.14762792490842
  C   1.56834640718898     -0.07396999358065      0.53947025290973
  N   2.46717285585852      0.45966947518678      1.07372063857546
  C   0.72941169663267     -1.31224671791195     -1.36532164826516
  N   0.96485332977454     -1.82702790867588     -2.39353072493619
