12
Coordinates from ORCA-job run
  C   -0.68289752689266      0.52997489843535     -0.25287406202221
  C   0.59572357922011     -0.24351722899826     -0.63940302879648
  Br  -0.43768221396972      2.40111219540587     -0.71472942722109
  H   0.78358364603369     -0.09890987530656     -1.70937934487341
  H   -1.49275610364616      0.18221890244442     -0.90625014826402
  N   -0.90825915752219      0.41033088636939      1.16145583492686
  H   -1.16821847888556     -0.54334205414735      1.39339422003306
  H   -1.65088435117209      1.02891810328783      1.46156993079411
  C   0.36439605862279     -1.67304165988274     -0.39436985286127
  N   0.10818167484946     -2.80068261064986     -0.18955256454775
  C   1.76467841337774      0.22316689481744      0.11192184566631
  N   2.72613445998459      0.58477154822445      0.67921659716589
