12
Coordinates from ORCA-job run
  C   -0.69024214720573      0.53950004818588     -0.21500762326356
  C   0.56444978416382     -0.23682231431174     -0.66723007652627
  Br  -0.45645151178218      2.41396774363271     -0.67324067079485
  H   0.70695967207837     -0.07586529792627     -1.74173889098433
  H   -1.53122630928338      0.20219134610515     -0.83357351191859
  N   -0.85099060407405      0.41083261789219      1.20679816563955
  H   -1.59667261150329      1.00905387671190      1.53975995692766
  H   -1.07425464348513     -0.54998407404930      1.44730921643331
  C   0.33214393771968     -1.66875529572500     -0.43653871933995
  N   0.07120379873262     -2.79759662836692     -0.24428268522719
  C   1.76836594694398      0.20808681074907      0.04098018163223
  N   2.75571468769529      0.54539116710232      0.57776465742200
