12
Coordinates from ORCA-job run
  C   -0.63132638552591      0.53933256933652     -0.31086300619274
  C   0.75140156926735     -0.08802978816746      0.05493490128492
  Br  -0.30837477186671      2.42279119089087     -0.70306070896745
  H   1.16478936854270      0.47463087618155      0.90079340676931
  H   -0.98376134432157      0.08651716504222     -1.23934820020823
  N   -1.63954921043815      0.41743695667870      0.68636760772521
  H   -1.34317246815844      0.76516094657198      1.58903087183371
  H   -1.97812722510560     -0.53330948717023      0.76452577038219
  C   1.70148909622763     -0.03324075404539     -1.05802570316187
  N   2.44733897339086      0.00127865292207     -1.96420016234654
  C   0.53291030257473     -1.47744729978574      0.47200647771913
  N   0.28638209541311     -2.57512102845508      0.80883874516236
