12
Coordinates from ORCA-job run
  C   -0.77405403781752      0.15936333178652      0.13124391806586
  C   0.61265744198607     -0.21609575209762     -0.43193109694527
  Br  -1.90039781215676      0.70138370912565     -1.43317636317384
  H   1.03413073389169      0.67138070909715     -0.92126229338114
  H   -1.26879038790354     -0.72862430953266      0.52372093530580
  N   -0.64029676044920      1.13511909922413      1.13740409010186
  H   -1.50000437207686      1.27821911663693      1.64961228666353
  H   -0.31120108875900      2.02260061630028      0.77822944876706
  C   0.53391188265780     -1.29220698464569     -1.42462293910584
  N   0.48625511329003     -2.16824046735252     -2.20435578694015
  C   1.50381150150007     -0.61698249657896      0.66495805111120
  N   2.22397778583722     -0.94691657196321      1.53117974953093
