12
Coordinates from ORCA-job run
  C   -0.79298995320881      0.24658820046507     -0.12723670816343
  C   0.42533706329753     -0.69753166813403     -0.10998234789712
  Br  -0.40469555968520      1.75197882568501     -1.37894270726468
  H   0.13892594538636     -1.54198189615616      0.53026494991183
  H   -1.63158275713236     -0.27409138381733     -0.58981315681159
  N   -1.11643052562643      0.62442764984210      1.19473846701074
  H   -0.40241634016757      1.21298749508271      1.60905275318721
  H   -2.00484039711239      1.10587629777770      1.23857955322051
  C   1.57928694314209     -0.03978441405596      0.51024378967599
  N   2.46626356786460      0.50072348657611      1.05724026626579
  C   0.75349992161673     -1.21639056715054     -1.43912672291487
  N   0.98864209162545     -1.67180202611467     -2.49501813622035
