12
Coordinates from ORCA-job run
  C   -0.77628573477956      0.39607298917241     -0.25425006105775
  C   0.35073149901157     -0.66729973698414     -0.07318989792696
  Br  -0.16668424078667      1.72304935137057     -1.54209264231166
  H   -0.04811153347542     -1.42170499031342      0.61910278500599
  H   -1.63166658833502     -0.10514436425152     -0.71205770854550
  N   -1.19067979956029      1.04551383398725      0.94485506362836
  H   -0.42306654065982      1.49472281733867      1.42872983537154
  H   -1.68665145296148      0.41734216968041      1.56400996030818
  C   1.52639943516387     -0.06544366476602      0.55961346203046
  N   2.42777311068482      0.44142904528817      1.11550958610308
  C   0.69404659965473     -1.34591119141579     -1.32394870456832
  N   0.92319524604326     -1.91262625910660     -2.32628167803744
