12
Coordinates from ORCA-job run
  C   -0.75890291083924      0.51703499612166     -0.32210030695482
  C   0.55971126600549     -0.25534019871632     -0.64618620097402
  Br  -0.51191639470785      2.34655251530838     -0.96031982265290
  H   0.80422774699607     -0.13497158682443     -1.70726754289155
  H   -1.55084190324270      0.08568780162760     -0.93726538542601
  N   -1.16717525010645      0.51924912660606      1.03801107963856
  H   -1.52396196580146     -0.38186741736158      1.32868244917433
  H   -0.44323386214537      0.84339614438420      1.66672517461386
  C   0.33336049958642     -1.67594103125044     -0.35908933606131
  N   0.07150340987024     -2.79531444491395     -0.11893512282027
  C   1.66649281478943      0.25563194176655      0.16487330587324
  N   2.52073654959541      0.67588215325228      0.85187170848088
