12
Coordinates from ORCA-job run
  C   -0.62652632665913      0.48738680972356     -0.10264368319970
  C   0.75487186048619     -0.19762270824765     -0.03969470771534
  Br  -0.28412527224241      2.45941179699061     -0.18210438086445
  H   1.26514294415561      0.14434446999277      0.86969935131592
  H   -1.11071501764143      0.26061487655535     -1.05220321401818
  N   -1.42824493157704      0.06329196184411      0.97402363427116
  H   -2.39259567633634      0.34793449911164      0.87020406924208
  H   -1.07824241126077      0.37985028186999      1.86961627151860
  C   1.59262568564091      0.14330101036007     -1.19343177835898
  N   2.26116171223627      0.38758680181829     -2.12678178783464
  C   0.58431202736011     -1.65480319145382      0.03423024366581
  N   0.46133540583804     -2.82129660856491      0.08008598197773
