12
Coordinates from ORCA-job run
  C   -0.61689579243540      0.50145523100017     -0.09227204070044
  C   0.75441651327312     -0.20214471679542     -0.01500157196598
  Br  -0.25967440353231      2.46767661628308      0.03812417650844
  H   1.21203116682830      0.04513440232423      0.95146781265793
  H   -1.04552400111318      0.37153748657212     -1.08568037559177
  N   -1.48321693360678     -0.01448153363678      0.89027568676561
  H   -1.18583228247172      0.21269907372305      1.83085756132293
  H   -2.43803156613363      0.28858221989548      0.75743418431494
  C   1.66168495578829      0.23890721972693     -1.07873494325583
  N   2.38787752799411      0.56840627445224     -1.94007037360136
  C   0.57176118738646     -1.65774733652495     -0.09177250262824
  N   0.44140362802274     -2.82202493702015     -0.16462761382622
