12
Coordinates from ORCA-job run
  C   -0.75988182315026      0.27395816578701      0.02817069101324
  C   0.59616969446039     -0.24144671152406     -0.50385340028380
  Br  -1.79186174268099      0.93737778918176     -1.47670749409894
  H   1.07701656825156      0.59455418551616     -1.02388128513498
  H   -1.33609817767344     -0.57058537632587      0.42408864849642
  N   -0.50414503986795      1.35936871253840      0.94277874646680
  H   -0.14385269586532      0.99320991844166      1.81855496436598
  H   -1.35946945693787      1.86423205406057      1.13848971530105
  C   0.43539480509297     -1.37051372872925     -1.42348852623763
  N   0.29810994703407     -2.28160022963420     -2.15081133903089
  C   1.43274482949099     -0.63413987785461      0.63665831027293
  N   2.05587309184585     -0.92341490145758      1.58900096886982
