12
Coordinates from ORCA-job run
  C   -0.75786887296903      0.39602264016903     -0.25681069187818
  C   0.59016987096576     -0.24581275601881     -0.64265514824581
  Br  -0.64075485070912      2.32606608466784     -0.81115562088325
  H   0.83136023006670      0.02523205582227     -1.67570487477410
  H   -1.54041957358310     -0.00838433829635     -0.89810791548642
  N   -1.05765459656656      0.16515517062065      1.09424877813797
  H   -0.41015145795902      0.61843582795637      1.72783871738184
  H   -2.00632565653713      0.41868875097874      1.33254280224153
  C   0.47877028213717     -1.70701136061804     -0.55043605568720
  N   0.36574758075952     -2.87490007091780     -0.51734673238931
  C   1.65991814340997      0.24373123338050      0.23280645295508
  N   2.48720890098483      0.64277676225559      0.96378028862786
