12
Coordinates from ORCA-job run
  C   -0.78559977160304      0.50721009989153     -0.26758190948313
  C   0.53810737072653     -0.21351567916281     -0.67897043301542
  Br  -0.61736302965413      2.36625084255101     -0.84439568914779
  H   0.73362688830168     -0.04247426440399     -1.74323374079772
  H   -1.59208817213742      0.07678214334234     -0.86418729709536
  N   -1.13215638284162      0.44621927039315      1.10785682731106
  H   -0.39039944183951      0.76729826641591      1.71700053633610
  H   -1.45310803093718     -0.47416955582921      1.37910693162899
  C   0.36171389263876     -1.65066852935115     -0.44410182236180
  N   0.13924598218382     -2.78668831084828     -0.24594540894702
  C   1.66403772014636      0.29496621274689      0.10687380871054
  N   2.53298297501576      0.70978950425462      0.77857819686154
