12
Coordinates from ORCA-job run
  C   -0.71086105562576      0.38535560331140     -0.10678224412295
  C   0.42723895014326     -0.65658315370414     -0.12227126275396
  Br  -0.24989411427110      1.88333473029760     -1.24608897910791
  H   0.13131445465347     -1.45658738048533      0.57150892327499
  H   -1.59170980041903     -0.07027268441248     -0.57463852109908
  N   -0.88280577175774      0.84539450497465      1.24966355186881
  H   -1.41352860319112      1.70659398596744      1.27381730251877
  H   -1.38323588216982      0.14670751340103      1.78921939188144
  C   1.68810553129071     -0.09059915687506      0.36503240067062
  N   2.71270131371226      0.32821115236292      0.75437712561969
  C   0.59027914176773     -1.26012522461225     -1.44799578482292
  N   0.68139583586716     -1.76042989022577     -2.50584190392751
