12
Coordinates from ORCA-job run
  C   -0.69237303058106      0.39021673789548     -0.18124534119532
  C   0.42815065838524     -0.66501556764915     -0.06871118015439
  Br  -0.10489319277001      1.85984902677266     -1.29913431029560
  H   0.05574544519448     -1.44898826820676      0.60616751796551
  H   -1.53094504932768     -0.06479435704672     -0.72201803931711
  N   -0.98653920187486      0.87891665934734      1.14396389767832
  H   -1.50392387990976      1.74743143032995      1.10110051625617
  H   -1.54762505533965      0.19777275835618      1.64507304972436
  C   1.64264698359451     -0.10403403490554      0.52927580220119
  N   2.62924486552378      0.31344641093835      1.00801631591070
  C   0.71104107345671     -1.29340448844912     -1.36234197208951
  N   0.89947038364831     -1.81039630738269     -2.39914625668430
