12
Coordinates from ORCA-job run
  C   -0.76391064049852      0.40305775126063     -0.22378084829429
  C   0.56081070828110     -0.25087296009539     -0.66562322721301
  Br  -0.65160705280288      2.33313089064769     -0.78306085950053
  H   0.76289703515201      0.02148261138534     -1.70650292578176
  H   -1.57640703668649      0.00722023815413     -0.83243931019574
  N   -1.00967631561800      0.17442603847310      1.13815863969215
  H   -1.94379153711892      0.43993480476574      1.41727348146362
  H   -0.32954676379844      0.61598291895299      1.74509589311751
  C   0.43849170636502     -1.71105718512446     -0.57368546588080
  N   0.31164274720544     -2.87763672902267     -0.54268217617616
  C   1.67010338277848      0.22585189509537      0.16644494817277
  N   2.53099376674119      0.61747972550752      0.86180185059624
