12
Coordinates from ORCA-job run
  C   -0.80052690796123      0.24389156514075     -0.08077859885854
  C   0.42301954981331     -0.69101724935375     -0.14543566568193
  Br  -0.48858510054207      1.77503493420172     -1.32320798081120
  H   0.17598460713353     -1.54966645555106      0.49224606153666
  H   -1.65885511792185     -0.27445772941535     -0.50855769541841
  N   -1.05650645641278      0.59485925006350      1.26305481824709
  H   -0.32544552454284      1.18029633053700      1.65102465277739
  H   -1.94440932690364      1.06878822796880      1.36267889384411
  C   1.60442533641883     -0.03770991794665      0.42568411310170
  N   2.51913941477016      0.49452404849822      0.93390319153149
  C   0.68446929057214     -1.18321093023325     -1.49931499256824
  N   0.86729023557643     -1.62233207390992     -2.57229679770012
