12
Coordinates from ORCA-job run
  C   -0.78346933915138      0.20027366414619      0.02955702442481
  C   0.60260686858777     -0.23192816032302     -0.49819627729202
  Br  -1.91768237873916      0.60198194653630     -1.49469488361066
  H   0.98371135626475      0.59074641551688     -1.11361214322535
  H   -1.26131402477740     -0.65129072224099      0.52813427947519
  N   -0.61466995877376      1.39389699295728      0.82104694703159
  H   -1.51384673222350      1.81966683584102      1.01069727459084
  H   -0.18118887161214      1.15866089859988      1.70885065809081
  C   0.53243604814198     -1.45672127019106     -1.29906220025669
  N   0.47072308554185     -2.44196392691061     -1.93406838093606
  C   1.50463688515057     -0.42561226533011      0.64364972820530
  N   2.17805706159043     -0.55671040860177      1.59669797350225
