12
Coordinates from ORCA-job run
  C   -0.84924828295498      0.25580940831243      0.00126704971818
  C   0.56592077849032     -0.22643881853576     -0.44921078430945
  Br  -1.73837401008300      0.95435242396908     -1.58821807341549
  H   1.08446655499407      0.62618772291542     -0.90409766923982
  H   -1.42730086571696     -0.61270969442552      0.32205958651629
  N   -0.85915144537527      1.23699873886716      1.03256151754304
  H   -0.59364339187433      0.84524456661908      1.92744955722114
  H   -0.28790711712313      2.04275733158471      0.81295091007629
  C   0.50167100078726     -1.31375648016013     -1.42822736571931
  N   0.43742619066187     -2.19597697864044     -2.20028825964350
  C   1.31065533507033     -0.65321128971811      0.74044897427607
  N   1.85748525312383     -0.96025693078792      1.73330455697656
