12
Coordinates from ORCA-job run
  C   -0.77586696012019      0.27256317058059     -0.17605652024722
  C   0.41013658252692     -0.70828738325338     -0.09161916774453
  Br  -0.26421001596104      1.77623398461798     -1.38403839412520
  H   0.05742156304283     -1.55038326645387      0.51791498434523
  H   -1.59833211750803     -0.21861819893986     -0.69629327670616
  N   -1.17168156368783      0.64755715677335      1.12696145633728
  H   -0.46843735168660      1.20983689496146      1.59294597752282
  H   -2.04645456986658      1.15517905715685      1.12027165737792
  C   1.54004241400817     -0.09308623958701      0.61105870060223
  N   2.40493103590453      0.41170478850911      1.22347114364321
  C   0.80995350866578     -1.22386501477941     -1.40228350646553
  N   1.10349747468204     -1.67983494958582     -2.44333305454004
