12
Coordinates from ORCA-job run
  C   -0.84451413594461      0.26850003999439     -0.01135258762302
  C   0.56750483667677     -0.24390867865763     -0.43934151615998
  Br  -1.71199612801860      0.94290679433329     -1.62279954051964
  H   1.10283656858807      0.59135533446511     -0.90704520626617
  H   -1.43653392812999     -0.58479713671560      0.32453484389805
  N   -0.84882879742253      1.27297124093561      0.99730360583040
  H   -0.59297928288238      0.89842444437585      1.90251190633453
  H   -0.26707735388358      2.06692111050293      0.76272399826128
  C   0.49505791709266     -1.35120039488367     -1.39486052492796
  N   0.42372459818041     -2.24613957172261     -2.15150168841714
  C   1.29347700521501     -0.65664621235427      0.76676498356160
  N   1.82033112209243     -0.95838610338616      1.77206346885106
