12
Coordinates from ORCA-job run
  C   -0.75285129004498      0.29419112730819     -0.00961010897473
  C   0.63074335232262     -0.21429932484747     -0.47260429524989
  Br  -1.63549784020122      1.12364363155213     -1.52702954785506
  H   1.17453099554745      0.64973120363724     -0.87049158363681
  H   -1.38152605425871     -0.56344329148969      0.25729618002366
  N   -0.54964375499739      1.28377101840891      1.01984216843688
  H   -1.40505298433405      1.79855115443529      1.18743671804936
  H   -0.27852766664643      0.82782431848482      1.88570681658548
  C   0.52256316560919     -1.24987372101155     -1.50324003795580
  N   0.42683611880978     -2.08604581364946     -2.32146050920374
  C   1.35691244870465     -0.73478120699885      0.69221730946470
  N   1.88951350948909     -1.12826909582956      1.66193689031594
