12
Coordinates from ORCA-job run
  C   -0.85098649704232      0.30326385587200     -0.10162376644020
  C   0.40403930054073     -0.62134044369281     -0.15455943400584
  Br  -0.63920541524868      1.70381871888156     -1.43741528223996
  H   0.22270323277862     -1.42621915582050      0.57121653400581
  H   -1.71184240075084     -0.29121193501761     -0.41456628081398
  N   -1.11435250414956      0.88904384753373      1.17074499497180
  H   -1.41560853841842      0.20139735526077      1.84942638527984
  H   -0.32818396655251      1.42066074889462      1.52378057482919
  C   1.59607857628795      0.10789584888446      0.28444004751983
  N   2.51675323995635      0.71284103722949      0.69027597960135
  C   0.60013258013893     -1.23930654729565     -1.46711943229180
  N   0.72047239245974     -1.76184333073005     -2.51160032041605
