12
Coordinates from ORCA-job run
  C   -0.76757976572130      0.51221677009722     -0.30891854047176
  C   0.58020113286607     -0.20237168306543     -0.64584512019598
  Br  -0.56159881090820      2.38158489389363     -0.83662374000794
  H   0.84148796247884     -0.01607068400602     -1.69335851930369
  H   -1.53260901645003      0.09440132839667     -0.96604910108379
  N   -1.20514981400168      0.42431203139117      1.03899904272955
  H   -0.50542019088365      0.73124615370839      1.70269820084029
  H   -1.54313731757091     -0.50122916695408      1.26885116931970
  C   0.39228407307861     -1.64292902905337     -0.44283287751614
  N   0.16486419981802     -2.78250967236149     -0.27285283710232
  C   1.65485489885927      0.29572834245209      0.21498740707254
  N   2.48280264843498      0.70462071550123      0.93994491571955
