12
Coordinates from ORCA-job run
  C   -0.76713820565955      0.51790098414721     -0.29908390278308
  C   0.56054320871641     -0.22370350412451     -0.65822655598831
  Br  -0.54834494083091      2.37323374385502     -0.87073561533784
  H   0.79905010465391     -0.05841686085070     -1.71458143297822
  H   -1.55644985464191      0.09886101931915     -0.92603503049807
  N   -1.16744992407579      0.46453403228771      1.06193388113027
  H   -0.44568374789586      0.77745514260096      1.69880683407814
  H   -1.51142106156071     -0.45073956622769      1.32233612057690
  C   0.35363844397438     -1.65716670095800     -0.42562165047360
  N   0.10746180972600     -2.78839712846215     -0.22821791407549
  C   1.66298519044998      0.27059728710662      0.16880772238572
  N   2.51280897714405      0.67684155130638      0.86961754396359
