19

C	-0.53566	-0.011202	-1.467275
C	0.035534	0.19176	-0.046084
Cl	-0.396132	1.555818	-2.389051
H	1.093906	0.47029	-0.157341
C	0.265246	-1.052507	-2.221028
H	-0.121349	-1.139332	-3.238208
H	1.325097	-0.795513	-2.228786
H	0.168607	-2.006948	-1.701815
N	-1.941837	-0.387913	-1.482241
H	-2.482895	0.38119	-1.098439
H	-1.976264	-1.141209	-0.793754
N	-0.088218	-1.106954	0.609764
H	0.880612	-1.548178	0.56739
H	-0.243625	-0.950657	1.601978
C	-0.68436	1.272122	0.750582
H	-0.17374	1.40248	1.709065
H	-1.714433	0.968991	0.964998
H	-0.698417	2.235086	0.236694
H	2.431212	-1.873149	0.548604
