15
Coordinates from ORCA-job run
  C   -0.72374839500112     -0.10038419892391     -0.25410028507071
  C   0.66869651991367      0.18192344988155     -0.80176898972423
  Br  -1.95135542539379     -0.22069554428262     -1.87612417563940
  H   0.66403621432932      1.15805874494016     -1.29815422312552
  H   0.87792006067189     -0.57106977545195     -1.56260928264787
  N   -1.13833635458339      0.92994975392960      0.63245449512148
  H   -1.09008767938776      1.84473642553744      0.20037028668474
  H   -2.07983076073962      0.77173160583873      0.96989970503160
  N   -0.79102008665403     -1.41300135143344      0.34961218932295
  H   -0.46476104290351     -1.32883334073842      1.30716936799532
  H   -1.74380990154072     -1.75408444434785      0.36445710465526
  C   1.73513025044315      0.13692973381110      0.29065415455520
  H   1.51697436894388      0.84590690706946      1.09028771883469
  H   1.80609540368004     -0.86509994093637      0.71794425191351
  H   2.71209682822199      0.38393197510653     -0.13109231790701
