15
Coordinates from ORCA-job run
  C   -0.80456145098706     -0.04087342192483     -0.20016236531080
  C   0.60141710604850      0.12545907315151     -0.77865627261173
  Br  -2.02907977092368     -0.10292493276327     -1.85668216549870
  H   0.64063090638492      1.06273634259881     -1.34326014914715
  H   0.76760918083269     -0.67771078376275     -1.50079544756311
  N   -1.12977202981987      1.01993595083989      0.66657200158688
  H   -1.02004433584514      1.92373367729803      0.22706406838430
  H   -2.07160736638825      0.91331947361629      1.02130024118687
  N   -1.09398297258450     -1.26328814717230      0.49575220270814
  H   -0.89391517119458     -2.06986341462505     -0.08082515544564
  H   -0.54380856106768     -1.29614919285028      1.34639148856624
  C   1.68309133082981      0.10761795241461      0.29945606462045
  H   1.52134669900593      0.89525923347186      1.03566682536410
  H   1.70669746536817     -0.85062539439795      0.82332935418797
  H   2.66597897034073      0.25437358410544     -0.15415069102782
