15
Coordinates from ORCA-job run
  C   -0.65233324473718     -0.13499918840326     -0.25381627135047
  C   0.81081431936867     -0.48796131727186     -0.01264796086074
  Br  -0.91296515738632      0.42086060464841     -2.12992460081861
  H   1.05497155000750     -1.32309107452157     -0.67213221253493
  H   0.86641207670988     -0.87464219026444      1.01654993323914
  N   -1.01410164737977      1.01930452297785      0.54528962272185
  H   -0.89847170337911      0.78435447074275      1.52704237784921
  H   -1.98239573934597      1.27344968151746      0.38642640829341
  N   -1.44188680458022     -1.34408279819083     -0.10976780168609
  H   -2.42207427080958     -1.15122306117746     -0.28358398346964
  H   -1.34414227103268     -1.68548699424590      0.84183931444200
  C   1.79557941510099      0.66032793332360     -0.17919552867843
  H   2.80848524513738      0.32096476563144      0.05085261095719
  H   1.54658471890179      1.49202104011090      0.47918120900884
  H   1.78752351342460      1.03020360512292     -1.20511311711275
