15
Coordinates from ORCA-job run
  C   -0.66949137553230      0.02116039781583     -0.24432578754756
  C   0.68669136548918      0.64872236362073      0.05648590829184
  Br  -0.82908700266430     -0.34889542287004     -2.17675887563222
  H   0.67135345368257      0.91220374873968      1.12522624097643
  H   0.73710707509087      1.58963494146358     -0.49497806592816
  N   -1.69839993479255      1.00623433334854      0.03316171370110
  H   -2.61645368958581      0.62956939845151     -0.17534974196712
  H   -1.66390544738982      1.24413142141110      1.02001695883088
  N   -0.76437141843877     -1.27111257512895      0.40596585962050
  H   -1.65745362490273     -1.70643183626950      0.20515956731137
  H   -0.68910817396501     -1.13613695993991      1.41022115506913
  C   1.89288745725831     -0.23279795234173     -0.23348802603024
  H   1.95111254699424     -0.47013157229972     -1.29634453562035
  H   1.83696195088069     -1.17130664372943      0.31718837938104
  H   2.81215681787543      0.28615635772832      0.04881924954336
