15
Coordinates from ORCA-job run
  C   -0.72585654787113     -0.04175328515865     -0.23753769854199
  C   0.71602922207039     -0.47351737048590      0.02852959131352
  Br  -0.88545617146302      0.41676994839391     -2.17047164626085
  H   0.73224104476838     -0.83214950518051      1.06876010898054
  H   0.92675801424558     -1.34169981483700     -0.60224461758739
  N   -1.03884932304103      1.12654114672100      0.52241206454376
  H   -0.70222141210938      1.03446992797114      1.47394933945432
  H   -2.04155710701692      1.27012595559391      0.52411445655078
  N   -1.71779193064390     -1.08624210929789     -0.04005892070201
  H   -1.55146786406613     -1.86633757298113     -0.66624740703105
  H   -1.64146296811099     -1.41946770275143      0.91717155794695
  C   1.77904222276260      0.60072603287308     -0.16588665734054
  H   1.57548697836892      1.47645865746640      0.45085567962666
  H   1.81259826410053      0.92548431304397     -1.20596464804557
  H   2.76350757800609      0.20959137862911      0.10261879709287
