13

C	0.0	0.0	0.0
C	-0.356972	-0.269034	-1.482267
F	1.346894	0.0	0.0
H	-0.321841	0.706004	-1.981193
H	-1.376307	-0.637528	-1.542969
C	-0.790661	1.12509	0.506874
N	-0.726619	2.245102	0.924664
N	-0.339674	-1.229643	0.849025
O	-0.401437	-2.314964	0.275829
O	-0.344024	-1.061086	2.06393
C	0.574304	-1.1694	-2.15605
N	1.29402	-1.866491	-2.767469
H	-2.209734	0.0	0.0
