13

C	0.0	0.0	0.0
C	-0.3392	-0.31815	-1.478057
F	1.347021	0.0	0.0
H	-0.228379	0.632233	-2.012407
H	-1.377341	-0.628911	-1.55067
C	-0.825291	1.12884	0.451971
N	-0.778656	2.269994	0.812139
N	-0.339221	-1.202613	0.887717
O	-0.430758	-2.30413	0.351662
O	-0.325636	-0.995117	2.096798
C	0.550359	-1.299177	-2.092172
N	1.238114	-2.063771	-2.658696
H	-2.187248	0.0	0.0
