13

C	0.0	0.0	0.0
C	-0.347431	-0.226825	-1.491105
F	1.346999	0.0	0.0
H	-0.242328	0.754681	-1.967301
H	-1.387549	-0.530633	-1.570364
C	-0.801614	1.11268	0.523105
N	-0.743887	2.228596	0.952653
N	-0.342601	-1.245961	0.821387
O	-0.346979	-1.102138	2.039661
O	-0.410173	-2.318979	0.226681
C	0.536014	-1.167055	-2.173531
N	1.214511	-1.893554	-2.798555
H	-2.206739	0.0	0.0
