16

C	-0.469786	0.002184	-1.430941
C	0.0	0.0	0.0
F	-1.891936	-0.048693	-1.485582
H	1.094795	0.0	0.0
H	-0.328976	-0.955792	0.429806
C	-0.101625	1.264021	-2.110702
N	0.190213	2.265661	-2.649837
C	0.051715	-1.179526	-2.226199
H	-0.273827	-2.09792	-1.73259
H	1.142942	-1.150744	-2.244509
H	-0.354225	-1.155564	-3.240693
C	-0.542444	1.166676	0.813129
H	-1.63608	1.198466	0.805708
H	-0.203969	1.081655	1.848673
H	-0.164751	2.118177	0.428331
Cl	3.057278	0.0	0.0
