16

C	-0.458862	-0.001824	-1.443365
C	0.0	0.0	0.0
F	0.114947	1.098025	-2.091044
H	1.093966	0.0	0.0
H	-0.335093	0.95579	0.424766
C	0.013485	-1.217576	-2.14639
N	0.376433	-2.200214	-2.676595
C	-1.962519	0.132364	-1.647028
H	-2.305028	1.022897	-1.114291
H	-2.492867	-0.741491	-1.26621
H	-2.181863	0.247413	-2.710803
C	-0.537892	-1.170957	0.809368
H	-1.629082	-1.160124	0.914816
H	-0.103115	-1.142581	1.811259
H	-0.2439	-2.125318	0.362799
Cl	3.05465	0.0	0.0
