16

C	-0.402144	-0.145817	-1.462205
C	0.0	0.0	0.0
F	-1.772251	-0.470572	-1.563918
H	1.094664	0.0	0.0
H	-0.356375	0.960008	0.383853
C	-0.257676	1.146701	-2.16328
N	-0.177615	2.178757	-2.717587
C	0.395493	-1.218011	-2.180499
H	0.107413	-1.265476	-3.23282
H	0.195048	-2.184992	-1.715643
H	1.461558	-0.99657	-2.08313
C	-0.510906	-1.141487	0.872971
H	-0.162128	-0.987759	1.896509
H	-1.601799	-1.194726	0.878974
H	-0.116223	-2.104775	0.54406
Cl	3.501925	0.0	0.0
