18

C	-0.389419	0.015325	-1.481782
C	0.0	0.0	0.0
Cl	-2.249884	-0.352834	-1.616907
H	1.09376	0.0	0.0
N	-0.03778	1.185878	-2.132733
H	-0.36026	2.006817	-1.645577
H	-0.277851	1.178105	-3.113573
N	0.209969	-1.118199	-2.315672
O	0.698282	-2.074548	-1.733045
O	0.143981	-0.974002	-3.533707
C	-0.530658	-1.170896	0.811497
H	-0.385894	-2.124699	0.310559
H	-1.591826	-1.036166	1.034112
H	0.02215	-1.179484	1.751725
N	-0.394502	1.236534	0.662854
H	-1.34787	1.507908	0.453261
H	0.258564	1.982922	0.466575
Br	3.582256	0.0	0.0
