18

C	-0.304295	-0.014767	-1.513004
C	0.0	0.0	0.0
Cl	-0.162654	1.606926	-2.215654
H	1.097282	0.0	0.0
N	0.516804	-0.897654	-2.277038
H	0.33954	-1.853934	-1.998718
H	1.48546	-0.672463	-2.047709
N	-1.762836	-0.455704	-1.670301
O	-1.97039	-1.593755	-2.082684
O	-2.625474	0.310197	-1.253551
C	-0.454137	-1.309334	0.652303
H	-0.039018	-1.34241	1.661976
H	-0.097994	-2.19879	0.127753
H	-1.546614	-1.359745	0.727664
N	-0.481305	1.183699	0.679865
H	0.079818	1.328557	1.510525
H	-1.454012	1.076986	0.946099
Br	3.538595	0.0	0.0
