18

C	-0.509068	-0.000499	-1.464309
C	0.0	0.0	0.0
Cl	0.362614	-1.224211	-2.401388
H	1.093464	0.0	0.0
N	-1.916678	-0.193567	-1.684902
H	-2.438241	0.556299	-1.249959
H	-2.185542	-1.082151	-1.284439
N	-0.179174	1.377379	-2.044558
O	0.962105	1.593389	-2.418511
O	-1.091267	2.206169	-1.994039
C	-0.483716	-1.247503	0.726861
H	-1.560555	-1.201812	0.922711
H	0.03012	-1.283883	1.6868
H	-0.250961	-2.160927	0.17653
N	-0.40979	1.180148	0.749433
H	-1.356446	1.468837	0.53586
H	0.219109	1.94786	0.552678
Br	3.615972	0.0	0.0
