18

C	-0.57934	0.050185	-1.407807
C	0.0	0.0	0.0
Cl	0.329468	-1.101823	-2.497368
H	1.091675	0.0	0.0
N	-1.978801	-0.153593	-1.42935
H	-2.178194	-1.128753	-1.2507
H	-2.347781	0.111896	-2.334193
N	-0.312052	1.417599	-2.03645
O	0.741244	1.962615	-1.761089
O	-1.163384	1.838629	-2.820667
C	-0.423992	-1.285198	0.70569
H	0.112157	-1.342884	1.654964
H	-0.160535	-2.172631	0.12556
H	-1.500203	-1.291604	0.913251
N	-0.466746	1.204455	0.68476
H	-1.187877	0.983629	1.359093
H	0.320889	1.628922	1.159088
Br	3.608916	0.0	0.0
