18

C	-0.549251	0.002475	-1.422374
C	0.0	0.0	0.0
Cl	0.169383	-1.289438	-2.414382
H	1.093905	0.0	0.0
N	-1.958962	-0.089735	-1.440146
H	-2.288876	0.614009	-0.784045
H	-2.300222	0.118988	-2.37086
N	-0.092439	1.311761	-2.145167
O	0.874799	1.918006	-1.707424
O	-0.760693	1.637134	-3.126391
C	-0.467074	-1.239171	0.748332
H	-0.178917	-2.14665	0.21867
H	0.024171	-1.256868	1.72515
H	-1.55197	-1.239135	0.880344
N	-0.548626	1.211388	0.641356
H	0.157919	1.935905	0.571033
H	-0.676182	1.02131	1.628467
Br	3.654272	0.0	0.0
