15

C	0.0	0.0	0.0
C	-0.219532	-0.146601	-1.582383
F	1.387056	0.0	0.0
H	0.615447	0.472061	-1.951151
C	-0.452943	1.311181	0.468989
N	-0.591911	2.443328	0.754335
C	-0.474358	-1.113318	0.81826
N	-0.573924	-2.04367	1.529897
N	-1.418066	0.295417	-2.215022
H	-1.381059	1.306216	-2.286488
H	-2.154454	0.090083	-1.498797
N	-0.033334	-1.563481	-1.868545
H	0.929022	-1.830196	-1.69409
H	-0.239301	-1.682361	-2.852003
F	-2.456249	0.0	0.0
