15

C	0.0	0.0	0.0
C	-0.219713	-0.147943	-1.584962
F	1.386776	0.0	0.0
H	0.622629	0.460605	-1.953535
C	-0.451584	1.312351	0.469707
N	-0.58197	2.444865	0.757752
C	-0.476682	-1.111938	0.818161
N	-0.575333	-2.040824	1.531992
N	-1.413698	0.307055	-2.221288
H	-2.1495	0.108592	-1.503597
H	-1.36173	1.317442	-2.289169
N	-0.050984	-1.566414	-1.86894
H	-0.258306	-1.684613	-2.852343
H	0.905357	-1.850119	-1.691352
F	-2.436455	0.0	0.0
