15

C	0.0	0.0	0.0
C	-0.410848	0.24498	-1.51218
F	1.37451	0.0	0.0
H	0.561482	0.282138	-2.018008
C	-0.419796	1.043959	0.950462
N	-0.550834	1.868916	1.775793
C	-0.43891	-1.321621	0.477325
N	-0.540866	-2.43821	0.830613
N	-1.044238	1.542506	-1.595748
H	-1.902172	1.399434	-1.04942
H	-1.317556	1.66307	-2.565146
N	-1.205179	-0.800992	-2.123702
H	-2.018211	-0.851013	-1.496551
H	-0.708023	-1.685827	-2.087635
F	-2.487451	0.0	0.0
