15

C	0.0	0.0	0.0
C	-0.413122	0.042894	-1.476572
F	1.391699	0.0	0.0
H	-1.506985	0.023123	-1.385851
C	-0.440675	1.183912	0.753169
N	-0.564074	2.14627	1.415153
C	-0.478821	-1.239838	0.640926
N	-0.646334	-2.257819	1.204783
N	0.064545	-1.192896	-2.082711
H	1.048165	-1.119098	-2.322556
H	-0.468747	-1.374381	-2.919001
N	0.067036	1.302548	-2.033741
H	1.06521	1.25516	-2.207932
H	-0.402479	1.495672	-2.906417
F	-2.485125	0.0	0.0
