18

C	-0.299801	-0.031657	-1.514472
C	0.0	0.0	0.0
Br	0.234904	1.725704	-2.263572
H	1.091204	0.0	0.0
C	0.565285	-1.080851	-2.211873
H	0.211606	-2.080947	-1.955313
H	1.575724	-0.939148	-1.809681
H	0.528708	-0.949795	-3.293771
C	-1.727101	-0.155981	-1.811363
N	-2.879557	-0.273587	-2.021997
N	-0.493359	-1.297295	0.561383
O	0.199635	-2.301659	0.402455
O	-1.572741	-1.301046	1.164545
C	-0.611836	1.145347	0.772378
H	-1.682526	1.269562	0.588701
H	-0.080881	2.060132	0.514954
H	-0.468991	0.968218	1.839895
F	2.588589	0.0	0.0
