16

C	0.0	0.0	0.0
C	-0.576339	0.072327	-1.416745
Br	1.956525	0.0	0.0
H	-1.649293	-0.108533	-1.257881
H	-0.269635	-0.974459	0.414689
C	-0.5056	1.109293	0.899937
H	-0.130989	2.075228	0.554858
H	-1.600103	1.095057	0.868555
H	-0.176676	0.961304	1.930699
N	-0.092209	-0.934528	-2.34483
H	0.918345	-0.9923	-2.277144
H	-0.481017	-1.833453	-2.088984
N	-0.31653	1.382561	-2.011162
H	-0.558137	1.284341	-2.991177
H	-0.978462	2.043204	-1.61595
Br	-4.023809	0.0	0.0
