16

C	0.0	0.0	0.0
C	-0.398351	0.300422	-1.471442
Br	1.97015	0.0	0.0
H	0.224882	-0.365768	-2.088647
H	-0.247065	-1.044132	0.208413
C	-0.607857	0.910059	1.034519
H	-1.695357	0.792695	0.969833
H	-0.288348	0.632836	2.040888
H	-0.352904	1.949154	0.835078
N	-0.156953	1.71251	-1.748796
H	0.834733	1.885711	-1.836146
H	-0.601268	1.904581	-2.636968
N	-1.76346	0.021561	-1.83557
H	-2.45794	0.435531	-1.216676
H	-1.946441	-0.973404	-1.820291
Br	-4.6151	0.0	0.0
