16

C	0.0	0.0	0.0
C	-0.423954	-0.338341	-1.457265
Br	1.964103	0.0	0.0
H	0.345777	0.06934	-2.121068
H	-0.283752	-0.818777	0.664828
C	-0.498819	1.329579	0.531705
H	-1.590158	1.30236	0.573324
H	-0.102476	1.512519	1.534358
H	-0.197031	2.143658	-0.128116
N	-1.665376	0.311646	-1.787887
H	-1.961842	-0.038583	-2.693293
H	-2.424755	0.096918	-1.137425
N	-0.452341	-1.785064	-1.721033
H	0.433465	-2.202966	-1.446313
H	-1.190625	-2.190419	-1.153399
Br	-4.52793	0.0	0.0
