16

C	0.0	0.0	0.0
C	-0.366265	-0.157608	-1.5082
Br	1.967402	0.0	0.0
H	0.239337	0.593276	-2.033582
H	-0.2908	-0.898478	0.550213
C	-0.567703	1.24409	0.637867
H	-1.656531	1.140133	0.657697
H	-0.303092	2.131837	0.056404
H	-0.203456	1.375592	1.658728
N	-1.740018	0.092805	-1.849905
H	-1.940497	1.082867	-1.877772
H	-2.419018	-0.302675	-1.199939
N	-0.015357	-1.486229	-2.018752
H	0.630846	-1.963286	-1.402863
H	-0.872149	-2.01908	-2.090238
Br	-4.521735	0.0	0.0
