16

C	0.0	0.0	0.0
C	-0.542962	0.298368	-1.395378
Br	1.968723	0.0	0.0
H	-1.623139	0.145371	-1.275444
H	-0.261701	-1.031985	0.235762
C	-0.510268	0.942475	1.064669
H	-0.170141	0.63371	2.055781
H	-1.604278	0.904769	1.033242
H	-0.168165	1.964528	0.888631
N	-0.054795	-0.695091	-2.338032
H	0.92412	-0.503724	-2.533138
H	-0.559882	-0.541453	-3.203702
N	-0.348834	1.671665	-1.857628
H	-1.033743	2.272668	-1.413309
H	0.577927	1.999067	-1.600728
Br	-3.988608	0.0	0.0
