16
Coordinates from ORCA-job run
  C   -0.77614466998582      0.27430031025157     -0.17502666233323
  C   0.56082048372223     -0.43666612548507     -0.41726912160194
  Cl  -1.59951996165576      0.74106966996010     -1.66303573080545
  H   0.38768650786716     -1.31812512470054     -1.02969399596096
  N   -0.62709503854399      1.37989060759578      0.67216122230030
  H   -0.30454996255492      1.07202716129787      1.58202318357494
  H   -1.49991963418491      1.87922837074939      0.78320887915131
  N   -1.68832201047299     -0.84875272704507      0.45019190870248
  O   -2.33678955862159     -0.52425927249573      1.43499697649988
  O   -1.68760217906054     -1.94059728438117     -0.10024443835050
  N   1.12860208986883     -0.75534213390925      0.85167205332119
  H   1.71700600041175      0.01128575939320      1.16066368215285
  H   1.68816250864733     -1.59545409740635      0.80014419081210
  N   1.45938148897871      0.46987125817606     -1.24801681223190
  O   1.36021110323132      0.37521953938007     -2.46690693853959
  O   2.21707283235319      1.21530408861914     -0.63386839669146
