16
Coordinates from ORCA-job run
  C   -0.71834927467338     -0.21113973455409      0.07659136842108
  C   0.75281549506321      0.08991512617441     -0.24874758156005
  Cl  -1.04245057630435     -1.92668206837098      0.03054868891817
  H   0.93439699520476      1.14528630688510     -0.00050180910371
  N   -1.53280417400359      0.46608495625541     -0.88408228734048
  H   -2.49300128576675      0.14718029863861     -0.82991394203230
  H   -1.49472062627260      1.46644661807884     -0.71525749851524
  N   -1.04500995278773      0.34610168931933      1.49664242531678
  O   -0.77532979964102      1.54003699209707      1.60731455186292
  O   -1.59700021680811     -0.35690493985124      2.32104865908586
  N   1.03533424216196     -0.32073378613668     -1.58247817128044
  H   1.93812372241450      0.01268736507113     -1.88727227803381
  H   0.29994378564825      0.00199211077193     -2.19700765241373
  N   1.67759123990222     -0.64658198280812      0.70099018987863
  O   2.74789557310046     -1.02459892096688      0.24448764593500
  O   1.31356485276217     -0.73109003060383      1.86963769086132
