16
Coordinates from ORCA-job run
  C   -0.76259872516510     -0.01738322703599      0.16194274294136
  C   0.71036532011231      0.18978775946403     -0.20877873127936
  Cl  -1.20989547355691     -1.72268378219191     -0.22690598622586
  H   1.04079341728069      1.11186837593089      0.27095907379229
  N   -1.53461664486848      0.95882778756356     -0.48108226498993
  H   -2.52771823275822      0.78204566312068     -0.40355104379563
  H   -1.23923739811015      1.06679484691511     -1.44305856275078
  N   -0.97844956522685      0.21235595444079      1.67670134545764
  O   -1.78437735777796     -0.49452930575084      2.25879350380556
  O   -0.37454692386558      1.17208464659971      2.13124133462449
  N   0.85139183589381      0.26216208420237     -1.61628500159730
  H   0.78373089102504     -0.65919049783777     -2.03198293343494
  H   1.74182456699057      0.66443866235726     -1.87340267549302
  N   1.55286820948772     -0.91734563785655      0.43732532774844
  O   1.36568841423109     -1.12092091152591      1.63011481012070
  O   2.36477766630800     -1.48931241839542     -0.28103093892366
