16
Coordinates from ORCA-job run
  C   -0.75851842975301      0.36517394137161     -0.02018633310991
  C   0.47052863507067     -0.37233859108422     -0.56557152900812
  Cl  -1.67497020514040      1.21385148759078     -1.26533427556577
  H   0.15113522588384     -1.07566251363105     -1.33059983235389
  N   -0.41667009444522      1.23858187618441      1.02011756166342
  H   -0.03236091157589      0.71210045129485      1.79590627117623
  H   -1.22133989258925      1.76041626394601      1.34219666988503
  N   -1.71207352691273     -0.79667769538433      0.45301883852465
  O   -2.22903767455058     -0.65002379803815      1.55159817445006
  O   -1.87084689182581     -1.73690512160409     -0.31243313443952
  N   1.12372770395819     -1.01348594141047      0.52841049240562
  H   1.81865438490748     -0.38748474752885      0.92156614444687
  H   1.58188683948595     -1.86416168783281      0.23189795035391
  N   1.37062797415334      0.62873142148151     -1.27703013295216
  O   1.14238710282896      0.82521754340880     -2.46605161022833
  O   2.25686976050446      1.15266711123600     -0.60850525524810
