16
Coordinates from ORCA-job run
  C   -0.75674583507759     -0.11740296764120      0.14603413819608
  C   0.68125397531614      0.27304505833341     -0.21221538094688
  Cl  -0.92758038717257     -1.90263746374327     -0.06378718999806
  H   0.85110936111904      1.28031328175666      0.17016422058022
  N   -1.64156620790772      0.65589806733031     -0.61665730093053
  H   -2.59899524584208      0.33761268452342     -0.54228209568479
  H   -1.32898229087365      0.70753337513913     -1.57786083029491
  N   -1.06481800640165      0.23405307721840      1.62077431279077
  O   -0.61920437862054      1.31094863462375      1.98646191451318
  O   -1.79089184148505     -0.51593860787557      2.25178449770689
  N   0.86400100257814      0.21811207410845     -1.61576824595963
  H   1.69567511016107      0.71930107585416     -1.89491561410154
  H   0.94719360810040     -0.74139947945879     -1.92999395426595
  N   1.65706928355981     -0.61582126400382      0.56983332060052
  O   2.58675601068220     -1.10661931938066     -0.06033962577201
  O   1.44672584186405     -0.73699822678437      1.76976783356664
