16

C	-0.258975	0.003609	-1.485906
C	0.0	0.0	0.0
F	-0.047424	1.267488	-1.977543
H	1.093588	0.0	0.0
H	-0.375254	-0.942516	0.405705
C	0.670042	-0.959674	-2.184533
H	1.666693	-0.740819	-1.772817
H	0.63103	-0.813731	-3.266933
H	0.398198	-1.987605	-1.939998
N	-1.715759	-0.313107	-1.816398
O	-2.383213	0.507981	-2.436851
O	-2.126279	-1.407507	-1.429404
N	-0.676336	1.132903	0.647079
H	-0.665011	0.95503	1.642258
H	-0.077809	1.937961	0.510681
F	2.740993	0.0	0.0
