16

C	-0.323872	0.127012	-1.471007
C	0.0	0.0	0.0
F	-1.651291	0.465073	-1.709268
H	1.090243	0.0	0.0
H	-0.440289	-0.915263	0.409242
C	0.607266	1.096086	-2.140956
H	0.495497	1.088596	-3.226414
H	0.361535	2.081736	-1.742101
H	1.619973	0.832664	-1.825562
N	-0.194852	-1.263227	-2.087775
O	0.752156	-1.498061	-2.836294
O	-1.064888	-2.075482	-1.778408
N	-0.412757	1.230662	0.680801
H	-1.273695	1.0967	1.191838
H	0.322691	1.468407	1.333841
F	2.69911	0.0	0.0
