16

C	-0.255217	-0.019625	-1.48901
C	0.0	0.0	0.0
F	-0.021595	1.226984	-2.008639
H	1.093588	0.0	0.0
H	-0.367326	-0.940659	0.4168
C	0.662301	-1.010593	-2.164952
H	0.379019	-2.029428	-1.897537
H	0.62645	-0.886432	-3.249626
H	1.657249	-0.789511	-1.756285
N	-1.711533	-0.323922	-1.815364
O	-2.139034	-1.399877	-1.396544
O	-2.367059	0.485816	-2.461913
N	-0.654649	1.152579	0.62895
H	-0.941701	0.891531	1.563926
H	0.052439	1.869452	0.735254
F	2.732796	0.0	0.0
