16

C	-0.2927	0.145286	-1.469522
C	0.0	0.0	0.0
F	-0.219042	1.482011	-1.8331
H	1.093453	0.0	0.0
H	-0.431774	0.84325	0.54668
C	0.659145	-0.662808	-2.301784
H	0.456031	-1.722532	-2.142543
H	0.565509	-0.422018	-3.360808
H	1.652904	-0.433946	-1.896586
N	-1.755879	-0.200993	-1.769583
O	-2.594517	0.211143	-0.967748
O	-2.025281	-0.81709	-2.799721
N	-0.457725	-1.321097	0.440275
H	-1.303685	-1.245188	0.989585
H	0.272258	-1.71864	1.015652
F	2.715924	0.0	0.0
