15

C	-0.393462	-0.029936	-1.452699
C	0.0	0.0	0.0
Cl	-2.143493	0.252618	-1.743691
H	1.114237	0.0	0.0
N	0.326309	1.152082	-2.1821
O	0.601958	0.974609	-3.359206
O	0.505989	2.167091	-1.531448
C	0.00645	-1.240966	-2.161511
N	0.299172	-2.147597	-2.85035
N	-0.368648	-1.198062	0.726383
O	-0.75547	-2.1953	0.095307
O	-0.145281	-1.172995	1.943815
C	-0.444187	1.155861	0.737254
N	-0.773763	2.0808	1.386674
H	2.312528	0.0	0.0
