15

C	-0.592444	0.163967	-1.385529
C	0.0	0.0	0.0
Cl	-0.010196	1.699015	-2.079616
H	1.115162	0.0	0.0
N	-0.109566	-0.935773	-2.359323
O	1.063348	-1.249059	-2.271495
O	-0.930433	-1.328314	-3.176551
C	-2.051056	0.16613	-1.380193
N	-3.223452	0.240904	-1.315448
N	-0.381891	-1.255359	0.577822
O	-0.804216	-2.145534	-0.192674
O	-0.105937	-1.421569	1.776819
C	-0.363535	1.098266	0.860507
N	-0.61209	2.024792	1.542067
H	2.275848	0.0	0.0
