15

C	-0.481676	-0.180684	-1.424042
C	0.0	0.0	0.0
Cl	-2.193762	-0.645238	-1.536944
H	1.103019	0.0	0.0
N	-0.293425	1.199036	-2.140546
O	0.830955	1.659756	-2.01853
O	-1.227996	1.671445	-2.764721
C	0.319212	-1.116523	-2.212287
N	0.901976	-1.807554	-2.964155
N	-0.257554	-1.160854	0.807683
O	-0.219104	-2.257013	0.221538
O	-0.280962	-1.007015	2.038127
C	-0.501883	1.205944	0.601399
N	-0.85945	2.23381	1.050692
H	2.280909	0.0	0.0
