15

C	-0.415108	-0.284849	-1.419593
C	0.0	0.0	0.0
Cl	0.614501	-1.476454	-2.21206
H	1.115327	0.0	0.0
N	-1.919209	-0.765086	-1.493259
O	-2.210548	-1.684531	-2.232812
O	-2.674045	-0.092155	-0.810521
C	-0.384994	0.937101	-2.218617
N	-0.368873	1.888773	-2.909606
N	-0.373905	-1.048801	0.912778
O	-0.671	-2.154443	0.431103
O	-0.23882	-0.81122	2.119688
C	-0.387487	1.292822	0.497165
N	-0.616836	2.378499	0.88965
H	2.28363	0.0	0.0
