15
Coordinates from ORCA-job run
  C   0.68356519164612     -0.43486357911610     -0.31311443672540
  C   -0.42662712999190      0.46811450082877      0.24866872053325
  Br  0.36084924889723     -0.97506995762271     -2.15745441691061
  H   -0.11531311515773      0.86766286937054      1.21746333810578
  N   0.68045718356025     -1.63486432873779      0.49289438925968
  H   0.93970538822206     -1.42292462733459      1.45263146393477
  H   1.33832065790277     -2.30782530244082      0.11692112655818
  C   1.95662583639371      0.29968187427422     -0.28357116776319
  N   3.01024653763361      0.80667480177767     -0.15170135836295
  N   -1.66964470511640     -0.32615471059587      0.50374462162251
  O   -1.88881264970351     -0.59105239068035      1.68087214903317
  O   -2.32958487209195     -0.64933140768578     -0.47299338083101
  N   -0.77004791899933      1.66500735936398     -0.59709644950358
  O   0.10310382423420      2.07914408547931     -1.34784093402471
  O   -1.87084347742912      2.15680081311952     -0.38942366492588
