15
Coordinates from ORCA-job run
  C   0.75478865722921     -0.38914404354637     -0.18318552339342
  C   -0.49329708803661      0.43901028142144      0.16283664502745
  Br  0.79047348653080     -0.96531236563823     -2.04435102457205
  H   -0.38052574875087      0.86702136963433      1.16245078651369
  N   0.69396946937514     -1.57957618401202      0.63431456608099
  H   1.45000625537515     -2.20864281505424      0.39012956681561
  H   0.76880455266691     -1.34237858119168      1.61985008637336
  C   1.95168445751716      0.43270344629547      0.04823346179758
  N   2.93054670660754      1.01410314501626      0.34537680833464
  N   -1.70580515670734     -0.43783166357638      0.21760620336274
  O   -2.16496532553201     -0.81331718423571     -0.85111137034499
  O   -2.10572782632991     -0.70803673912391      1.34487971177445
  N   -0.76650990765831      1.60243449266820     -0.75247399335517
  O   -1.91678281841441      2.01901981052777     -0.74341578792716
  O   0.19234028612754      2.06994703081508     -1.35214013648773
