15
Coordinates from ORCA-job run
  C   0.74572130250604     -0.38356167547028     -0.22718616330766
  C   -0.48511305895683      0.43346040404001      0.19854761576890
  Br  0.70681578171150     -0.88924246081372     -2.10864086037711
  H   -0.33154501313657      0.82331588797267      1.20825797089615
  N   0.71277607000851     -1.60390180446722      0.54666549769601
  H   0.82789344531215     -1.40416474784949      1.53662164965012
  H   1.45613923378980     -2.22502364567696      0.24906383788803
  C   1.95349031644474      0.42670179131627     -0.01181115047420
  N   2.94465058208634      0.99436498113244      0.27074336782101
  N   -1.69741717248360     -0.44198793279702      0.26725266110219
  O   -2.19912132892611     -0.77594763367242     -0.79616705338352
  O   -2.05434329481435     -0.75375716076521      1.39831256295354
  N   -0.78929864057245      1.63134389108080     -0.66119632143008
  O   0.14723843429762      2.11865071591084     -1.28007806623517
  O   -1.93688665726678      2.04974939005928     -0.59238554856822
