15
Coordinates from ORCA-job run
  C   0.81756267102083     -0.37575960216361     -0.28315224622732
  C   -0.41403966214004      0.39732937993070      0.26041932215859
  Br  0.64459295786319     -0.63824336060225     -2.21833424805685
  H   -0.18700698354935      0.79193715677137      1.25241721524451
  N   1.04825366427206     -1.64429157782956      0.33869248584125
  H   0.25769327702561     -2.26563079840954      0.23281888807694
  H   1.33696706353257     -1.55275025464456      1.30496859500088
  C   1.99812397187599      0.46381665259565     -0.05854122582923
  N   2.95865064906630      1.09568166536068      0.18610495906211
  N   -1.64835589966890     -0.43627283087687      0.41958047354660
  O   -1.77033134481457     -1.45158510367583     -0.25692458234964
  O   -2.45995932571579      0.01698309420077      1.22023304061294
  N   -0.78754824197239      1.58292466489587     -0.59369048749578
  O   -1.81190384022868      1.50970827235969     -1.25640189452463
  O   0.01630104343319      2.50515264208750     -0.54719029506035
