18

C	0.0	0.0	0.0
C	-0.580316	0.1994	-1.413496
Cl	1.793627	0.0	0.0
H	-1.652526	0.377203	-1.243782
C	-0.475302	1.050008	0.99941
H	-1.568601	1.034288	1.007724
H	-0.08416	0.806271	1.989481
H	-0.116685	2.035051	0.701663
C	-0.380024	-1.337988	0.471117
N	-0.580722	-2.427915	0.861439
C	-0.352249	-0.958421	-2.358056
H	0.705812	-1.210226	-2.44171
H	-0.727663	-0.702286	-3.350114
H	-0.914401	-1.819503	-1.993523
N	-0.022061	1.464581	-1.992276
O	0.890159	1.37742	-2.816263
O	-0.516728	2.524763	-1.605661
Cl	-3.648958	0.0	0.0
