18

C	0.0	0.0	0.0
C	-0.438928	0.187212	-1.461115
Cl	1.796429	0.0	0.0
H	-0.099795	1.175981	-1.775706
C	-0.544964	1.129127	0.862872
H	-0.163248	1.026631	1.879035
H	-0.22483	2.091959	0.458279
H	-1.63644	1.075683	0.88891
C	-0.416868	-1.285196	0.565741
N	-0.710428	-2.276512	1.124199
C	-1.918824	-0.024134	-1.702251
H	-2.24199	-1.00529	-1.356792
H	-2.548076	0.698142	-1.183436
H	-2.112178	0.059798	-2.77552
N	0.306313	-0.752382	-2.362015
O	0.869709	-0.258929	-3.339619
O	0.26282	-1.949648	-2.093796
Cl	-4.713916	0.0	0.0
