18

C	0.0	0.0	0.0
C	-0.437308	0.116673	-1.471777
Cl	1.796464	0.0	0.0
H	-0.116292	1.099304	-1.824278
C	-0.557487	1.161261	0.80999
H	-0.258746	2.108006	0.354541
H	-0.173514	1.117341	1.830017
H	-1.648997	1.086001	0.836664
C	-0.406206	-1.266708	0.616657
N	-0.70758	-2.247375	1.188928
C	-1.908926	-0.135652	-1.7186
H	-2.200615	-1.130018	-1.381752
H	-2.104925	-0.049482	-2.790913
H	-2.56385	0.556627	-1.191107
N	0.337458	-0.840797	-2.330875
O	0.916427	-0.368761	-3.309091
O	0.302959	-2.02957	-2.028343
Cl	-4.709315	0.0	0.0
