17

C	-0.496525	0.012881	-1.444034
C	0.0	0.0	0.0
F	-0.206655	-1.200438	-2.059556
H	1.09526	0.0	0.0
C	-1.973639	0.14487	-1.446252
N	-3.141803	0.262399	-1.391606
C	0.173829	1.110969	-2.245806
H	1.252842	0.976497	-2.129393
H	-0.106405	2.086625	-1.854418
H	-0.108148	1.027411	-3.298398
N	-0.438184	-1.207729	0.677284
H	0.296169	-1.488047	1.317334
H	-1.290705	-1.047257	1.202909
N	-0.376451	1.280994	0.60098
H	-1.241598	1.196429	1.122376
H	0.364559	1.547224	1.240789
H	2.886733	0.0	0.0
