17

C	-0.498573	-0.038539	-1.429604
C	0.0	0.0	0.0
F	-1.910616	-0.192314	-1.422016
H	1.101329	0.0	0.0
C	-0.24937	1.243127	-2.116409
N	-0.100586	2.219944	-2.750029
C	0.110316	-1.18263	-2.206862
H	1.199163	-1.081366	-2.169603
H	-0.173353	-2.10968	-1.710501
H	-0.241485	-1.176819	-3.241392
N	-0.369658	-1.256855	0.650045
H	0.337874	-1.452014	1.350551
H	-1.270911	-1.172194	1.105905
N	-0.4256	1.235587	0.640346
H	-1.345389	1.135188	1.054242
H	0.243351	1.457759	1.36907
H	2.850724	0.0	0.0
