17

C	-0.48689	-0.054815	-1.442924
C	0.0	0.0	0.0
F	-0.241963	-1.337925	-1.963812
H	1.107831	0.0	0.0
C	-1.952578	0.135882	-1.513392
N	-3.112853	0.300475	-1.590136
C	0.253827	0.948438	-2.298498
H	-0.031098	0.830623	-3.347146
H	0.018581	1.95537	-1.956367
H	1.323673	0.768082	-2.163065
N	-0.547073	-1.139469	0.749977
H	-0.439285	-1.964845	0.165456
H	0.097259	-1.283323	1.525984
N	-0.427164	1.268263	0.566823
H	0.317131	1.610796	1.162858
H	-1.254341	1.102965	1.129237
H	2.935954	0.0	0.0
