17

C	-0.577379	-0.008294	-1.417413
C	0.0	0.0	0.0
F	-0.003176	1.02833	-2.142557
H	1.101302	0.0	0.0
C	-0.231693	-1.266098	-2.115433
N	0.006906	-2.269917	-2.677246
C	-2.080718	0.192538	-1.437297
H	-2.282409	1.152311	-0.961096
H	-2.448197	0.208718	-2.465534
H	-2.572316	-0.604165	-0.877836
N	-0.501104	-1.189385	0.721933
H	0.047633	-1.20306	1.579507
H	-0.178567	-2.014852	0.21898
N	-0.424771	1.212368	0.676546
H	-1.139032	0.982763	1.357645
H	0.385839	1.596279	1.149554
H	2.896089	0.0	0.0
