17

C	-0.492438	-0.040169	-1.432271
C	0.0	0.0	0.0
F	-1.900799	-0.213251	-1.43495
H	1.095688	0.0	0.0
C	-0.250696	1.249547	-2.10991
N	-0.076278	2.2257	-2.739083
C	0.140882	-1.170332	-2.208584
H	-0.128246	-2.10379	-1.715021
H	-0.205581	-1.170349	-3.244616
H	1.227016	-1.049199	-2.164502
N	-0.36637	-1.259476	0.646378
H	-1.269189	-1.17882	1.099017
H	0.338796	-1.452482	1.350651
N	-0.431275	1.232299	0.642348
H	0.247547	1.466831	1.357525
H	-1.338573	1.120717	1.078315
H	2.854321	0.0	0.0
