17

C	-0.459654	0.063856	-1.454869
C	0.0	0.0	0.0
F	-0.204028	-1.166823	-2.079147
H	1.095936	0.0	0.0
C	-1.928668	0.248007	-1.527665
N	-3.096506	0.361689	-1.587279
C	0.284411	1.140888	-2.214023
H	0.018662	1.108791	-3.273579
H	0.035559	2.114449	-1.794836
H	1.353055	0.95469	-2.076242
N	-0.469448	-1.199189	0.686673
H	-1.109801	-1.726345	0.103871
H	0.343593	-1.787176	0.844197
N	-0.442744	1.237666	0.641766
H	0.351113	1.60402	1.155757
H	-1.158772	0.990055	1.314104
H	2.907483	0.0	0.0
