16

C	-0.47998	0.073434	-1.435781
C	0.0	0.0	0.0
F	-1.831305	0.357776	-1.474868
H	1.087627	0.0	0.0
H	-0.405439	-0.874359	0.500241
C	0.283163	0.994657	-2.338882
H	0.122677	2.012627	-1.990778
H	-0.066194	0.885489	-3.365555
H	1.346959	0.762842	-2.272654
N	-0.401801	-1.371894	-1.963925
O	0.32701	-1.607559	-2.921955
O	-1.118247	-2.187406	-1.389941
N	-0.463463	1.166541	0.793034
O	-0.377067	2.289097	0.300155
O	-0.880988	0.930347	1.925541
Cl	3.277185	0.0	0.0
