16

C	-0.524719	0.06277	-1.416325
C	0.0	0.0	0.0
F	-1.861243	0.390334	-1.400115
H	1.090707	0.0	0.0
H	-0.358405	0.894929	0.508271
C	0.25091	1.073534	-2.221967
H	-0.1118	1.085396	-3.251844
H	0.095968	2.058923	-1.777876
H	1.313135	0.830982	-2.188211
N	-0.445333	-1.289529	-2.124053
O	-1.488704	-1.918857	-2.249687
O	0.660692	-1.6165	-2.53386
N	-0.530447	-1.146935	0.775097
O	-0.252216	-2.274903	0.375737
O	-1.197451	-0.893411	1.779191
Cl	3.297729	0.0	0.0
