16

C	-0.425905	-0.007089	-1.459037
C	0.0	0.0	0.0
F	-0.115199	1.232599	-1.940517
H	1.08981	0.0	0.0
H	-0.408019	0.881251	0.490954
C	0.207664	-1.05675	-2.326842
H	-0.084533	-0.884115	-3.365118
H	-0.092449	-2.051307	-2.010585
H	1.28877	-0.956154	-2.215683
N	-1.95032	-0.108634	-1.53312
O	-2.418324	-1.229567	-1.345777
O	-2.592531	0.914135	-1.739636
N	-0.483671	-1.183668	0.747318
O	-0.052411	-2.285909	0.420572
O	-1.27767	-0.979462	1.667864
Cl	3.290904	0.0	0.0
