16

C	-0.548812	0.093339	-1.40329
C	0.0	0.0	0.0
F	-1.8969	0.367581	-1.351813
H	1.087517	0.0	0.0
H	-0.349245	0.883685	0.533895
C	0.173004	1.161735	-2.184294
H	1.243685	0.956387	-2.181613
H	-0.210329	1.196267	-3.206247
H	-0.008992	2.125666	-1.702594
N	-0.426846	-1.223658	-2.170393
O	0.690745	-1.502954	-2.580099
O	-1.450114	-1.87387	-2.341281
N	-0.514804	-1.159515	0.766393
O	-1.087356	-0.928538	1.831324
O	-0.310506	-2.279087	0.299844
Cl	3.287342	0.0	0.0
