13

C	0.0	0.0	0.0
C	-0.523609	0.178547	-1.417894
Cl	1.833269	0.0	0.0
H	-1.633633	0.22928	-1.24609
H	-0.287422	-0.730258	-1.975675
C	-0.310075	1.203818	0.813137
N	-0.490972	2.145763	1.493291
N	-0.565821	-1.203515	0.502629
H	-0.364367	-1.273893	1.496864
H	-1.607253	-0.997754	0.410221
C	-0.027839	1.35425	-2.110238
N	0.343473	2.298327	-2.70342
H	-2.90248	0.0	0.0
