13

C	0.0	0.0	0.0
C	-0.507582	0.088683	-1.447962
Cl	1.792468	0.0	0.0
H	-0.25787	-0.847234	-1.957564
H	-1.616487	0.13929	-1.28991
C	-0.366923	1.23871	0.720693
N	-0.532144	2.239505	1.312923
N	-0.553262	-1.116258	0.701476
H	-1.588656	-0.90545	0.642975
H	-0.383243	-1.947924	0.139991
C	-0.010484	1.218045	-2.216043
N	0.369161	2.124601	-2.860254
H	-2.900483	0.0	0.0
