13

C	0.0	0.0	0.0
C	-0.509758	0.023619	-1.451722
Cl	1.793714	0.0	0.0
H	-1.620048	0.079537	-1.286814
H	-0.144533	0.897097	-1.99864
C	-0.370994	1.287952	0.62566
N	-0.560513	2.32394	1.145608
N	-0.535193	-1.06453	0.788614
H	-0.342695	-1.939529	0.306471
H	-1.569757	-0.878923	0.71875
C	-0.160166	-1.197773	-2.155114
N	0.119569	-2.192845	-2.71488
H	-2.899244	0.0	0.0
