13

C	0.0	0.0	0.0
C	-0.532212	0.098265	-1.42857
Cl	1.78772	0.0	0.0
H	-0.194914	1.022499	-1.904498
H	-1.642268	0.127065	-1.262014
C	-0.341024	1.270614	0.698168
N	-0.518821	2.287536	1.25983
N	-0.558756	-1.166349	0.593937
H	-0.3326	-1.182638	1.584686
H	-1.597943	-0.979668	0.502168
C	-0.154994	-1.046852	-2.239715
N	0.116396	-1.938738	-2.954345
H	-2.908947	0.0	0.0
