13

C	0.0	0.0	0.0
C	-0.532782	0.149847	-1.423377
Cl	1.787526	0.0	0.0
H	-0.194537	1.089888	-1.867227
H	-1.643004	0.174587	-1.254204
C	-0.340379	1.245734	0.74209
N	-0.518058	2.244603	1.335622
N	-0.559727	-1.185246	0.552797
H	-0.333322	-1.237289	1.541591
H	-1.598794	-0.993809	0.468119
C	-0.159724	-0.966621	-2.276393
N	0.106226	-1.834376	-3.023104
H	-2.909201	0.0	0.0
