13

C	0.0	0.0	0.0
C	-0.531972	0.133618	-1.425522
Cl	1.787533	0.0	0.0
H	-1.642265	0.157966	-1.258577
H	-0.193661	1.068632	-1.879704
C	-0.341103	1.252439	0.730173
N	-0.520867	2.255153	1.316861
N	-0.558848	-1.180727	0.565285
H	-0.332603	-1.221549	1.554954
H	-1.597757	-0.99102	0.47881
C	-0.154736	-0.992413	-2.263465
N	0.116138	-1.86715	-2.999094
H	-2.909511	0.0	0.0
