16

C	0.0	0.0	0.0
C	-0.346899	0.301545	-1.489173
F	1.364019	0.0	0.0
H	0.372985	-0.313967	-2.036674
N	-0.601529	0.814186	0.936935
H	-1.627433	0.731223	0.763719
H	-0.40356	0.470406	1.871383
N	-0.262833	-1.52966	0.261689
O	-0.398146	-1.860528	1.435574
O	-0.21803	-2.301482	-0.692699
C	0.071039	1.698913	-1.729104
N	0.449496	2.7802	-1.986453
N	-1.662058	0.055192	-2.024763
H	-2.381217	0.189156	-1.26974
H	-1.71064	-0.935578	-2.235497
H	-3.198719	0.0	0.0
