16

C	0.0	0.0	0.0
C	-0.387184	0.024916	-1.549363
F	1.364272	0.0	0.0
H	0.226615	-0.769529	-1.963581
N	-0.264465	1.183465	0.792026
H	0.021402	0.918235	1.734131
H	-1.279244	1.271529	0.82241
N	-0.634287	-1.206277	0.556745
O	-0.792439	-1.277949	1.811542
O	-0.422103	-2.237181	-0.143862
C	0.011671	1.305684	-2.130509
N	0.267166	2.336482	-2.628058
N	-1.748886	-0.267064	-2.047568
H	-2.019194	-1.130657	-1.596358
H	-2.370916	0.425281	-1.620619
H	-2.045847	0.0	0.0
