16

C	0.0	0.0	0.0
C	-0.297619	0.066245	-1.530038
F	1.361191	0.0	0.0
H	0.163127	-0.833184	-1.862635
N	-0.38411	1.17913	0.743652
H	-1.402254	1.047098	0.852837
H	0.02917	1.099436	1.67219
N	-0.657467	-1.223924	0.517515
O	-0.516813	-1.369558	1.773118
O	-0.726792	-2.218972	-0.285114
C	0.400983	1.193721	-2.165177
N	0.866028	2.100158	-2.762057
N	-1.675374	-0.018949	-1.946915
H	-2.162862	0.833744	-2.184749
H	-1.886628	-0.811875	-2.52058
H	-2.188867	0.0	0.0
