16

C	0.0	0.0	0.0
C	-0.554912	-0.303419	-1.397703
F	1.340989	0.0	0.0
H	-1.61646	-0.541815	-1.166458
N	-0.484396	1.261854	0.41074
H	-0.25419	1.396283	1.385511
H	-1.519295	1.160584	0.353013
N	-0.528492	-1.11	0.863014
O	-0.161425	-2.278059	0.603494
O	-1.601568	-0.785915	1.462912
C	0.080364	-1.460698	-2.028396
N	0.486103	-2.386323	-2.624585
N	-0.455487	0.841318	-2.301696
H	-1.344235	0.921858	-2.778399
H	-0.360082	1.676999	-1.728462
H	-2.906555	0.0	0.0
