16

C	0.0	0.0	0.0
C	-0.20591	-0.049761	-1.554058
F	1.383548	0.0	0.0
H	0.47518	-0.855742	-1.870801
N	-0.337932	1.253196	0.607
H	0.502119	1.620495	1.07466
H	-1.151058	1.157375	1.230323
N	-0.488069	-1.206281	0.729642
O	-0.583204	-1.118543	1.959634
O	-0.537054	-2.260673	0.085521
C	0.404292	1.206036	-2.045147
N	0.851478	2.169219	-2.550122
N	-1.489813	-0.319445	-2.138445
H	-1.517491	0.035699	-3.088881
H	-2.205432	0.136251	-1.486574
H	-2.413332	0.0	0.0
