16

C	0.0	0.0	0.0
C	-0.165446	-0.017212	-1.567386
F	1.383608	0.0	0.0
H	0.452765	-0.862231	-1.879164
N	-0.339433	1.225581	0.665435
H	0.53575	1.60253	1.026564
H	-0.96529	0.995242	1.419279
N	-0.583764	-1.187344	0.639268
O	-0.533341	-2.248571	-0.029707
O	-0.645606	-1.164748	1.896446
C	0.495207	1.225867	-2.029148
N	0.979167	2.215693	-2.447887
N	-1.466204	-0.186359	-2.184182
H	-1.396335	0.129493	-3.161898
H	-2.13894	0.392103	-1.670194
H	-2.198304	0.0	0.0
