16

C	0.0	0.0	0.0
C	-0.54152	0.041734	-1.40339
F	1.387665	0.0	0.0
H	-1.674352	-0.054058	-1.173116
N	-0.361863	1.124287	0.740006
H	0.141905	1.127813	1.619772
H	-0.145723	1.917201	0.148441
N	-0.3982	-1.231174	0.768659
O	-0.189909	-1.205697	1.981349
O	-0.886624	-2.154652	0.133682
C	0.109658	-0.988214	-2.215469
N	0.757442	-1.68981	-2.902553
N	-0.222791	1.368853	-1.941832
H	0.682808	1.344022	-2.405537
H	-0.935551	1.636167	-2.607607
H	-2.974523	0.0	0.0
