15

C	-0.546674	0.010242	-1.420521
C	0.0	0.0	0.0
F	-0.221749	-1.150537	-2.110974
H	1.095056	0.0	0.0
H	-1.64019	0.06536	-1.370021
C	-0.076895	1.169743	-2.197562
N	0.278056	2.096115	-2.823542
C	-0.485732	-1.235171	0.736632
H	-1.579927	-1.235575	0.83161
H	-0.043713	-1.256595	1.735993
H	-0.178619	-2.141941	0.213549
N	-0.483494	1.249653	0.608353
H	0.318865	1.808206	0.867628
H	-1.002439	1.050187	1.451991
Br	3.570964	0.0	0.0
