15

C	-0.46153	0.01339	-1.444047
C	0.0	0.0	0.0
F	-1.85817	0.140765	-1.495482
H	1.102061	0.0	0.0
H	-0.037395	0.887039	-1.943182
C	-0.121838	-1.210671	-2.187671
N	0.088762	-2.197419	-2.789001
C	-0.504485	-1.221155	0.759764
H	-0.141528	-1.175399	1.789216
H	-0.134053	-2.14981	0.317635
H	-1.599798	-1.250059	0.77154
N	-0.411915	1.283556	0.575578
H	0.27898	1.551823	1.265389
H	-1.308127	1.188668	1.038642
Br	3.566087	0.0	0.0
