15

C	-0.540365	0.047337	-1.420428
C	0.0	0.0	0.0
F	-0.100853	-1.03159	-2.171043
H	1.10078	0.0	0.0
H	-1.634225	-0.000854	-1.3761
C	-0.175867	1.291444	-2.120742
N	0.102158	2.271928	-2.702219
C	-0.492699	-1.258306	0.689572
H	-0.035889	-1.33554	1.679798
H	-1.583284	-1.239464	0.801364
H	-0.200849	-2.142931	0.122527
N	-0.545323	1.197796	0.663772
H	0.109056	1.958508	0.504572
H	-0.530667	1.032762	1.664302
Br	3.617325	0.0	0.0
