15

C	-0.387541	0.032309	-1.476345
C	0.0	0.0	0.0
F	-1.758946	0.313474	-1.614053
H	1.09653	0.0	0.0
H	0.153459	0.84275	-1.972456
C	-0.137434	-1.226181	-2.192048
N	0.025328	-2.229538	-2.77845
C	-0.562401	-1.210884	0.723216
H	-0.252238	-1.158601	1.7669
H	-1.657091	-1.216142	0.685607
H	-0.188011	-2.143275	0.294349
N	-0.416737	1.234595	0.665406
H	-1.303203	1.554542	0.294828
H	0.283467	1.949565	0.507897
Br	3.564255	0.0	0.0
