16

C	-0.453473	0.000237	-1.440305
C	0.0	0.0	0.0
F	-1.841117	-0.353205	-1.490527
H	1.091995	0.0	0.0
H	0.06463	-0.781282	-1.992367
N	-0.24288	1.25558	-2.06356
H	-0.820466	1.962452	-1.628155
H	-0.483931	1.195992	-3.043971
N	-0.377309	-1.291012	0.595375
O	-0.175606	-2.304844	-0.082715
O	-0.78294	-1.321929	1.765099
C	-0.491511	1.166064	0.823233
H	-0.031138	2.077553	0.43474
H	-0.15918	1.046851	1.852954
H	-1.581931	1.256765	0.815299
H	2.678494	0.0	0.0
