16

C	-0.359163	-0.138696	-1.494051
C	0.0	0.0	0.0
F	-0.601647	1.152584	-1.984605
H	1.092025	0.0	0.0
H	-1.292452	-0.695557	-1.628965
N	0.671473	-0.736182	-2.283041
H	1.569788	-0.507265	-1.849617
H	0.566353	-1.739153	-2.203147
N	-0.39594	-1.228533	0.686977
O	-0.364399	-2.289075	0.040853
O	-0.664322	-1.185036	1.895248
C	-0.508158	1.229827	0.710257
H	-0.119558	2.105151	0.191123
H	-1.601357	1.281492	0.724362
H	-0.138812	1.238946	1.735681
H	2.684433	0.0	0.0
