16

C	-0.460057	0.04354	-1.438833
C	0.0	0.0	0.0
F	0.003897	-1.09224	-2.12486
H	1.090117	0.0	0.0
H	0.064405	0.886551	-1.900194
N	-1.868587	0.213279	-1.609569
H	-2.31969	-0.610151	-1.229177
H	-2.077943	0.264777	-2.599438
N	-0.490594	-1.169242	0.736
O	-1.259083	-1.975151	0.181965
O	-0.089663	-1.306835	1.895025
C	-0.376739	1.261992	0.758364
H	0.053328	2.117592	0.230702
H	0.074116	1.224972	1.749956
H	-1.458661	1.396355	0.830992
H	2.695927	0.0	0.0
