16

C	0.0	0.0	0.0
C	-0.359469	-0.211029	-1.513948
F	1.347795	0.0	0.0
H	0.600033	-0.450572	-1.984727
C	-0.507987	1.198324	0.665844
N	-0.625828	2.216886	1.24275
N	-0.331326	-1.223256	0.858837
O	-0.72788	-1.035848	2.001093
O	-0.002468	-2.299683	0.37468
N	-0.606893	1.219001	-2.092398
O	0.261682	2.056784	-1.85057
O	-1.570385	1.38791	-2.828161
N	-1.333231	-1.149992	-1.846118
H	-1.484808	-1.155466	-2.844779
H	-2.159028	-0.860336	-1.287796
F	-2.394944	0.0	0.0
