16

C	0.0	0.0	0.0
C	-0.230495	-0.231971	-1.542888
F	1.361232	0.0	0.0
H	-0.009983	0.744855	-1.976216
C	-0.484314	1.280965	0.496688
N	-0.573294	2.407951	0.825422
N	-0.374304	-1.127357	0.916309
O	-0.492174	-0.858566	2.104602
O	-0.366377	-2.254869	0.433021
N	-1.600579	-0.561333	-2.067107
O	-1.947472	-1.732296	-2.020082
O	-2.172384	0.332052	-2.680524
N	0.63043	-1.221671	-2.147817
H	0.389163	-2.117112	-1.738338
H	1.587208	-1.008152	-1.90879
F	-2.19722	0.0	0.0
