15
Coordinates from ORCA-job run
  C   0.60988844439141     -0.70352645189879     -0.12005512299226
  C   -0.61272143445287      0.08311411695680      0.29759326778784
  F   0.73563533716165     -1.75113349757457      0.79041371933503
  H   -0.58401174168767      0.23871919429930      1.38463715439834
  H   0.44041290565421     -1.14151554017154     -1.10401248240909
  C   1.87510734425588      0.12255610728251     -0.08437240027745
  H   2.73207102394098     -0.53650195419175     -0.22892737231525
  H   1.99092896364400      0.62197491979166      0.88103048647728
  H   1.88022471292624      0.86322270741966     -0.88556660139300
  N   -1.87243695448699     -0.72727907885111      0.08702517743949
  O   -2.87198129468347     -0.26607161539860      0.63538769956864
  O   -1.83555353754798     -1.73031244152800     -0.61436024165534
  N   -0.79154005035560      1.27508405544874     -0.50170605048301
  H   -1.65690487809142      1.72518276601223     -0.22422257675383
  H   -0.03911884066837      1.92548671240347     -0.31286465672738
