15
Coordinates from ORCA-job run
  C   0.87868655828483      0.33471506793745      0.14252405754352
  C   -0.59361110730331      0.22164334425814      0.52557998637531
  F   0.96483255144980      1.21758371221974     -0.93514023539075
  H   -0.69198084167121     -0.38958421145898      1.42457260818649
  H   1.37397834086720      0.82160259531513      0.98758459104872
  C   1.56228752338666     -0.95657229919249     -0.23346980313448
  H   1.14097785008702     -1.36222994277104     -1.15328499505227
  H   2.62420309231251     -0.76639872378593     -0.39446076225284
  H   1.45107799100252     -1.70217236945058      0.55558927014923
  N   -1.29680089299058     -0.61028444505149     -0.55280176167985
  O   -1.77250291722768     -0.00649121336887     -1.50981392745212
  O   -1.30411763877463     -1.82908663068679     -0.38970232661874
  N   -1.15244066075148      1.50922444580171      0.70668935208727
  H   -1.05566027374412      2.05312670928786     -0.14034569031769
  H   -2.12792957492751      1.46492396094616      0.96747963650821
