15
Coordinates from ORCA-job run
  C   0.79437579354118      0.30814382211920      0.24368609070151
  C   -0.72585148979747      0.18317698109471      0.38862062094497
  F   1.05884053666564      1.26710891880064     -0.73319988995961
  H   -0.95415311096206     -0.41230726387139      1.27348008067204
  H   1.16195274282243      0.72163228167511      1.18982883891401
  C   1.51927776833032     -0.96587969539181     -0.11535769389672
  H   1.22881336587524     -1.29612991109725     -1.11349898836998
  H   2.59540509925881     -0.78816332524637     -0.11095112243498
  H   1.28738946905146     -1.76186988455283      0.59475670334824
  N   -1.22891924371026     -0.64376922845084     -0.76860473854262
  O   -1.39139788146649     -1.84603376142561     -0.56482965811785
  O   -1.37699451794341     -0.06364897217256     -1.83807102499887
  N   -1.44681575588328      1.41654357341085      0.41231935740067
  H   -1.50114575149395      1.78968056960144      1.34874795792033
  H   -1.02077702428817      2.09051589550672     -0.20892653358115
