15
Coordinates from ORCA-job run
  C   0.88777979619992      0.30156640462020      0.15553964300479
  C   -0.59522352180273      0.25343635613661      0.50946321113827
  F   1.03179257862392      1.16298265152769     -0.93325845588074
  H   -0.73565506075635     -0.33944317975905      1.41513551291936
  H   1.38528691106845      0.78140863724429      1.00334088102161
  C   1.52639367592820     -1.02187674306909     -0.18631576889568
  H   1.10702937686720     -1.42648520060882     -1.10748911047772
  H   2.59782857026071     -0.87577969460426     -0.32929208703316
  H   1.37095319314578     -1.74882627536105      0.61262735834741
  N   -1.30884711580354     -0.56701843518900     -0.57113144944360
  O   -1.36945621817935     -1.78168535212420     -0.38888369208245
  O   -1.73775365133302      0.03986693150305     -1.54813806691761
  N   -1.10530403397447      1.56468360551912      0.65981406760034
  H   -2.08697269053821      1.56454461995515      0.90021571721173
  H   -0.96785180970653      2.09262567420936     -0.19162776051255
