15
Coordinates from ORCA-job run
  C   0.62487151587538     -0.31567364226445      0.70224244892497
  C   -0.80507970559582      0.20560960173425      0.48560014562406
  F   1.19620071918946      0.57481043777369      1.61506244034190
  H   -1.33375429244500      0.13847816624644      1.43794255591640
  H   0.57531940317123     -1.29185698489150      1.19244834879452
  C   1.48351908169690     -0.36455179665440     -0.53633164188434
  H   1.09597368857757     -1.08423351413502     -1.25922840959813
  H   2.49520410641276     -0.66463898127998     -0.25992483686753
  H   1.53995594961637      0.61690387745551     -1.00931295274637
  N   -1.47232166011911     -0.78570544641157     -0.42226763910661
  O   -1.81645832660534     -1.84719092320034      0.09283113628573
  O   -1.55315226359386     -0.50082063985515     -1.61359374800234
  N   -0.95947267294281      1.52276412881198     -0.05074653726597
  H   -0.54614045519025      2.19070040865532      0.58698299500459
  H   -0.52466508804746      1.60640530801522     -0.95970430542088
