15
Coordinates from ORCA-job run
  C   0.81182840856530      0.33642484872753      0.10777556998136
  C   -0.67364520084349      0.21105253533325      0.46159642307774
  F   0.92648908264701      1.20087221516384     -0.97990625131151
  H   -0.77178461057190     -0.30382919012488      1.41813300397321
  H   1.28907580410617      0.84150547263703      0.95541151694254
  C   1.51231891081492     -0.95878225935544     -0.22287847643983
  H   2.57592612140761     -0.77068863487881     -0.37471625891141
  H   1.10355907628620     -1.38497752073819     -1.13993108485540
  H   1.39101792407918     -1.68625272679866      0.58189062236109
  N   -1.30513130058528     -0.72234824146533     -0.54144266250096
  O   -1.60613473492993     -0.24247554501886     -1.62828598774218
  O   -1.41020130254507     -1.90327850735375     -0.21326473938793
  N   -1.41099249158113      1.43493700742340      0.46990185063645
  H   -1.08480131442384      2.05238855475142     -0.26092932183941
  H   -1.34852437242575      1.89245199169743      1.36764579601624
