15
Coordinates from ORCA-job run
  C   0.69191642285726     -0.39498883970389      0.69510742933664
  C   -0.68171980437188      0.25940398687970      0.53001205491576
  F   1.32148386816294      0.25275939413900      1.74969900945327
  H   -1.17227098926478      0.27850708143677      1.50430489059077
  H   0.54290411014922     -1.43315359216488      1.00227962267498
  C   1.56427071788044     -0.29531150474581     -0.53274980088953
  H   1.07661272440709     -0.73846435948218     -1.40422148087750
  H   2.50340996487821     -0.82169796450662     -0.35878134822391
  H   1.79348450740962      0.75140895330696     -0.73619561889747
  N   -1.51603471448946     -0.74139811768260     -0.29076193808877
  O   -1.87410689823478     -1.76096291084435      0.29173706903430
  O   -1.73246957323002     -0.47027939184751     -1.46978298458258
  N   -0.62534647181120      1.55374130064149     -0.03259554557534
  H   -0.38638679955196      1.52073116599041     -1.01452704788608
  H   -1.50574706479073      2.03970479858349      0.06847568901545
