15
Coordinates from ORCA-job run
  C   0.69286261038211     -0.39722216445298      0.69226069629303
  C   -0.68308200549681      0.25349918445808      0.53128846425608
  F   1.31980352840015      0.24513449005289      1.75164985865961
  H   -1.17363521145485      0.26518678279753      1.50568323038207
  H   0.54718073765274     -1.43811043680474      0.99190552508949
  C   1.56549994990398     -0.28582220719072     -0.53432807863529
  H   1.79190645096956      0.76309371696639     -0.72959708196060
  H   2.50624349932227     -0.81042100648475     -0.36352974911976
  H   1.07993566015393     -0.72351238428215     -1.40968576439246
  N   -1.51410278682548     -0.74539507171776     -0.29485112416542
  O   -1.87292151955858     -1.76712424891357      0.28335670197805
  O   -1.72649629680085     -0.47099492920132     -1.47388109266627
  N   -0.63127899574543      1.55113691934710     -0.02395048693989
  H   -1.51326390008411      2.03369655002700      0.07932589030726
  H   -0.39065172081862      1.52485480539901     -1.00564698908590
