15
Coordinates from ORCA-job run
  C   0.63414791700012     -0.31610640398315      0.69397615561915
  C   -0.80197082900788      0.19418333970318      0.49345684779460
  F   1.20454400154977      0.57013357120346      1.61130440607635
  H   -1.32140343707310      0.11585175956397      1.45002529785883
  H   0.59684828802011     -1.29779717943115      1.17415280079176
  C   1.48319734026748     -0.34488282702067     -0.55188126246036
  H   1.52827348567752      0.64188879277404     -1.01487595350981
  H   2.49946318229178     -0.64009404334358     -0.28727045046927
  H   1.09491190479495     -1.06013925242996     -1.27882738039241
  N   -1.46866362905513     -0.79709241018226     -0.41545537641133
  O   -1.79774943695599     -1.86560066770780      0.09501993875535
  O   -1.56507098677274     -0.50418895197218     -1.60360435184435
  N   -0.97385996604563      1.51312891540303     -0.03217011771704
  H   -0.54325180351865      1.61043418335957     -0.94167834672089
  H   -0.56941603117261      2.18228117406350      0.60982779262944
