15
Coordinates from ORCA-job run
  C   0.63173866451008     -0.31693563501211      0.69558507129932
  C   -0.80206179930871      0.19910167399764      0.49294588485585
  F   1.20616561430413      0.57104504139354      1.60888022429827
  H   -1.32410081794943      0.12398194864911      1.44833813390910
  H   0.59061394922378     -1.29613351057027      1.18050059189649
  C   1.48069824649161     -0.35490543561239     -0.55004020437207
  H   1.52954605064858      0.62970332040498     -1.01729043983886
  H   2.49577368378477     -0.65258905055973     -0.28366324899975
  H   1.09016250499232     -1.07165857145960     -1.27422677683392
  N   -1.47174528129867     -0.79023204360096     -0.41568258060400
  O   -1.80507387101571     -1.85689376974593      0.09586016467924
  O   -1.56399175467620     -0.49857770250022     -1.60448588952778
  N   -0.96658358588446      1.51831828602077     -0.03472314868670
  H   -0.53873404040134      1.61002776530081     -0.94612207262062
  H   -0.55440756342076      2.18574768329435      0.60412429054541
