15
Coordinates from ORCA-job run
  C   0.63256440125820     -0.31624760790791      0.69510163247412
  C   -0.80250227893872      0.19679963904456      0.49321967584549
  F   1.20491634544742      0.57225048010999      1.60933681878441
  H   -1.32362707752005      0.11978480945323      1.44895735990506
  H   0.59373311681330     -1.29591972937521      1.17927532009016
  C   1.48167046606418     -0.35083700328638     -0.55046923616048
  H   1.52842710225427      0.63454065669338     -1.01629981852181
  H   1.09255028268715     -1.06724811304388     -1.27576792963545
  H   2.49731894504356     -0.64690096507181     -0.28449123258528
  N   -1.47052307111531     -0.79277101355102     -0.41585616659339
  O   -1.80332846414823     -1.85987851283470      0.09505606972700
  O   -1.56254054213242     -0.50078325460065     -1.60463334763426
  N   -0.96947699370464      1.51641835738877     -0.03329349120987
  H   -0.54470800403033      1.60781747709182     -0.94623786204868
  H   -0.55347422797837      2.18297477988982      0.60410220756298
