16

C	0.0	0.0	0.0
C	-0.583151	-0.107837	-1.424394
Br	1.955586	0.0	0.0
H	-1.687276	-0.178102	-1.270883
C	-0.385094	1.311114	0.526085
N	-0.608879	2.386385	0.945654
C	-0.476065	-1.111601	0.93207
H	-0.16597	-0.86826	1.949623
H	-1.567454	-1.153852	0.880638
H	-0.04222	-2.06642	0.641111
N	-0.125579	-1.373012	-2.096728
O	0.693762	-1.282173	-3.008416
O	-0.610221	-2.415468	-1.667117
C	-0.243615	1.035655	-2.257697
N	-0.019419	1.960477	-2.945261
Br	-3.699312	0.0	0.0
