16

C	0.0	0.0	0.0
C	-0.587115	-0.172061	-1.414241
Br	1.955953	0.0	0.0
H	-1.692348	-0.217959	-1.25674
C	-0.382073	1.334476	0.469633
N	-0.610656	2.425477	0.844083
C	-0.473412	-1.067418	0.984774
H	-1.566134	-1.092873	0.95609
H	-0.132167	-0.794769	1.98518
H	-0.062389	-2.039767	0.718888
N	-0.149616	-1.478085	-2.020792
O	0.698152	-1.451388	-2.910101
O	-0.681718	-2.485624	-1.564023
C	-0.230708	0.919731	-2.307499
N	0.017652	1.801052	-3.043597
Br	-3.70727	0.0	0.0
