19

C	-0.102891	-0.055303	-0.091683
C	-0.129382	0.01699	-1.626763
F	1.244627	-0.371543	0.24197
H	0.427164	0.929238	-1.890986
N	-0.430519	1.161712	0.576475
H	-0.181167	1.965593	0.01124
H	-1.454003	1.169125	0.754728
N	-0.90807	-1.153089	0.383562
H	-0.614314	-1.299478	1.345401
H	-1.869498	-0.778587	0.462926
C	-1.566651	0.138982	-2.12649
H	-2.159381	0.822905	-1.514711
H	-1.583489	0.46784	-3.171555
H	-2.060517	-0.834111	-2.066468
C	0.565812	-1.181837	-2.264189
H	1.630426	-1.197521	-2.025697
H	0.113736	-2.09709	-1.876369
H	0.450617	-1.162688	-3.353991
H	-3.158661	0.648879	0.808787
