13

C	-0.536332	0.123581	-1.428275
C	0.0	0.0	0.0
Br	-0.198877	-1.494812	-2.484689
H	1.094055	0.0	0.0
H	-1.622667	0.252822	-1.434847
C	0.071194	1.263142	-2.10849
N	0.534223	2.194925	-2.653506
C	-0.545305	-1.174328	0.660193
N	-1.002755	-2.084273	1.25056
N	-0.367428	1.246294	0.688893
H	0.487153	1.594687	1.108077
H	-1.054701	1.096089	1.415508
F	2.526913	0.0	0.0
