13

C	-0.531401	0.117066	-1.430704
C	0.0	0.0	0.0
Br	-0.204724	-1.511656	-2.473527
H	1.094093	0.0	0.0
H	-1.61669	0.253801	-1.440774
C	0.086938	1.244971	-2.118103
N	0.555539	2.158502	-2.688346
C	-0.54861	-1.167475	0.668239
N	-0.991641	-2.067932	1.283777
N	-0.362193	1.252157	0.679007
H	-1.06229	1.113859	1.396197
H	0.490115	1.59557	1.105912
F	2.524157	0.0	0.0
