13

C	-0.195149	0.052778	-1.502471
C	0.0	0.0	0.0
Br	-2.070475	0.461265	-2.072619
H	1.097715	0.0	0.0
H	0.39382	0.890295	-1.880701
C	0.20681	-1.169517	-2.184282
N	0.515224	-2.15831	-2.740096
C	-0.608329	-1.179489	0.590472
N	-1.089721	-2.137189	1.074655
N	-0.369588	1.213027	0.704286
H	-1.181638	1.661772	0.297015
H	0.429657	1.83365	0.67169
F	2.503247	0.0	0.0
