13

C	-0.472384	-0.148771	-1.447473
C	0.0	0.0	0.0
Br	0.360346	1.193709	-2.593216
H	1.101096	0.0	0.0
H	-0.143227	-1.112763	-1.841177
C	-1.920682	-0.026799	-1.584764
N	-3.089433	0.064366	-1.668849
C	-0.475487	-1.160259	0.747336
N	-0.865948	-2.093274	1.35111
N	-0.420033	1.271395	0.57027
H	-1.213842	1.183985	1.190676
H	0.371947	1.646897	1.077036
F	2.530225	0.0	0.0
