13

C	-0.321463	-0.013274	-1.508163
C	0.0	0.0	0.0
Br	0.474515	1.539321	-2.395688
H	1.095211	0.0	0.0
H	0.159311	-0.883363	-1.958896
C	-1.749932	-3.4e-05	-1.805033
N	-2.911758	0.019795	-1.985487
C	-0.521018	-1.246228	0.551003
N	-0.948268	-2.258972	0.970369
N	-0.467857	1.143768	0.74951
H	-1.364287	1.489542	0.426522
H	0.229497	1.870938	0.662256
F	2.531397	0.0	0.0
