13

C	-0.356659	0.026288	-1.464302
C	0.0	0.0	0.0
Br	-2.294556	0.322695	-1.803689
H	1.09973	0.0	0.0
H	0.134438	0.897289	-1.89561
C	0.027509	-1.181238	-2.181753
N	0.316993	-2.156404	-2.768516
C	-0.534714	-1.163726	0.689911
N	-0.955628	-2.077588	1.300316
N	-0.338194	1.275467	0.623807
H	0.440368	1.519614	1.223034
H	-1.184954	1.219866	1.177388
F	2.511016	0.0	0.0
