13

C	-0.359787	0.038891	-1.463691
C	0.0	0.0	0.0
Br	-2.299447	0.335919	-1.797413
H	1.099362	0.0	0.0
H	0.130083	0.914865	-1.888536
C	0.024799	-1.162076	-2.192548
N	0.310462	-2.13061	-2.792747
C	-0.533291	-1.169731	0.680913
N	-0.946599	-2.093897	1.279842
N	-0.340109	1.270419	0.634356
H	0.433813	1.50314	1.245878
H	-1.191013	1.207964	1.179747
F	2.50985	0.0	0.0
