13

C	-0.454639	0.026074	-1.460837
C	0.0	0.0	0.0
Br	0.353649	1.524448	-2.413861
H	1.094045	0.0	0.0
H	-0.090234	-0.86967	-1.968205
C	-1.904217	0.125906	-1.60297
N	-3.075206	0.201771	-1.673908
C	-0.473916	-1.247001	0.592935
N	-0.870124	-2.239893	1.08619
N	-0.435643	1.186463	0.719631
H	0.340618	1.489476	1.293014
H	-1.2442	1.016772	1.302844
F	2.531204	0.0	0.0
