13

C	-0.323697	-0.024229	-1.508215
C	0.0	0.0	0.0
Br	0.468037	1.52391	-2.407198
H	1.095212	0.0	0.0
H	0.161245	-0.895511	-1.953334
C	-1.753038	-0.020789	-1.801895
N	-2.916777	-0.008111	-1.973829
C	-0.520504	-1.242726	0.558731
N	-0.947516	-2.251717	0.987305
N	-0.468257	1.147322	0.742741
H	0.228008	1.875411	0.65106
H	-1.36641	1.488654	0.417678
F	2.530524	0.0	0.0
