13
Coordinates from ORCA-job run
  C   -0.41487783091654      0.12333157457666     -0.22238121795136
  C   1.05351596043123     -0.13091777409417     -0.46372077760893
  F   -1.18556381589724     -0.35560064331313     -1.19471112913338
  H   1.63333336205144      0.30762159653810      0.34903652015573
  H   1.34279363203905      0.36143108772255     -1.39516205721389
  N   -0.72482389042044      1.60690743772635     -0.07942011905225
  O   -1.90644378535109      1.86054422354592      0.11033176843054
  O   0.20965108684818      2.39169170310698     -0.18143856368229
  N   -0.84612710994219     -0.48836294536658      1.10432870990298
  O   -1.68877441191460     -1.36784175507893      1.07042741963660
  O   -0.26444306049932     -0.01769195831946      2.07400291115519
  C   1.29763041680351     -1.56821139802563     -0.55241970338571
  N   1.49412944676801     -2.72290114901866     -0.61887376125322
