13
Coordinates from ORCA-job run
  C   -0.45768038131752      0.03140455631364     -0.16196225233869
  C   0.74639947144628     -0.87816603220903     -0.11781941025490
  F   -1.08781445149458     -0.00722066087191     -1.33251459374773
  H   1.20206177933557     -0.82471141348250      0.87142086036329
  H   0.41257095192891     -1.90478126242165     -0.28602241949992
  N   -0.04662284693682      1.46730821237966      0.13721572406423
  O   -0.22320994512617      2.29659606358447     -0.73787573256911
  O   0.44085326343713      1.61645577128915      1.25089049595282
  N   -1.47462751042642     -0.30941920529505      0.91841744891895
  O   -1.21622359561603     -1.24760748254870      1.66176465702989
  O   -2.47202202854916      0.39893222226114      0.91544096407241
  C   1.70340218334706     -0.48063370614830     -1.14707464660748
  N   2.47391310997175     -0.15815706285092     -1.97088109538375
