13
Coordinates from ORCA-job run
  C   -0.60444334073424      0.08307016839457     -0.21174788883929
  C   0.51680942542184     -0.70327086951148     -0.85187931730209
  F   -1.72513305584634     -0.05547532179123     -0.92554550022165
  H   0.71251707519606     -0.27009016956021     -1.83570302381335
  H   0.13957895809539     -1.72152776748477     -0.99178491802062
  N   -0.32491408346326      1.56981990745911     -0.09968222319007
  O   -1.24062416374060      2.22320060443472      0.37992919267848
  O   0.75161708324134      1.97049504964205     -0.52484894080125
  N   -0.86243292275025     -0.40517788894873      1.20519377014235
  O   -0.15926023178902      0.09911313034479      2.07036234313330
  O   -1.69964157957895     -1.28698575900472      1.31733659467840
  C   1.74391337223329     -0.72830533099848     -0.06490586184988
  N   2.75201346371475     -0.77286575297563      0.53327577340567
