13
Coordinates from ORCA-job run
  C   -0.37145120844199      0.18244217154672     -0.24412107214308
  C   1.08224538186077     -0.21754193134885     -0.33047029421461
  F   -1.04381800408318     -0.07521301510298     -1.35694527435752
  H   1.57667343275502      0.01201835332432      0.61266313213734
  H   1.54246581588120      0.37567292347931     -1.12705025411265
  N   -0.47662965919699      1.67617976527732      0.06149915088319
  O   0.13522597766902      2.03222127731811      1.06133164564052
  O   -1.14339505705467      2.35288332395069     -0.70360343426522
  N   -1.09307326559414     -0.49465573428725      0.91886406143736
  O   -2.31225556116580     -0.51880319373020      0.82803460344917
  O   -0.39055778035651     -0.91004252124002      1.83095780962871
  C   1.20106416541450     -1.63796617885838     -0.64402611127957
  N   1.29450576231274     -2.77719524032879     -0.90713396280363
