13
Coordinates from ORCA-job run
  C   -0.16949061783902      0.00937702741266      0.45595409501625
  C   0.54876646067876     -0.86158809422427     -0.54625125587358
  F   0.31969758939912     -0.11287758075930      1.68664867119944
  H   0.08568604191299     -0.73993922953195     -1.52597611971133
  H   0.43737839507645     -1.90508266455803     -0.24225259677920
  N   -1.65893758158307     -0.29943433018422      0.52133238034432
  O   -2.28137453158482      0.38045660230182      1.32565218441372
  O   -2.08407022044413     -1.18878390671930     -0.20523928142180
  N   -0.09897554938666      1.47086052016777      0.03289524944914
  O   0.47730121072606      2.24451723215694      0.77727065725732
  O   -0.63428020865761      1.69605638703772     -1.04550834820078
  C   1.96178874111412     -0.49563712731064     -0.59614221013577
  N   3.09551027058779     -0.19692483578921     -0.63938342555776
