18

C	-0.423624	-0.053064	-1.472501
C	0.0	0.0	0.0
F	-0.196451	1.194974	-2.063492
H	1.096464	0.0	0.0
C	0.361216	-1.091614	-2.245622
H	0.160975	-2.078816	-1.831334
H	0.08428	-1.063838	-3.301933
H	1.423046	-0.862123	-2.125427
C	-1.882151	-0.291576	-1.562081
N	-3.039585	-0.48645	-1.616548
N	-0.426924	-1.260972	0.61128
H	0.28242	-1.560045	1.269408
H	-1.299098	-1.133	1.112397
C	-0.517088	1.242608	0.707626
H	-1.614028	1.254057	0.735934
H	-0.141308	1.249281	1.733658
H	-0.169857	2.149736	0.212276
Br	3.616107	0.0	0.0
