18

C	-0.501354	-0.057651	-1.442042
C	0.0	0.0	0.0
F	0.003795	-1.226369	-2.023396
H	1.098097	0.0	0.0
C	-2.015241	-0.119947	-1.571127
H	-2.27752	-0.327505	-2.610729
H	-2.378841	-0.916705	-0.923504
H	-2.470928	0.826754	-1.276188
C	0.007589	1.08387	-2.226692
N	0.337391	2.024185	-2.847689
N	-0.507397	-1.203978	0.684093
H	-0.222534	-1.120304	1.656026
H	0.028398	-1.987562	0.319411
C	-0.489809	1.243022	0.723538
H	-1.568226	1.199582	0.902177
H	-0.246751	2.150519	0.16712
H	0.019706	1.313583	1.688017
Br	3.618274	0.0	0.0
