18

C	-0.378949	0.029133	-1.48451
C	0.0	0.0	0.0
F	-1.79004	0.071407	-1.602951
H	1.096554	0.0	0.0
C	0.20572	1.198953	-2.25021
H	-0.241999	2.124273	-1.886342
H	-0.006521	1.1017	-3.317314
H	1.286553	1.225536	-2.086056
C	0.01742	-1.241714	-2.119773
N	0.292006	-2.25542	-2.643258
N	-0.476373	-1.198647	0.682878
H	0.139376	-1.975565	0.465892
H	-1.412633	-1.431345	0.363396
C	-0.495411	1.243557	0.726082
H	-0.229189	1.133923	1.777186
H	-0.021724	2.151662	0.34887
H	-1.582202	1.344629	0.647399
Br	3.611967	0.0	0.0
