18

C	-0.494829	0.00739	-1.446334
C	0.0	0.0	0.0
F	-0.012136	-1.14893	-2.069161
H	1.101926	0.0	0.0
C	-2.009583	-0.016285	-1.584567
H	-2.271233	-0.188413	-2.630548
H	-2.395707	-0.822921	-0.961824
H	-2.444986	0.932014	-1.265979
C	0.046558	1.169614	-2.175871
N	0.393593	2.147608	-2.725876
N	-0.515935	-1.229754	0.626933
H	-0.232362	-1.196232	1.601198
H	0.009383	-2.000378	0.224271
C	-0.485435	1.213715	0.773694
H	0.007754	1.230846	1.749326
H	-1.567335	1.178796	0.932368
H	-0.217931	2.142564	0.265069
Br	3.628705	0.0	0.0
