18

C	-0.428858	-0.033938	-1.470687
C	0.0	0.0	0.0
F	-0.198977	1.219892	-2.04982
H	1.100981	0.0	0.0
C	0.348035	-1.065809	-2.259201
H	0.14355	-2.056561	-1.857094
H	1.410844	-0.844792	-2.140555
H	0.067182	-1.022914	-3.314061
C	-1.889263	-0.263384	-1.557041
N	-3.050001	-0.432667	-1.60793
N	-0.423523	-1.269754	0.596487
H	0.311329	-1.599708	1.210253
H	-1.266215	-1.140577	1.144752
C	-0.51641	1.231542	0.726087
H	-0.130537	1.228236	1.748453
H	-0.178553	2.145918	0.237987
H	-1.612967	1.237125	0.764737
Br	3.608144	0.0	0.0
