18

C	-0.423415	-0.062803	-1.471959
C	0.0	0.0	0.0
F	-0.210609	1.185928	-2.068426
H	1.096474	0.0	0.0
C	0.372473	-1.095025	-2.242065
H	1.43172	-0.852674	-2.125003
H	0.092524	-1.074958	-3.297949
H	0.18576	-2.08308	-1.823205
C	-1.879554	-0.318122	-1.561755
N	-3.034587	-0.521593	-1.629522
N	-0.423711	-1.259815	0.616561
H	0.281255	-1.548755	1.28445
H	-1.301828	-1.134043	1.108773
C	-0.519336	1.244634	0.701946
H	-0.17248	2.150479	0.20388
H	-1.616313	1.254816	0.729108
H	-0.144735	1.255329	1.728591
Br	3.623631	0.0	0.0
