14

C	0.0	0.0	0.0
C	-0.517084	-0.216898	-1.410951
Br	1.970043	0.0	0.0
H	-0.232132	-1.224464	-1.747668
H	-0.277978	-0.858092	0.614424
H	-1.608419	-0.190119	-1.309884
C	-0.504398	1.286871	0.616286
H	-1.596465	1.218899	0.646446
H	-0.119189	1.419093	1.62968
H	-0.211302	2.13551	-0.00127
N	-0.088127	0.848004	-2.315227
H	0.829073	0.634577	-2.686741
H	-0.736927	0.905957	-3.08849
Cl	-3.887112	0.0	0.0
