14

C	-0.444623	1.9e-05	-1.43922
C	0.0	0.0	0.0
Cl	-0.053654	-1.50832	-2.275211
H	1.093281	0.0	0.0
H	-0.01674	0.822071	-2.009734
H	-0.355615	-0.916932	0.476548
N	-1.939344	0.209851	-1.506043
O	-2.661827	-0.654777	-1.022651
O	-2.322402	1.279747	-1.980071
C	-0.497611	1.236331	0.743442
H	-0.0367	1.263974	1.732353
H	-0.205228	2.1518	0.222502
H	-1.584294	1.241773	0.870295
Br	3.616564	0.0	0.0
