14

C	-0.40648	-0.065513	-1.442653
C	0.0	0.0	0.0
Cl	-2.182091	-0.126016	-1.689359
H	1.096015	0.0	0.0
H	0.0164	-0.920779	-1.96475
H	-0.358461	0.935757	0.432252
N	0.077747	1.138517	-2.211313
O	0.582306	0.917266	-3.30833
O	-0.096345	2.23991	-1.703681
C	-0.473786	-1.212887	0.791265
H	-0.039426	-1.177135	1.79207
H	-1.561648	-1.256594	0.88312
H	-0.126152	-2.137656	0.322755
Br	3.585627	0.0	0.0
