14

C	-0.555922	-0.040715	-1.407498
C	0.0	0.0	0.0
Cl	0.012246	1.279623	-2.424799
H	1.092227	0.0	0.0
H	-1.6468	-0.013044	-1.408597
H	-0.340885	-0.916139	0.491649
N	-0.238513	-1.384342	-2.044939
O	0.604483	-1.474592	-2.922013
O	-0.900151	-2.310005	-1.574366
C	-0.500242	1.220167	0.764399
H	-1.594699	1.271287	0.793064
H	-0.119396	2.140084	0.319239
H	-0.130388	1.177968	1.790667
Br	3.64099	0.0	0.0
