14

C	-0.461739	-0.068198	-1.439348
C	0.0	0.0	0.0
Cl	-2.168195	-0.566237	-1.596389
H	1.093677	0.0	0.0
H	0.139098	-0.766158	-2.017321
H	-0.299233	-0.952416	0.450221
N	-0.289339	1.260551	-2.135988
O	-1.132986	2.131785	-1.949818
O	0.732009	1.375038	-2.806877
C	-0.552104	1.164488	0.808501
H	-1.64267	1.2191	0.770155
H	-0.242811	1.045295	1.848853
H	-0.148024	2.114464	0.457032
Br	3.60665	0.0	0.0
