14

C	-0.443199	-0.000212	-1.439734
C	0.0	0.0	0.0
Cl	-0.058086	-1.511795	-2.273346
H	1.093333	0.0	0.0
H	-0.0132	0.820314	-2.011131
H	-0.356423	-0.916184	0.477369
N	-1.937405	0.214105	-1.504596
O	-2.661787	-0.647599	-1.018261
O	-2.318262	1.284099	-1.980266
C	-0.497176	1.237416	0.742046
H	-1.583754	1.243752	0.868934
H	-0.036102	1.265739	1.730779
H	-0.204125	2.152069	0.220071
Br	3.619667	0.0	0.0
