14

C	-0.446193	0.016718	-1.44649
C	0.0	0.0	0.0
Cl	0.054779	-1.403562	-2.359178
H	1.093138	0.0	0.0
H	-0.066911	0.896483	-1.962185
H	-0.316002	0.957395	0.428643
N	-1.955978	0.158402	-1.491686
O	-2.360949	1.307364	-1.312827
O	-2.662383	-0.835	-1.614982
C	-0.544565	-1.162444	0.81635
H	-0.259328	-2.118088	0.374793
H	-1.634033	-1.136828	0.910724
H	-0.112075	-1.121295	1.817879
Br	3.623777	0.0	0.0
