16
Coordinates from ORCA-job run
  C   -1.01189824681131     -0.30769091653447      0.32800347784033
  C   0.47886251696037     -0.07657181060503      0.10766041035001
  Br  -1.28436338928832     -2.14547562368532      1.16839386683922
  H   0.96640178372684     -0.11654780861084      1.09123833161535
  H   -1.53278661932332     -0.41685437379320     -0.62529315796864
  N   -1.61654711560562      0.71500354667346      1.09192118864923
  H   -2.61218491433825      0.57177999665237      1.19660244290100
  H   -1.19713803251056      0.78527335846661      2.01115471965245
  C   0.68341430286534      1.31688180803748     -0.49511511547071
  H   0.30423385055637      2.10250840030158      0.15646983070450
  H   0.15987474100678      1.39687995664578     -1.45320977294671
  H   1.74665914191694      1.49092244656442     -0.67965731824149
  C   1.10590176933486     -1.13424757160982     -0.79571714248914
  H   0.59379318514014     -1.16115954234269     -1.76312591132730
  H   1.06017493026923     -2.13097961147197     -0.35869819029627
  H   2.15460209610050     -0.89072225468837     -0.98262765981183
