16
Coordinates from ORCA-job run
  C   -0.87571116150998     -0.41951596488689      0.60450883389503
  C   0.16281234349160     -0.05015775091503     -0.45005185669783
  Br  -0.07989926289615     -0.54426430697543      2.40119785199139
  H   -0.41616419446994     -0.00749652351790     -1.38709705443788
  H   -1.22205796240510     -1.44518485085571      0.42608396013041
  N   -1.92816338165425      0.56774426194653      0.66376085681306
  H   -2.32768191217234      0.67960062651705     -0.26232394880492
  H   -2.66081536525895      0.26972154075355      1.29625389223221
  C   1.22068080638581     -1.13582379902568     -0.61559229766348
  H   1.85996999448620     -0.91256185428055     -1.47335024352989
  H   0.76841256398283     -2.11834158117739     -0.77909726981128
  H   1.85438421096990     -1.19692526915892      0.27147296341410
  C   0.78806463491112      1.32104090402316     -0.21736385589717
  H   0.02459672183224      2.08017018599785     -0.04651799925914
  H   1.44528142469771      1.29884300509681      0.65433873914018
  H   1.38629053960931      1.61115137645854     -1.08522257151482
