16
Coordinates from ORCA-job run
  C   -0.78181125958576     -0.53072209713916      0.72495440580451
  C   0.60518227069568     -0.22035628276900      0.17157916631882
  Br  -0.79471602348569     -0.08416066413331      2.71878676620132
  H   1.32703381845368     -0.65813843327215      0.86824705071681
  H   -0.95040676325536     -1.60757614115104      0.74997263270969
  N   -1.82160649133741      0.09678026353981      0.00879918572820
  H   -2.73429267494349     -0.21155178266162      0.31550942527859
  H   -1.77538314599950      1.10484305670838      0.07664473490570
  C   0.87844214807335      1.27656936930120      0.06396947065293
  H   0.25512239984290      1.73660214172921     -0.70828954542077
  H   1.91925065855791      1.44539135385863     -0.22200524178982
  H   0.70500723342090      1.78769936117384      1.01309746772517
  C   0.76023201216298     -0.90513523164799     -1.18784931175103
  H   0.61189113642033     -1.98577039769869     -1.10860233149040
  H   0.03247369373502     -0.51344469367937     -1.90047757424337
  H   1.76458098724446     -0.73402982215874     -1.58433630134634
