16
Coordinates from ORCA-job run
  C   -0.95309497677871     -0.41305116624556      0.43374602789714
  C   0.51460493886873     -0.12896901063632      0.13464542602741
  Br  -1.15296504533697     -2.15459736471285      1.31821216879422
  H   1.05368388764160     -0.22291677259042      1.08388596914952
  H   -1.50251349472835     -0.54158139807101     -0.50998679786735
  N   -1.51861778102267      0.57878340145025      1.32909277933534
  H   -2.44497130602846      0.28886261058057      1.61969594344265
  H   -1.61879990367169      1.45347909802883      0.82529297491140
  C   0.66755743724687      1.30685811676494     -0.37499689883455
  H   0.03031416678461      1.48479699305237     -1.24874443322325
  H   0.42459907162309      2.03897968807289      0.39656992240483
  H   1.70032346327749      1.48657872962025     -0.68250859390864
  C   1.08696301318362     -1.11187844005090     -0.88236551033164
  H   0.54803821449871     -1.04163580642662     -1.83299108158780
  H   1.02659819152233     -2.14246735675844     -0.53161902759448
  H   2.13728012291979     -0.88324132207799     -1.07892886861480
