16
Coordinates from ORCA-job run
  C   -0.76800485460031     -0.50951329831077      0.86832339432123
  C   0.58784621062195     -0.20543384569503      0.21637413912964
  Br  -0.69991507529701      0.02183270615318      2.77534856261477
  H   1.35292172660507     -0.67157673031764      0.84744688531086
  H   -0.90618467474715     -1.59225363867230      0.91205125301144
  N   -1.93977002842771      0.05916532958633      0.27227065162939
  H   -2.22203663626442     -0.45823788751259     -0.54890522390659
  H   -1.82056453739848      1.03725624840636      0.04762737250345
  C   0.89349988051466      1.28472863993701      0.10998369219802
  H   0.19672046133957      1.78828511265670     -0.56694322446536
  H   0.85006084523498      1.77674807436490      1.08258847883714
  H   1.89638609338310      1.43122170486532     -0.29841049787966
  C   0.63159185573693     -0.86662241893130     -1.16251139967455
  H   -0.08867925917625     -0.40578759200924     -1.84409836258392
  H   0.41272438368361     -1.93697815096787     -1.10388624496627
  H   1.62340360879146     -0.75383425355307     -1.60725947607958
