15

C	0.0	0.0	0.0
C	-0.434838	-0.274241	-1.45445
F	1.36024	0.0	0.0
H	-1.469345	0.098474	-1.460562
N	-0.393526	1.409771	0.41608
O	-0.260674	1.648596	1.613534
O	-0.671494	2.220704	-0.451376
C	-0.495325	-0.950316	0.992786
N	-0.601686	-1.771215	1.829436
C	-0.483253	-1.72233	-1.691778
N	-0.472605	-2.861057	-1.983425
N	0.464033	0.398723	-2.384665
H	-0.07026	0.735995	-3.171992
H	1.1847	-0.226518	-2.717297
F	-2.387923	0.0	0.0
