15

C	0.0	0.0	0.0
C	-0.431314	0.080746	-1.487678
F	1.350251	0.0	0.0
H	0.511991	0.201534	-2.03661
N	-0.342082	1.231134	0.822341
O	-0.611816	1.081105	2.004094
O	-0.146821	2.301857	0.255334
C	-0.459173	-1.198671	0.706773
N	-0.536794	-2.197244	1.322661
C	-1.275787	1.230023	-1.861608
N	-1.867351	2.077902	-2.421898
N	-1.027525	-1.192944	-1.870239
H	-1.913339	-1.162017	-1.352019
H	-1.21836	-1.165707	-2.866247
F	-2.334989	0.0	0.0
