15

C	0.0	0.0	0.0
C	-0.311957	0.09144	-1.500955
F	1.381506	0.0	0.0
H	0.376956	0.867023	-1.865312
N	-0.364354	1.259879	0.742314
O	-0.372015	2.290759	0.077074
O	-0.473632	1.185566	1.958388
C	-0.467627	-1.192027	0.694815
N	-0.548039	-2.206583	1.283718
C	-1.660694	0.512349	-1.900575
N	-2.433736	0.908354	-2.701076
N	-0.014472	-1.224825	-2.078042
H	-0.482301	-1.29967	-2.971775
H	0.983464	-1.305748	-2.227349
F	-2.274997	0.0	0.0
