17

C	-0.389551	-0.01197	-1.478767
C	0.0	0.0	0.0
F	-1.805966	-0.036134	-1.484777
H	1.098857	0.0	0.0
N	0.022803	1.168052	-2.178293
H	1.011307	1.079016	-2.386126
H	-0.064398	1.927809	-1.509882
N	0.058219	-1.190225	-2.162421
H	-0.061977	-1.951458	-1.500923
H	1.060026	-1.103812	-2.301585
N	-0.444051	-1.244222	0.626014
H	0.09098	-1.402637	1.470635
H	-1.426406	-1.178622	0.864778
N	-0.447109	1.250211	0.612281
H	0.088608	1.419913	1.454417
H	-1.429255	1.184843	0.8532
Cl	3.453973	0.0	0.0
