17

C	-0.355528	0.047133	-1.497864
C	0.0	0.0	0.0
F	-0.049925	-1.268807	-1.940886
H	1.091046	0.0	0.0
N	-1.741781	0.317754	-1.693966
H	-2.294411	-0.398981	-1.234191
H	-1.958216	0.306525	-2.68473
C	0.556444	0.965093	-2.282234
H	0.264417	2.004737	-2.147967
H	1.569517	0.807844	-1.896258
H	0.498243	0.692302	-3.341575
C	-0.580805	-1.170715	0.627079
N	-1.051194	-2.144629	1.087658
N	-0.459217	1.225849	0.695162
O	-0.088025	2.299158	0.22869
O	-1.145279	1.113465	1.714613
F	2.510613	0.0	0.0
