17

C	-0.112597	0.137064	-1.535711
C	0.0	0.0	0.0
F	-1.42516	0.422249	-1.914515
H	1.099558	0.0	0.0
N	0.751477	1.176942	-2.038024
H	0.429173	2.048727	-1.636046
H	1.65866	0.979273	-1.603155
C	0.311676	-1.182186	-2.146901
H	1.299055	-1.427275	-1.754121
H	-0.393856	-1.974857	-1.906447
H	0.365806	-1.047968	-3.227218
C	-0.555933	-1.216841	0.546241
N	-0.975317	-2.248382	0.926563
N	-0.485772	1.157564	0.787822
O	-0.68971	0.963669	1.986503
O	-0.634619	2.24726	0.231378
F	2.533185	0.0	0.0
