17

C	-0.168217	-0.132589	-1.516052
C	0.0	0.0	0.0
F	-1.512289	-0.079086	-1.902979
H	1.10728	0.0	0.0
N	0.512216	0.9934	-2.097347
H	1.422878	1.045391	-1.632265
H	0.668727	0.80133	-3.08059
C	0.397742	-1.477629	-1.938695
H	-0.165666	-2.312975	-1.517508
H	1.432274	-1.503747	-1.587605
H	0.365883	-1.546141	-3.030445
C	-0.596243	-1.097256	0.730251
N	-1.031122	-2.025295	1.304607
N	-0.54888	1.294001	0.49024
O	0.183762	2.276207	0.426071
O	-1.705408	1.302642	0.920635
F	2.553721	0.0	0.0
