17

C	-0.377441	0.041082	-1.479262
C	0.0	0.0	0.0
F	-1.782715	-0.229361	-1.599667
H	1.106239	0.0	0.0
N	-0.057699	1.269407	-2.107538
H	-0.318508	1.215027	-3.083433
H	-0.53334	2.033362	-1.651383
C	0.374656	-1.089061	-2.157313
H	-0.014958	-2.055505	-1.835412
H	0.262312	-1.009625	-3.242831
H	1.423381	-0.99164	-1.868775
C	-0.43313	-1.250634	0.596661
N	-0.750652	-2.294772	1.031679
N	-0.476759	1.104575	0.86165
O	-0.454625	0.909246	2.07544
O	-0.815989	2.176912	0.350023
F	2.480318	0.0	0.0
