16

C	0.0	0.0	0.0
C	-0.617944	0.020667	-1.365337
F	1.383242	0.0	0.0
H	-1.76017	-0.035285	-1.096801
H	-0.348122	0.913261	0.486908
C	-0.451092	-1.212354	0.784762
H	-0.085077	-1.12172	1.810286
H	-0.046346	-2.125772	0.345093
H	-1.544778	-1.229279	0.779
N	-0.123606	-1.107687	-2.188613
O	-0.743977	-2.169507	-2.11492
O	0.910719	-0.934339	-2.837418
N	-0.370583	1.267227	-2.120313
O	-0.710225	1.269231	-3.304051
O	0.055883	2.247595	-1.505901
H	-2.957119	0.0	0.0
