20

C	-0.490002	0.019361	-1.449519
C	0.0	0.0	0.0
F	-0.240343	-1.258289	-2.009816
H	1.096782	0.0	0.0
C	-1.985619	0.244027	-1.58049
H	-2.539388	-0.559388	-1.087184
H	-2.269911	0.253169	-2.6373
H	-2.255274	1.198428	-1.126526
C	0.320596	1.014202	-2.253176
H	1.382155	0.787933	-2.124051
H	0.04583	0.959047	-3.311913
H	0.134191	2.022389	-1.87978
C	-0.472474	-1.212773	0.786135
H	-1.555573	-1.194459	0.968322
H	-0.223196	-2.135496	0.260405
H	0.041175	-1.224983	1.752012
N	-0.385291	1.278449	0.633212
H	0.442297	1.632676	1.103016
H	-1.091395	1.115194	1.342324
H	3.038953	0.0	0.0
