20

C	-0.401853	0.007404	-1.469229
C	0.0	0.0	0.0
F	-1.783828	-0.307336	-1.602227
H	1.103411	0.0	0.0
C	-0.212118	1.380386	-2.080795
H	-0.862133	2.093347	-1.573475
H	-0.464625	1.357631	-3.144773
H	0.831445	1.686792	-1.965471
C	0.373996	-1.041773	-2.241977
H	0.110047	-0.997773	-3.302914
H	1.44491	-0.864661	-2.109834
H	0.145197	-2.045137	-1.878409
C	-0.515151	-1.219578	0.743754
H	-0.050422	-1.258127	1.734067
H	-1.601803	-1.166945	0.856916
H	-0.258798	-2.148817	0.233661
N	-0.498433	1.215725	0.688098
H	0.225383	1.923782	0.567895
H	-0.487962	1.008908	1.682645
H	3.07677	0.0	0.0
