20

C	-0.407805	0.030274	-1.479022
C	0.0	0.0	0.0
F	-0.033774	-1.211686	-2.044715
H	1.097325	0.0	0.0
C	-1.90612	0.130082	-1.729217
H	-2.327663	1.058192	-1.334189
H	-2.424722	-0.713803	-1.269221
H	-2.097441	0.10456	-2.806061
C	0.38368	1.088977	-2.223783
H	1.444312	0.956925	-1.988726
H	0.219838	0.98538	-3.301182
H	0.076948	2.092654	-1.91894
C	-0.532244	-1.211367	0.74572
H	-0.319154	-2.133174	0.200997
H	-1.611603	-1.137927	0.925663
H	-0.033134	-1.255601	1.715895
N	-0.359719	1.233379	0.719604
H	-1.178114	1.682964	0.328551
H	0.422551	1.873782	0.647099
H	3.052407	0.0	0.0
