12

C	0.0	0.0	0.0
C	-0.453516	-0.227095	-1.439161
Cl	1.791814	0.0	0.0
H	-0.111112	0.623936	-2.045886
H	-0.366656	-0.814273	0.615126
H	-1.548551	-0.22085	-1.30734
C	-0.463022	1.283431	0.526048
N	-0.589932	2.376581	0.936732
N	0.033164	-1.522974	-1.916154
H	0.94319	-1.42435	-2.348608
H	-0.608916	-1.867153	-2.617251
F	-2.592864	0.0	0.0
