12

C	0.0	0.0	0.0
C	-0.502729	-0.292562	-1.434077
Cl	1.782742	0.0	0.0
H	-1.209915	-1.116829	-1.33474
H	-0.329041	-0.783589	0.67595
H	0.353379	-0.589737	-2.048859
C	-0.446685	1.278854	0.554103
N	-0.594332	2.323365	1.070461
N	-1.133415	0.897882	-1.994603
H	-1.394689	0.689249	-2.953336
H	-1.992708	0.913212	-1.422821
F	-2.559817	0.0	0.0
