12

C	0.0	0.0	0.0
C	-0.465712	0.460548	-1.426154
Cl	1.7898	0.0	0.0
H	0.426002	0.743692	-1.996562
H	-0.352524	-1.00603	0.201887
H	-1.100691	1.331683	-1.295602
C	-0.442577	0.891134	1.069056
N	-0.600619	1.653814	1.949181
N	-1.237981	-0.525345	-2.153785
H	-0.706993	-1.391105	-2.194504
H	-2.030908	-0.63567	-1.498147
F	-2.525843	0.0	0.0
