12

C	-0.282905	0.015351	-1.471929
C	0.0	0.0	0.0
Cl	-2.028581	0.039058	-1.891582
H	1.095226	0.0	0.0
H	0.15459	-0.873807	-1.917816
H	0.17263	0.9092	-1.898086
N	-0.377708	-1.245039	0.649207
O	-0.598515	-1.223303	1.866832
O	-0.304697	-2.27603	-0.032918
C	-0.498196	1.149582	0.71667
N	-0.85438	2.140464	1.240326
H	2.426722	0.0	0.0
