12

C	-0.506183	0.128335	-1.417877
C	0.0	0.0	0.0
Cl	0.239637	-1.051378	-2.535075
H	1.091195	0.0	0.0
H	-0.223221	1.116819	-1.781001
H	-1.584987	-0.007466	-1.479721
N	-0.483303	-1.190511	0.692653
O	-1.151795	-2.024707	0.061107
O	-0.126072	-1.318678	1.869845
C	-0.370572	1.168104	0.771099
N	-0.64101	2.162312	1.338346
H	2.438861	0.0	0.0
