12

C	-0.353343	-0.036998	-1.478354
C	0.0	0.0	0.0
Cl	-0.119706	1.56999	-2.22315
H	1.093539	0.0	0.0
H	0.336798	-0.724718	-1.966581
H	-1.386168	-0.338888	-1.652597
N	-0.357021	-1.248308	0.63304
O	-0.386294	-2.254444	-0.100721
O	-0.45393	-1.281262	1.86798
C	-0.513867	1.124288	0.74267
N	-0.883131	2.074246	1.330102
H	2.379903	0.0	0.0
