12

C	-0.52443	-0.010511	-1.419009
C	0.0	0.0	0.0
Cl	0.35542	-1.129005	-2.503688
H	1.090967	0.0	0.0
H	-1.575178	-0.295654	-1.45243
H	-0.389193	0.987439	-1.835811
N	-0.408328	-1.153133	0.78245
O	-0.154349	-1.111998	1.994896
O	-0.851117	-2.147694	0.186032
C	-0.401693	1.212538	0.679373
N	-0.692837	2.242742	1.167278
H	2.406088	0.0	0.0
