12

C	-0.302259	0.024801	-1.468222
C	0.0	0.0	0.0
Cl	-2.057903	0.007288	-1.853153
H	1.095136	0.0	0.0
H	0.148409	-0.848286	-1.932512
H	0.119312	0.935742	-1.893412
N	-0.36606	-1.255642	0.639325
O	-0.261362	-2.279156	-0.048296
O	-0.6054	-1.246833	1.853311
C	-0.503441	1.138637	0.730938
N	-0.856259	2.122811	1.269413
H	2.432305	0.0	0.0
