12

C	-0.251389	0.029664	-1.478627
C	0.0	0.0	0.0
Cl	-1.983188	0.049823	-1.946809
H	1.09351	0.0	0.0
H	0.214731	0.928275	-1.883338
H	0.204948	-0.852481	-1.92073
N	-0.386766	-1.253638	0.623968
O	-0.260819	-2.278622	-0.056946
O	-0.673359	-1.245641	1.826824
C	-0.509165	1.141959	0.72055
N	-0.856896	2.128047	1.259387
H	2.425051	0.0	0.0
