12

C	-0.286955	-0.106452	-1.467137
C	0.0	0.0	0.0
Cl	-2.034938	-0.134712	-1.87896
H	1.094516	0.0	0.0
H	0.156731	-1.023996	-1.843458
H	0.154988	0.755188	-1.966246
N	-0.370222	-1.187862	0.750395
O	-0.304875	-2.269131	0.150172
O	-0.569372	-1.070836	1.965947
C	-0.494486	1.204847	0.622128
N	-0.832158	2.238206	1.070831
H	2.423572	0.0	0.0
