14
Coordinates from ORCA-job run
  C   -0.45574837737936      0.42100843098337      0.53584154303012
  C   0.48351893595530     -0.51942415615510     -0.25328282679729
  Br  0.46613077545643      1.99728591253902      1.13500295337220
  H   -0.13508465509775     -1.38108540570088     -0.52368006223723
  N   -1.58689783455668      0.77887173931025     -0.46726745465718
  O   -2.21607103860340     -0.20421760309527     -0.83376418816651
  O   -1.73861823896195      1.93487167104865     -0.80344222318107
  C   -1.06589207156120     -0.25917086137622      1.66602289799823
  N   -1.54347593219884     -0.83152153860754      2.57593380977516
  C   1.57147583707726     -0.98416566327069      0.62318596801148
  N   2.48123154302780     -1.35359470232134      1.26900836061940
  N   0.89335112455045      0.14279329352267     -1.46963900375583
  H   1.64944390133674      0.79422657336985     -1.29792619390815
  H   1.19663603095520     -0.53487769024678     -2.15699358010333
