14
Coordinates from ORCA-job run
  C   -0.53310268464856      0.64840472086181      0.13683376032607
  C   0.54479875816378     -0.17166025130584     -0.60732307053954
  Br  -0.56961306859267      2.46538251438026     -0.51179912179987
  H   0.34006195687175     -0.05610404230092     -1.67419150613849
  N   -1.90900075191836      0.03622767868063     -0.16338721677571
  O   -2.08761538412847     -0.28908764277234     -1.32854102811932
  O   -2.69713021533844     -0.04817804086968      0.76642572442058
  C   -0.29138033419669      0.63280913856323      1.56886208341530
  N   -0.00047948180915      0.59523894734609      2.70797757750643
  C   0.36745218007147     -1.59365837203027     -0.24956717867272
  N   0.28735352076182     -2.72397008001727      0.06359067334437
  N   1.84858044005963      0.36643901973483     -0.29938039351287
  H   2.51874052669876      0.10359721790797     -1.00965720872569
  H   2.18033453800512      0.03555919182150      0.59915690527147
