14
Coordinates from ORCA-job run
  C   -0.45598304937343      0.61605617861923      0.11188690304482
  C   0.55648931109019     -0.31933032511091     -0.62665510034515
  Br  -0.30470212975505      2.41713532296652     -0.58018508279311
  H   0.31899949489855     -0.23494368115683     -1.69114532528637
  N   -1.87719562553017      0.12237927715618     -0.18554748945572
  O   -2.62153947795854     -0.04929078203260      0.76878478943129
  O   -2.11836005379415     -0.06587320170835     -1.36922581608638
  C   -0.21185512506070      0.61549935850727      1.54207568340916
  N   0.09128977615764      0.59454105773628      2.67863287504260
  C   0.26314507301485     -1.69177835472585     -0.19078929088858
  N   0.01483916143694     -2.77480563911346      0.18973605285612
  N   1.94574130724897     -0.02595775342275     -0.41752687055013
  H   2.19369373447656      0.88055983841315     -0.79079664907222
  H   2.20543760314832     -0.08419129612789      0.55975532069367
