14
Coordinates from ORCA-job run
  C   -0.41600493905798      0.40048399701356      0.58320773672973
  C   0.41853944713842     -0.53993974306836     -0.31600632965084
  Br  0.68510037740705      1.73349212608906      1.42263109122314
  H   -0.29945449913662     -1.26049163054118     -0.72064544570137
  N   -1.44822130270887      1.05024814744255     -0.38013252416530
  O   -2.18796865638346      0.22552985447026     -0.89869566952098
  O   -1.42940938348130      2.25180082619592     -0.54750964095109
  C   -1.15545627453202     -0.34217803717636      1.58995656824157
  N   -1.73988128672170     -0.96753286593003      2.39678258272958
  C   1.39860070132028     -1.27109115572847      0.50427675043530
  N   2.22536611174345     -1.85315271685782      1.10340483635074
  N   0.96118730389033      0.22389796108065     -1.41482964466612
  H   1.79099265716959      0.73268135707357     -1.13548117455156
  H   1.19660974335281     -0.38474812006334     -2.18795913650279
