14
Coordinates from ORCA-job run
  C   -0.44447802475449      0.35745769508023      0.58829311414063
  C   0.45263289486801     -0.50469547970047     -0.32896362701572
  Br  0.56856068343376      1.72611316304125      1.47980131842230
  H   -0.21735330027344     -1.25357730592724     -0.76353270557127
  N   -1.50451556919355      0.97434197454926     -0.36488632149000
  O   -1.55461781955866      2.17952677864696     -0.49705093345298
  O   -2.19165401914178      0.12418149515793     -0.91404692513751
  C   -1.14782530307649     -0.45775569201017      1.56447423933787
  N   -1.70206430901610     -1.13927563447040      2.34677732111809
  C   1.46485884822867     -1.20163377872181      0.48221859553483
  N   2.31580382458163     -1.74953057216529      1.07957084520402
  N   0.96106252656941      0.32268025009058     -1.39782489605401
  H   1.24395920601584     -0.24840663483249     -2.18380597054850
  H   1.75463036131719      0.87257374126166     -1.09202405448776
