14
Coordinates from ORCA-job run
  C   -0.46502048245068      0.36390454150929      0.56838832625895
  C   0.48119710170353     -0.49623002905284     -0.30054844509407
  Br  0.46930484920137      1.83160679013769      1.38515029694928
  H   -0.14591009140830     -1.30254350955765     -0.69427114845299
  N   -1.55376606128502      0.86907641496948     -0.41660518960445
  O   -2.19053312194456     -0.04591486298107     -0.92056043249647
  O   -1.67041454696855      2.06096648431985     -0.61261016387722
  C   -1.12622360874891     -0.43461184071814      1.58695364587077
  N   -1.64702431617170     -1.10200296755334      2.40374903104799
  C   1.52726592222270     -1.09257760931273      0.54679519586054
  N   2.40554640507477     -1.56151175433249      1.17114930551472
  N   0.94688601516112      0.29897985768200     -1.41224186866198
  H   1.70906611006203      0.90657592611358     -1.13745818070140
  H   1.25962582555220     -0.29671744122362     -2.16789037261367
