14
Coordinates from ORCA-job run
  C   -0.42241185670823      0.38218476999277      0.59078634517653
  C   0.43626742280413     -0.52071341262363     -0.32439004006733
  Br  0.63450582543458      1.76215831227586      1.41038495311220
  H   -0.25617257947121     -1.27285891685421     -0.71588325672934
  N   -1.49982588908893      0.98448617035397     -0.35185924178833
  O   -1.53673169719361      2.18554179901040     -0.52085513096416
  O   -2.21407722879893      0.12786097932612     -0.85447474591956
  C   -1.10954736884738     -0.39188277234558      1.61092467751965
  N   -1.65106926816419     -1.04171834791637      2.42830701898758
  C   1.46291547820151     -1.20760729965505      0.47706632804248
  N   2.32503057706788     -1.75231856874547      1.06125272657313
  N   0.92429638698178      0.26642752339588     -1.43225564922624
  H   1.73641247582531      0.81068193412782     -1.16851966470503
  H   1.17040772195728     -0.33124217034250     -2.21048432001156
