14
Coordinates from ORCA-job run
  C   -0.45922261979355      0.35616184887798      0.57825335368182
  C   0.47178366809583     -0.49709903168272     -0.31322123797489
  Br  0.50207488206671      1.77887278133955      1.44161995585176
  H   -0.17019279276369     -1.27861267606991     -0.73225432775302
  N   -1.53338927385832      0.91373017048007     -0.39550149354472
  O   -1.62424059431450      2.11308516885474     -0.55606744317259
  O   -2.18737092566551      0.02782428046453     -0.92850474721888
  C   -1.14235195597508     -0.45779636520732      1.56985738709434
  N   -1.68156313473345     -1.13790491955950      2.36373997737946
  C   1.50332218600641     -1.13951609756174      0.51809551398835
  N   2.37089405328296     -1.64544487388591      1.12852622999419
  N   0.95710558377505      0.32134008421253     -1.39967597344697
  H   1.73111257109600      0.90386760690288     -1.10469201482087
  H   1.26103835278114     -0.25850797716517     -2.17117518005796
