14
Coordinates from ORCA-job run
  C   -0.50526196350718      0.66734024984568      0.14844898098432
  C   0.52591534099191     -0.19060096313748     -0.61972727230632
  Br  -0.48618283140813      2.48653129577230     -0.49378335932454
  H   0.30466593390020     -0.06393040786972     -1.68193545419916
  N   -1.90872306192218      0.10774728849160     -0.12480419715575
  O   -2.12271591785027     -0.20781445432851     -1.28668548390337
  O   -2.68049215335571      0.05096657906751      0.82066378221516
  C   -0.23468143363848      0.63710172549651      1.57530942245033
  N   0.07867876927892      0.58746964818516      2.70796967804425
  C   0.30078802408729     -1.60514227261442     -0.25975004823580
  N   0.17853168149446     -2.73004657153145      0.05901481734263
  N   1.85491133518632      0.29712979706296     -0.33660289959690
  H   2.50009997590366      0.01271553618555     -1.06152849631593
  H   2.19246630083919     -0.05046745062570      0.55341053000108
