14
Coordinates from ORCA-job run
  C   -0.52024987049171      0.65730695496821      0.14288827796243
  C   0.52548055434427     -0.18646445235228     -0.62094272101218
  Br  -0.55299989020912      2.46593713605916     -0.52788323094424
  H   0.29233930469821     -0.08196984368576     -1.68306038118582
  N   -1.91162904438411      0.05816849065843     -0.10900408271594
  O   -2.67317598304742     -0.00436356139553      0.84432527829489
  O   -2.12766149331160     -0.28000085946279     -1.26410695595279
  C   -0.23671412162737      0.65619242245096      1.56751168880943
  N   0.08731806470847      0.63006878781529      2.69794771656340
  C   0.33860893080481     -1.60074438692377     -0.23858079976110
  N   0.24604586228785     -2.72430728197470      0.09459200103605
  N   1.84421888393665      0.33851775988091     -0.35702944336653
  H   2.19679110244137      0.01504432192754      0.53625946902850
  H   2.49062769984971      0.05661451203434     -1.08191681675611
