14
Coordinates from ORCA-job run
  C   -0.48063555437083      0.59872852148032      0.10048620053059
  C   0.57031684155216     -0.30803568452836     -0.61917417851382
  Br  -0.39798201042774      2.39273879862964     -0.62157577567963
  H   0.33267247515503     -0.25203253226529     -1.68550600647552
  N   -1.88013519315918      0.04470282851501     -0.19293439023053
  O   -2.11026285483778     -0.17052303025231     -1.37420419213409
  O   -2.61970591164999     -0.14261161169429      0.76213931238585
  C   -0.24203433025839      0.63250048224584      1.53113920625792
  N   0.05660479952321      0.64290366031377      2.66899025536636
  C   0.33156903631357     -1.68332342061750     -0.15965083251189
  N   0.12769535831195     -2.76893877449883      0.23944395787055
  N   1.94636676027628      0.04437333792737     -0.41259152430824
  H   2.15825212955653      0.95382839482287     -0.80072158917593
  H   2.20527845401518      0.01368902992177      0.56615955661839
