14
Coordinates from ORCA-job run
  C   -0.39995752049647      0.32021709881855      0.58302381701107
  C   0.51205508572493     -0.57607286076820     -0.32845918369337
  Br  0.62377434986861      1.65209319534929      1.51162605939133
  H   -0.16703601472823     -1.32093232365772     -0.75870544563006
  N   -1.39454705640849      0.96916357094145     -0.40428169440443
  O   -1.30879808951532      2.16093733539423     -0.63999581769585
  O   -2.15169426939389      0.15682955719584     -0.92338559197674
  C   -1.16115481406546     -0.47930888219900      1.52521434190746
  N   -1.75481001693459     -1.16031308123633      2.27892339297121
  C   1.47436256739275     -1.27272954805627      0.53161149724294
  N   2.24938022209057     -1.82937855268730      1.21584224394311
  N   1.18231887519660      0.10091492436774     -1.39860798788788
  H   0.54477516460858      0.40937905740691     -2.11988209947914
  H   1.75333151666042      0.87020050913082     -1.07392353169964
