14
Coordinates from ORCA-job run
  C   -0.44448750586255      0.36699374618092      0.58275685835382
  C   0.43794132067131     -0.51940494299706     -0.32550861970261
  Br  0.60577761869574      1.66640962062669      1.53287498208934
  H   -0.25314649571339     -1.22654651813876     -0.79554899642756
  N   -1.44379489734716      1.05298236902421     -0.38770002528011
  O   -1.43277150953927      2.26170075391540     -0.49489315377145
  O   -2.15296650534661      0.24806923388222     -0.97579874952880
  C   -1.21597262303659     -0.43165130036812      1.52058125528390
  N   -1.82630094692910     -1.10007656670499      2.27179212753748
  C   1.39081164324409     -1.28103346290541      0.49920038172566
  N   2.19689516681070     -1.88269670188702      1.10700493029183
  N   1.01753024817404      0.30370502304604     -1.36098628558757
  H   1.29252049039484     -0.26425361083918     -2.15186205858008
  H   1.82896399578394      0.80580235716509     -1.02191264640385
