14
Coordinates from ORCA-job run
  C   -0.48431219621511      0.74277740435933      0.10760088111492
  C   0.77068191258696     -0.00584145021180     -0.38875826875026
  Br  -1.09635865067473      2.04830822529728     -1.18389048399142
  H   1.56525067688974      0.74868765747991     -0.38394296998357
  N   -1.63656258486088     -0.24548993953518      0.33623410860728
  O   -1.58488742719822     -1.28940085974965     -0.30092704888581
  O   -2.51397850798898      0.11372917901147      1.10438818264865
  C   -0.19599630218735      1.40134195886671      1.37185455756103
  N   0.08309395402406      1.95476124837884      2.37059906617153
  C   0.63918982350974     -0.48226762040491     -1.77556791800890
  N   0.63196998557274     -0.90103414168627     -2.87318105810156
  N   1.08799967014578     -1.02397425930660      0.58859853660595
  H   2.08656377947586     -1.15585707435505      0.67027595683118
  H   0.64834586692041     -1.90474032814408      0.35571645818098
