14
Coordinates from ORCA-job run
  C   -0.46923587063199      0.32420662926045      0.58954462647827
  C   0.46861030078420     -0.48427871029068     -0.33609300235241
  Br  0.50029537673678      1.64667780511394      1.59222473599573
  H   -0.17927983143702     -1.21174412593374     -0.83577597203319
  N   -1.49353788259270      0.98727311381234     -0.37160982691291
  O   -1.54460543266505      2.19763539424702     -0.44144512130274
  O   -2.15261233851257      0.16516366233644     -0.99316080371328
  C   -1.20622838426069     -0.54422735466651      1.49213127258060
  N   -1.78623776885473     -1.27036730298472      2.21318188546805
  C   1.45223160316622     -1.22053220974229      0.47549266632637
  N   2.28106257110711     -1.80011715275505      1.07412054446896
  N   1.01317658378949      0.40100970758229     -1.33845865025712
  H   1.32373354750050     -0.12499668743992     -2.14486674925193
  H   1.79362752587044      0.93429723146042     -0.97528560549440
