14
Coordinates from ORCA-job run
  C   -0.50783671238445      0.29957702964679      0.56928370310900
  C   0.50983873628725     -0.45722179480042     -0.31430030674204
  Br  0.34064302921978      1.69324660267476      1.58468695726258
  H   -0.07313869442455     -1.22970460557499     -0.82604729379489
  N   -1.54087857284391      0.88389420436083     -0.43365008635483
  O   -2.12364260524257      0.01349722623078     -1.06546380619056
  O   -1.67086994449722      2.08724675308963     -0.51852765422810
  C   -1.21817549795401     -0.60365905647635      1.45904893020446
  N   -1.77628299175503     -1.35506330093414      2.17146134563857
  C   1.51095108535366     -1.11983569361868      0.53816949738201
  N   2.35546287221430     -1.63741057020989      1.17074639725822
  N   1.02982767028423      0.45079162944954     -1.30996738305189
  H   1.40224898758284     -0.06336211774361     -2.09777675594753
  H   1.76185263815966      1.03700369390575     -0.92766354454499
