14
Coordinates from ORCA-job run
  C   -0.60816822052806      0.65417111761945     -0.01767893543078
  C   0.74519196176722      0.04017666988612     -0.43282987678296
  Br  -1.49076359929589      1.51438098111059     -1.51041271676764
  H   1.38903430943526      0.90112784282664     -0.64517537593660
  N   -1.55227619638378     -0.44020144410828      0.49967591132154
  O   -1.33288980029712     -1.57513478990143      0.09713877220090
  O   -2.45337797718302     -0.07393980602417      1.23642889432521
  C   -0.40310634066676      1.61845717906372      1.05158435608042
  N   -0.19339129179549      2.42576132400765      1.88004489200380
  C   0.65769411759734     -0.74896071258400     -1.67259991320236
  N   0.68886943273370     -1.40395919976887     -2.64732205034936
  N   1.27596196916941     -0.66564858697209      0.71349897266298
  H   0.99372357905080     -1.63727525273674      0.70633932652908
  H   2.28449805639640     -0.60895532241858      0.74330774334578
