14
Coordinates from ORCA-job run
  C   -0.49394323156005      0.67340458858509      0.15556726456801
  C   0.50404067246551     -0.20341895048773     -0.63377478685076
  Br  -0.47007241509565      2.48732377336802     -0.50229928383771
  H   0.25363645219356     -0.08419130244595     -1.69029828695928
  N   -1.91173794934151      0.13161323796894     -0.07292237158020
  O   -2.66137859152501      0.10640107601504      0.89165055932121
  O   -2.16061879083698     -0.19905428547323     -1.22373794273513
  C   -0.18367756610376      0.65172075081792      1.57458151127393
  N   0.16269711432066      0.60826151952631      2.69786539868493
  C   0.27724131915167     -1.61202180393685     -0.25184930099849
  N   0.16575643757935     -2.73170492648332      0.08793129971965
  N   1.84646356730504      0.27213803188948     -0.39497374740064
  H   2.20238073025952     -0.06346561855158      0.49261104732016
  H   2.46821225118765     -0.03700609079215     -1.13035136052569
