14
Coordinates from ORCA-job run
  C   -0.63464576710697      0.66239067017903      0.14972944534242
  C   0.64603410386013      0.14835160295523     -0.55973130491369
  Br  -1.70211683555303      1.70504958155092     -1.06679337948103
  H   1.15771823136204      1.04859175101473     -0.91477685663314
  N   -1.42284876101493     -0.57986209499429      0.61905871067524
  O   -1.11705767924837     -0.99020492044432      1.73305680756327
  O   -2.20048345779431     -1.08397624860812     -0.17367424177668
  C   -0.28144699429079      1.46158182007822      1.31023999484626
  N   0.00289676736968      2.16478902692991      2.20828129335202
  C   0.29188191281653     -0.66822921161001     -1.73641142979262
  N   0.10440716665196     -1.38130948046951     -2.65183211858475
  N   1.49726017699860     -0.50779744482684      0.40455113090200
  H   2.45637842369513     -0.52122348896466      0.08373034226469
  H   1.20102271225433     -1.45715156279031      0.59357160623602
