14
Coordinates from ORCA-job run
  C   -0.48433670111785      0.56665763176418      0.21070315607011
  C   0.56746882057718     -0.18440905891639     -0.66938103972865
  Br  -0.42623917438976      2.46136586547280     -0.17775272042964
  H   0.31922815013224      0.06211001031043     -1.70584542760285
  N   -1.88137718285173      0.05748527251288     -0.16634137018629
  O   -2.60810253362377     -0.31124328523625      0.74472075398338
  O   -2.12192520972919      0.05856610510928     -1.36500722500448
  C   -0.23244197234345      0.34492360170452      1.62220211477406
  N   0.07687868432716      0.15540968485441      2.74136485310022
  C   0.34435245962303     -1.62247779679070     -0.46593294516752
  N   0.15028604156857     -2.76384514981951     -0.26854729892084
  N   1.94228970701186      0.13844516356712     -0.41289860241245
  H   2.14296707037454      1.10519661963170     -0.63098004688685
  H   2.21095184044116     -0.06718466416446      0.54169579841178
