14
Coordinates from ORCA-job run
  C   -0.33937913454909      0.81014392034415      0.07505731231906
  C   0.85979505739832     -0.11287917262223     -0.37791010261588
  Br  -0.41767576867887      2.39297254470335     -1.00961565005620
  H   1.72111829242527      0.56177574216668     -0.42878084867386
  N   -1.63099265136161     -0.01777143467848     -0.06061323608307
  O   -1.74335392407485     -0.88505296471543      0.80156621601800
  O   -2.36619497237413      0.18679532500097     -1.00869604792945
  C   -0.16775378651117      1.16490042157911      1.47248818345158
  N   0.04818789829134      1.43918223452809      2.59577701544583
  C   0.57428721552189     -0.59514297780107     -1.73529606305667
  N   0.33115250933947     -1.00720322017316     -2.80767270368592
  N   1.19081090165988     -1.21094936851945      0.48210341347174
  H   1.53164162402993     -0.88876496427337      1.37907927702149
  H   0.40835673888363     -1.83700608553918      0.62251323437334
