14
Coordinates from ORCA-job run
  C   -0.65771376160344      0.63112037910889     -0.02752992096768
  C   0.70044719363906      0.03619596246379     -0.47644133061618
  Br  -1.62195858021244      1.43207619580384     -1.49729931928954
  H   1.31975873426499      0.89631087684815     -0.76188934435175
  N   -1.51264912654876     -0.49752949227663      0.55918296088283
  O   -2.03805224693427     -0.28795110823755      1.64142105003364
  O   -1.58674172640374     -1.50534364876411     -0.12544572032202
  C   -0.41132228235559      1.62627302080626      1.00412666027323
  N   -0.15689987847513      2.47543634659476      1.77657454898460
  C   0.59025982279791     -0.81359169600321     -1.66522261760410
  N   0.62136066094967     -1.49239971379762     -2.62306413228778
  N   1.23808038046816     -0.67354015951142      0.66976863434970
  H   2.03400351501817     -0.19652966740837      1.06824890262815
  H   1.48042729539544     -1.63052729562678      0.45656962828690
