14
Coordinates from ORCA-job run
  C   -0.35599679115886      0.34638669315112      0.59771432761784
  C   0.46494590914833     -0.60621630144556     -0.34418273765345
  Br  0.77910232397228      1.62880678230853      1.46418363670266
  H   -0.27115342110132     -1.31898110629367     -0.73310952376537
  N   -1.35669428136253      1.03896702969131     -0.35216600643521
  O   -2.18077903198683      0.26503373952100     -0.82601348908882
  O   -1.21249618492910      2.22031724568766     -0.61121607826453
  C   -1.11423305311994     -0.40412078759993      1.58180265840152
  N   -1.70504605350780     -1.04820348796999      2.36951005866129
  C   1.42809077830118     -1.34264200443109      0.48127088215251
  N   2.20411711951706     -1.92561136329711      1.14188794985223
  N   1.11801448863972      0.02391355523800     -1.45248099404917
  H   0.46406715870637      0.35073315730306     -2.15053192209246
  H   1.73706103888142      0.77061684813668     -1.16566876203902
