14
Coordinates from ORCA-job run
  C   -0.50420135610647      0.73698128386952      0.01595516658354
  C   0.72126983962036     -0.06526446414798     -0.46966931520447
  Br  -1.32037646572259      1.73950733813018     -1.42452855844330
  H   1.47479925842379      0.69317911049579     -0.71000508649670
  N   -1.57459153067484     -0.21324913361360      0.57224371446955
  O   -2.37806758824396      0.27302002490879      1.35122260937928
  O   -1.54302307531786     -1.36344298882606      0.15460807935950
  C   -0.10733483881802      1.64377627034985      1.08153132785166
  N   0.25606079892025      2.39507754055765      1.90925209033903
  C   0.45671204499670     -0.81520749168445     -1.70875788800067
  N   0.34421540375719     -1.44724765351960     -2.69264181771973
  N   1.19565946241565     -0.85698028762086      0.64430664120565
  H   0.77649452524655     -1.77753649396233      0.64440003874141
  H   2.20238352150325     -0.94361305493690      0.63108299793526
