14
Coordinates from ORCA-job run
  C   -0.52953108428786      0.72043145555784     -0.02642567163924
  C   0.70906054194545     -0.07749394426348     -0.48530269342495
  Br  -1.41998528961855      1.57920396114933     -1.51506014428924
  H   1.43003402345257      0.68352411074388     -0.80411935392961
  N   -1.54963106273239     -0.21700612150961      0.63510342836558
  O   -2.34150244768936      0.30123406142629      1.40529976438004
  O   -1.49467563716815     -1.39338878346860      0.30160869305294
  C   -0.13312008585956      1.72134040342601      0.95156785473252
  N   0.23306393652070      2.54713696518329      1.70380115279083
  C   0.43776075221293     -0.93145801651182     -1.65344117165109
  N   0.32076800700103     -1.65015969221312     -2.57524666368501
  N   1.23888927131765     -0.76507246654435      0.67251093932562
  H   2.24727458904794     -0.82132880263366      0.63609696533797
  H   0.85159448585760     -1.69596313034201      0.75360690063364
