14
Coordinates from ORCA-job run
  C   -0.47032857446222      0.32742999654373      0.58752922446110
  C   0.46825285399803     -0.48608257292220     -0.33224814377053
  Br  0.49894833415852      1.65168267759417      1.58794236274184
  H   -0.18034112180651     -1.21210255017616     -0.83296566887992
  N   -1.49082080892423      0.98885978857468     -0.37958315797855
  O   -1.54268324793018      2.19903127751274     -0.45094426851913
  O   -2.14931857086968      0.16548805468073     -0.99994620595865
  C   -1.21259721545968     -0.53518071479736      1.49129859928841
  N   -1.79779493948635     -1.25598794930243      2.21358886408613
  C   1.44772844812199     -1.22447988259541      0.48183536829495
  N   2.27783994954557     -1.80673602318781      1.07622596018613
  N   1.01952388931575      0.39535606995991     -1.33455622563060
  H   1.33131458143914     -0.13386262425073     -2.13850653947665
  H   1.80127642235986      0.92558445236614     -0.96967016884454
