14
Coordinates from ORCA-job run
  C   -0.50016681643689      0.67268394782182      0.13949156938014
  C   0.52998263420156     -0.19905354700928     -0.61364289203361
  Br  -0.45903401783233      2.48768015488165     -0.51427096266443
  H   0.32052479465878     -0.07621947790770     -1.67873000773662
  N   -1.90635941932681      0.12497846891788     -0.14292791548296
  O   -2.11259561498366     -0.19738105522308     -1.30436435146339
  O   -2.68778068243536      0.08381084174613      0.79540578657746
  C   -0.24292716482727      0.64983939313913      1.56886485474275
  N   0.05780700965786      0.60402271509541      2.70510516793795
  C   0.28864135790711     -1.60995556631448     -0.24941521055079
  N   0.15507760496305     -2.73295043082859      0.07146786065602
  N   1.86071047782260      0.27816342827703     -0.32048783802654
  H   2.51125397626779     -0.02287673869284     -1.03400331427359
  H   2.18386586036357     -0.06274213390310      0.57750725293761
