14
Coordinates from ORCA-job run
  C   -0.47011679134539      0.36628701172845      0.56346318768767
  C   0.47318674350707     -0.50459243242109     -0.29739903970351
  Br  0.48528253532848      1.78392715691599      1.44142865218678
  H   -0.16726056279449     -1.28089452740184     -0.72835178272911
  N   -1.51174692360796      0.92926637850634     -0.44210609706504
  O   -2.16219329350752      0.04712195415446     -0.98551868775887
  O   -1.58306194175571      2.12828084956170     -0.61417207398588
  C   -1.18760190941954     -0.43220447526486      1.54326047732737
  N   -1.75273678727325     -1.10043919265973      2.32921398838663
  C   1.47410420652762     -1.15438870438011      0.56514284821616
  N   2.31864843762811     -1.66587059663716      1.20261576168679
  N   0.99767098592859      0.30000936258235     -1.37601871148762
  H   1.31292402648165     -0.28926482189200     -2.13564483126134
  H   1.77190127430239      0.87376203720792     -1.06491369149989
