14
Coordinates from ORCA-job run
  C   -0.46416565671644      0.74872047622906      0.03315343856690
  C   0.84134061543406     -0.00911850909946     -0.43274797060690
  Br  -0.87185649998426      2.18869498587938     -1.17055391896689
  H   1.57293510216737      0.78683371534521     -0.60816632419841
  N   -1.60547963603199     -0.28446351073658      0.06660876094772
  O   -1.51670924995584     -1.07434196267091      1.00276738529059
  O   -2.42282296711589     -0.29027269055967     -0.83497205483652
  C   -0.26705413251408      1.25768350996856      1.37855413205860
  N   -0.03127201795745      1.66999052587776      2.45462805602135
  C   0.55457783817669     -0.65978667142706     -1.71759661784401
  N   0.31661359800290     -1.20717710590587     -2.72891187541452
  N   1.40506786131140     -0.95187913133758      0.48839957011864
  H   1.74059266654870     -0.49466348605487      1.32683885040449
  H   0.74923247863482     -1.68022014550796      0.73999856845897
