14
Coordinates from ORCA-job run
  C   -0.42545871019335      0.42531234398658      0.55681562611870
  C   0.44075415973465     -0.54271104834709     -0.28148735025582
  Br  0.62068360439989      1.87477349483155      1.26300505632649
  H   -0.24583394469513     -1.32926860863491     -0.61081263780028
  N   -1.50652787070480      0.94213389951434     -0.43159427605939
  O   -1.55046958226637      2.12518956981369     -0.69781609593517
  O   -2.21536480516341      0.04303542975961     -0.86240352748796
  C   -1.10820407834851     -0.26910078901059      1.63565698439073
  N   -1.64743630750927     -0.85712373686718      2.50005205514895
  C   1.47057464214508     -1.15359419182857      0.57550938971074
  N   2.33436742377453     -1.63788108578358      1.20833437000266
  N   0.92451447926832      0.15510624678647     -1.44946014068022
  H   1.17841725458174     -0.50257430864491     -2.17514583096047
  H   1.73098373497662      0.72670278442458     -1.22965362251899
