14
Coordinates from ORCA-job run
  C   -0.52109394547863      0.61473634018434      0.27211176793684
  C   0.51450391503329     -0.06317000354243     -0.65386687195109
  Br  -0.56582211240258      2.51839191146844     -0.03959896976638
  H   0.26270580518470      0.23730146656892     -1.67341112503817
  N   -1.91506206573892      0.06973925567564     -0.06961786628099
  O   -2.66279446982851     -0.17486612191904      0.86526560146307
  O   -2.14805311603083     -0.04318748907423     -1.26469681126402
  C   -0.21589989589373      0.34238280471823      1.66584034651569
  N   0.12828895575407      0.09978990149545      2.76411841414634
  C   0.34162444771727     -1.52509604054831     -0.53748810107098
  N   0.26921426282145     -2.69127389318763     -0.40713961781896
  N   1.83579586055830      0.41158131463807     -0.31685710535750
  H   2.46918771753559      0.28209264744679     -1.09446214666927
  H   2.20740464076853     -0.07642209392425      0.48980248515541
