14
Coordinates from ORCA-job run
  C   -0.56392561422515      0.69328671917725     -0.00417225337983
  C   0.68805094094763     -0.04837127385566     -0.51780912401137
  Br  -1.56351964511996      1.49707500605400     -1.45408289484656
  H   1.35442643933445      0.74410269859055     -0.87664811153452
  N   -1.50624156295372     -0.28580576174081      0.70995221408860
  O   -2.28880997894199      0.20144060982138      1.50947691919428
  O   -1.40780766715615     -1.46181690977918      0.38495881757163
  C   -0.17032337066319      1.71987690223669      0.94784457473956
  N   0.18998674343123      2.57057420489320      1.67472916233143
  C   0.40177646166612     -0.92423151222546     -1.66587700112108
  N   0.27528428024665     -1.65328912363808     -2.57828074682092
  N   1.30677698527632     -0.69951328252861      0.61667444630305
  H   2.31370281264731     -0.70698817135949      0.53113934812182
  H   0.96962317551045     -1.64734010564577      0.72309464936391
