14
Coordinates from ORCA-job run
  C   -0.50215935311334      0.66838859934470      0.15546620194174
  C   0.52682613784610     -0.18533735713807     -0.61983306980828
  Br  -0.47291400614198      2.49492430734022     -0.46529071441894
  H   0.30846490146259     -0.04552283175256     -1.68101195021453
  N   -1.90761659006628      0.11817174962879     -0.12927798291084
  O   -2.68215902041342      0.05079881836449      0.81312336539145
  O   -2.11948503833786     -0.17990947974411     -1.29610241282983
  C   -0.23686199875309      0.62021462132532      1.58280214078683
  N   0.06994367438532      0.55502108390256      2.71645092507346
  C   0.29466310373338     -1.60311916607347     -0.27713441987848
  N   0.16916979698592     -2.73187842057371      0.02627675473459
  N   1.85757907357702      0.29322610043725     -0.32923193554360
  H   2.19090718213402     -0.06393584384128      0.55864539056335
  H   2.50264213670160      0.00995781877986     -1.05488229288691
