14
Coordinates from ORCA-job run
  C   -0.52988667844363      0.60777385780240     -0.22082804128611
  C   0.66035213831428     -0.32664753467868     -0.59259390959174
  Br  -1.64936384870147      0.96851483380691     -1.75692412189953
  H   1.22085782602321      0.23886718511542     -1.34707501118993
  N   -1.42415210665519     -0.00982033672474      0.86848539962389
  O   -1.27113803238900     -1.20419524080362      1.09044304782128
  O   -2.21303057299223      0.75074758991076      1.40615800905210
  C   -0.00578151038267      1.85655343566595      0.31085541876733
  N   0.50745978080007      2.83205449624406      0.72153603688172
  C   0.18231005011085     -1.55119139677936     -1.24706897827304
  N   -0.15539364850021     -2.53217119316274     -1.79582248109921
  N   1.55511927429818     -0.64237284652678      0.48685098049188
  H   2.02227987191502      0.17646325374954      0.85249204572098
  H   1.09936745660278     -1.16457610361912      1.22149160498039
