14
Coordinates from ORCA-job run
  C   -0.50276770558092      0.73752953269089     -0.03701046960726
  C   0.77786846021036     -0.05630391604245     -0.36960680578376
  Br  -1.11889682413417      1.76970767258492     -1.55436855151835
  H   1.55560641235276      0.70620607589159     -0.49010139237161
  N   -1.63725720570264     -0.22124186760817      0.35124994275724
  O   -1.54948624997556     -1.36271349487848     -0.08196084073582
  O   -2.53817987261404      0.25076444861713      1.02543724721466
  C   -0.25313329030997      1.62311949908831      1.08940478910689
  N   -0.00037443401015      2.35990155362832      1.96982445042235
  C   0.68377352366753     -0.78174719072947     -1.64726378816312
  N   0.70471697241369     -1.40112458876767     -2.64526087597010
  N   1.09928894024862     -0.87078289791008      0.78213642068629
  H   0.68095734716135     -1.78887426106961      0.70890168347801
  H   2.09888392627313     -0.96344056549523      0.89861819048458
