14
Coordinates from ORCA-job run
  C   -0.37626791290854      0.35376252178987      0.58023796410298
  C   0.50179789004411     -0.59300109492993     -0.31442918428313
  Br  0.67779755370125      1.74588983076636      1.37666555691138
  H   -0.18879703108340     -1.36876898498465     -0.66421762231633
  N   -1.41830798115251      0.93430722066644     -0.40036460252445
  O   -2.19054680562844      0.08695643375312     -0.83397839789888
  O   -1.35188945622680      2.10914408243444     -0.71408608499829
  C   -1.08791902022006     -0.38989240773940      1.60355176097190
  N   -1.63875699488022     -1.02585503901164      2.42599940173686
  C   1.50902545498185     -1.22629211266511      0.54341049184152
  N   2.31927305111385     -1.73086419909256      1.22718402875206
  N   1.11423694736903      0.01936155005260     -1.45518244091617
  H   1.68864390924184      0.81483626756375     -1.20891686173830
  H   0.44171039564804      0.27041593139671     -2.16687400964115
