14
Coordinates from ORCA-job run
  C   -0.44514024322207      0.37825107252237      0.57576167504640
  C   0.45850901884558     -0.51178794187824     -0.30835844672359
  Br  0.55217583363581      1.80577699271208      1.38909399256559
  H   -0.20263092448409     -1.29191082639630     -0.69930740600019
  N   -1.52439393536241      0.92910778905461     -0.39561092297679
  O   -2.20294162307005      0.04139371087040     -0.89389836842198
  O   -1.59547144343944      2.12520345844461     -0.58773044175685
  C   -1.12409947472132     -0.40027017146986      1.59797628133886
  N   -1.65647850169007     -1.05335909238507      2.41877867696946
  C   1.49064840166309     -1.15180814172978      0.52386939224826
  N   2.35622490153285     -1.65703150592023      1.13762488078474
  N   0.94187416357863      0.27198063828380     -1.42067704615865
  H   1.73315567094112      0.84426199308700     -1.15296314385263
  H   1.21756815579236     -0.32980797519538     -2.18555912306263
