14
Coordinates from ORCA-job run
  C   -0.62336923402739      0.64008471790414      0.01043274973230
  C   0.70539496277203      0.04027764888781     -0.49567063656386
  Br  -1.64752931283888      1.42807432303708     -1.43062600229762
  H   1.30828461587476      0.90643588036102     -0.79073057193208
  N   -1.49472691204728     -0.45491244377970      0.64166136671121
  O   -2.34200953686581     -0.08152287804678      1.43644579041405
  O   -1.28122540914109     -1.59877676998452      0.26180405953011
  C   -0.35230058687609      1.64520191382553      1.02615446880487
  N   -0.09197443281618      2.48420759588465      1.80725178968939
  C   0.53387901659010     -0.79473807397835     -1.69604827766785
  N   0.50049760226473     -1.48255260519728     -2.64778828431008
  N   1.34557577404914     -0.61254008302722      0.62552337251636
  H   1.08910640818499     -1.58978588347642      0.67511415543303
  H   2.35139704487695     -0.52945334240999      0.57347601994018
