16

C	0.0	0.0	0.0
C	-0.510879	-0.414026	-1.415559
Cl	1.790977	0.0	0.0
H	-1.613935	-0.418906	-1.286211
N	-0.475761	1.291913	0.39114
H	-0.245724	1.988137	-0.309576
H	-1.494187	1.225389	0.46821
C	-0.445285	-1.038445	1.017874
H	-0.102384	-0.711281	1.999742
H	-1.53486	-1.09758	1.00995
H	-0.011875	-2.013851	0.791343
C	-0.059942	-1.738681	-1.837265
N	0.28377	-2.809121	-2.177525
C	-0.156838	0.586798	-2.419934
N	0.094726	1.416963	-3.211896
Cl	-3.579792	0.0	0.0
