16

C	0.0	0.0	0.0
C	-0.229947	-0.130807	-1.568717
Cl	1.838102	0.0	0.0
H	0.519175	0.538742	-2.008766
N	-0.510637	1.206039	0.54495
H	-1.531541	1.093474	0.583658
H	-0.293726	2.001381	-0.05005
C	-0.479767	-1.19058	0.792342
H	-1.569165	-1.230245	0.718099
H	-0.192589	-1.041347	1.83479
H	-0.038938	-2.115911	0.424257
C	-1.485502	0.337013	-2.178925
N	-2.243674	0.800471	-2.949257
C	0.091694	-1.473526	-2.059878
N	0.364774	-2.546519	-2.451913
Cl	-3.588443	0.0	0.0
