16

C	0.0	0.0	0.0
C	-0.317269	-0.214341	-1.549329
Cl	1.847176	0.0	0.0
H	0.565364	-0.688709	-1.989427
N	-0.502603	1.169747	0.61095
H	-0.323369	1.990592	0.043188
H	-1.52003	1.040102	0.682946
C	-0.413045	-1.23272	0.781063
H	-0.044131	-1.130777	1.80247
H	-1.503437	-1.289681	0.782703
H	0.007118	-2.135373	0.333419
C	-0.462659	1.076855	-2.218341
N	-0.50352	2.131445	-2.733209
C	-1.409185	-1.137123	-1.893464
N	-2.020399	-2.010027	-2.391047
Cl	-3.500151	0.0	0.0
