16

C	0.0	0.0	0.0
C	-0.29572	-0.040236	-1.572457
Cl	1.845486	0.0	0.0
H	0.582852	-0.494706	-2.041657
N	-0.503908	1.101169	0.728185
H	-1.525328	0.98207	0.759112
H	-0.291099	1.979845	0.268821
C	-0.433511	-1.307859	0.630062
H	-0.085715	-1.324271	1.663424
H	-0.00902	-2.157901	0.092068
H	-1.524466	-1.351353	0.602503
C	-0.381372	1.320859	-2.0991
N	-0.383883	2.429322	-2.488292
C	-1.406374	-0.881385	-2.04023
N	-2.067054	-1.67682	-2.600405
Cl	-3.531724	0.0	0.0
