16

C	0.0	0.0	0.0
C	-0.442686	-0.146225	-1.511115
Cl	1.789233	0.0	0.0
H	0.478127	-0.170714	-2.10571
N	-0.458467	1.274473	0.480769
H	-1.484804	1.226974	0.453398
H	-0.179793	1.368326	1.452747
C	-0.413673	-1.201105	0.843459
H	-1.503676	-1.249525	0.852555
H	0.006214	-2.132997	0.459202
H	-0.044161	-1.047105	1.860771
C	-1.181738	1.003425	-2.045899
N	-1.632641	1.916496	-2.631101
C	-1.119047	-1.410785	-1.813981
N	-1.508919	-2.472923	-2.125214
Cl	-3.453457	0.0	0.0
