16

C	0.0	0.0	0.0
C	-0.4062	-0.285459	-1.527423
Cl	1.795997	0.0	0.0
H	0.516426	-0.493563	-2.080554
N	-0.479526	1.222211	0.55123
H	-1.501102	1.127148	0.602269
H	-0.265493	2.005127	-0.057322
C	-0.419235	-1.158298	0.89137
H	0.005027	-2.098387	0.534811
H	-0.049032	-0.953553	1.896739
H	-1.508291	-1.218743	0.899726
C	-0.974385	0.906902	-2.155181
N	-1.286883	1.900406	-2.697586
C	-1.237629	-1.473895	-1.735409
N	-1.720086	-2.512791	-1.994845
Cl	-3.472671	0.0	0.0
