16

C	0.0	0.0	0.0
C	-0.445698	0.46925	-1.441955
Cl	1.789812	0.0	0.0
H	0.472033	0.588621	-2.029496
N	-0.472276	0.953871	0.961254
H	-0.216904	0.626963	1.887981
H	-1.49828	0.924635	0.894753
C	-0.399721	-1.44869	0.269365
H	-0.011807	-1.735137	1.250681
H	0.014944	-2.129602	-0.4771
H	-1.488974	-1.508297	0.271659
C	-1.077696	1.792916	-1.472664
N	-1.460688	2.89323	-1.617992
C	-1.226902	-0.523753	-2.189882
N	-1.667574	-1.335794	-2.914414
Cl	-3.450734	0.0	0.0
