16

C	0.0	0.0	0.0
C	-0.516484	0.20453	-1.459546
Cl	1.791532	0.0	0.0
H	-1.619751	0.148889	-1.345422
N	-0.469069	1.020416	0.890204
H	-0.247362	1.941879	0.527867
H	-1.486817	0.925099	0.938165
C	-0.447597	-1.360324	0.510876
H	-1.538357	-1.393682	0.509914
H	-0.078461	-1.472232	1.531259
H	-0.043553	-2.16377	-0.107944
C	-0.066043	-0.830463	-2.387215
N	0.292884	-1.676838	-3.118366
C	-0.160977	1.530471	-1.961019
N	0.118979	2.611984	-2.322855
Cl	-3.589701	0.0	0.0
