16

C	-0.446661	0.032895	-1.463
C	0.0	0.0	0.0
Cl	0.181381	-1.41789	-2.331712
H	1.09566	0.0	0.0
H	0.06488	0.874689	-1.936221
C	-1.94559	0.111907	-1.696865
H	-2.444736	-0.772927	-1.296423
H	-2.17031	0.173311	-2.76468
H	-2.349241	0.998818	-1.200659
C	-0.459908	-1.215578	0.80138
H	-0.059727	-2.117691	0.336824
H	-0.032002	-1.149387	1.804408
H	-1.548687	-1.306437	0.891683
C	-0.462919	1.229021	0.62186
N	-0.854077	2.222748	1.11811
F	2.568087	0.0	0.0
