16

C	-0.17828	-0.010317	-1.505922
C	0.0	0.0	0.0
Cl	-1.924965	0.015364	-2.041814
H	1.098316	0.0	0.0
H	0.201531	-0.972706	-1.856359
C	0.607247	1.111678	-2.150362
H	0.184814	2.083192	-1.88295
H	1.616402	1.019853	-1.730716
H	0.621739	1.018459	-3.238898
C	-0.525916	-1.242432	0.703778
H	-0.287743	-1.199972	1.76915
H	-1.607592	-1.363329	0.587855
H	-0.022413	-2.119756	0.287963
C	-0.50739	1.222281	0.594836
N	-0.921876	2.200725	1.099729
F	2.61099	0.0	0.0
