16

C	-0.339738	-0.16438	-1.487351
C	0.0	0.0	0.0
Cl	-0.189084	1.416565	-2.345872
H	1.096394	0.0	0.0
H	-1.383422	-0.460272	-1.639134
C	0.645016	-1.146861	-2.106897
H	0.61439	-1.107146	-3.197606
H	0.395404	-2.165649	-1.79561
H	1.638083	-0.8899	-1.719382
C	-0.392889	-1.262197	0.779802
H	0.27891	-2.074545	0.499238
H	-1.432833	-1.566993	0.607404
H	-0.257676	-1.087762	1.84923
C	-0.614028	1.166025	0.601414
N	-1.143317	2.076212	1.126364
F	2.627345	0.0	0.0
