16

C	-0.182663	-0.011171	-1.505341
C	0.0	0.0	0.0
Cl	-1.931536	0.004835	-2.035443
H	1.098374	0.0	0.0
H	0.20209	-0.971402	-1.8567
C	0.594707	1.115982	-2.151628
H	0.608798	1.023794	-3.239562
H	1.604761	1.030193	-1.734114
H	0.166341	2.084819	-1.883824
C	-0.522751	-1.242572	0.706172
H	-0.028431	-2.120874	0.280631
H	-0.268554	-1.203734	1.768498
H	-1.607155	-1.359064	0.605475
C	-0.506803	1.221859	0.596703
N	-0.91966	2.199572	1.104664
F	2.608617	0.0	0.0
