16

C	-0.458156	-0.002863	-1.458966
C	0.0	0.0	0.0
Cl	0.206194	-1.448323	-2.310511
H	1.09575	0.0	0.0
H	0.022607	0.845469	-1.951193
C	-1.96084	0.025733	-1.679063
H	-2.426744	-0.871257	-1.265825
H	-2.198072	0.069895	-2.744812
H	-2.387845	0.903831	-1.186317
C	-0.451188	-1.199907	0.830319
H	-1.536797	-1.272093	0.962078
H	-0.083548	-2.113464	0.360422
H	0.016207	-1.129646	1.814716
C	-0.465024	1.238938	0.59902
N	-0.856992	2.237498	1.084741
F	2.567703	0.0	0.0
