18

C	0.0	0.0	0.0
C	-0.415582	0.174091	-1.498718
Cl	1.798974	0.0	0.0
H	-1.510896	0.11883	-1.505992
C	-0.397187	1.162638	0.813206
N	-0.549103	2.157573	1.425748
N	-0.411638	-1.279967	0.528927
H	-1.434627	-1.318331	0.557897
H	-0.056081	-1.384266	1.46757
C	0.119622	-0.96513	-2.367438
H	1.193979	-0.871202	-2.547426
H	-0.393444	-0.92857	-3.335193
H	-0.076999	-1.925812	-1.897047
C	-0.006712	1.536789	-2.052539
H	1.080819	1.645904	-2.093105
H	-0.418203	2.359413	-1.458848
H	-0.394042	1.640167	-3.070725
Cl	-3.6329	0.0	0.0
