18

C	0.0	0.0	0.0
C	-0.346327	0.178186	-1.510256
Cl	1.858638	0.0	0.0
H	0.430575	0.829412	-1.921522
C	-0.322165	1.226728	0.743555
N	-0.529112	2.228272	1.320946
N	-0.544236	-1.117201	0.695609
H	-0.516549	-1.941421	0.109226
H	-1.519611	-0.918185	0.923265
C	-1.696115	0.848914	-1.729547
H	-1.687707	1.881269	-1.373279
H	-1.909843	0.867778	-2.803241
H	-2.525977	0.344872	-1.229008
C	-0.278395	-1.166171	-2.22939
H	-0.307149	-0.998741	-3.308931
H	0.640243	-1.715411	-2.002106
H	-1.146074	-1.782603	-1.978168
Cl	-4.499499	0.0	0.0
