18

C	0.0	0.0	0.0
C	-0.52358	0.264427	-1.416419
Cl	1.854321	0.0	0.0
H	-1.607277	0.362817	-1.240952
C	-0.337663	1.120321	0.891008
N	-0.52389	2.033371	1.605409
N	-0.50958	-1.193236	0.532992
H	-0.187146	-2.019522	0.054372
H	-0.425014	-1.271896	1.534486
C	-0.28931	-0.933445	-2.329982
H	0.770142	-1.208362	-2.371139
H	-0.882933	-1.792205	-2.012174
H	-0.610411	-0.681952	-3.344176
C	0.03441	1.547642	-2.020421
H	1.092311	1.443471	-2.276934
H	-0.073563	2.395086	-1.338927
H	-0.519987	1.784472	-2.932286
Cl	-3.875112	0.0	0.0
