18

C	0.0	0.0	0.0
C	-0.49648	-0.12178	-1.457151
Cl	1.801626	0.0	0.0
H	-1.581623	-0.003287	-1.346728
C	-0.351203	1.336502	0.524941
N	-0.559062	2.413171	0.944985
N	-0.493691	-0.981006	0.928092
H	-1.514449	-0.860013	0.935672
H	-0.291734	-1.904235	0.56128
C	-0.226919	-1.504456	-2.04043
H	-0.777025	-2.281232	-1.505762
H	-0.574044	-1.529355	-3.077008
H	0.839975	-1.748373	-2.034412
C	0.034817	0.976939	-2.370594
H	-0.107533	1.967324	-1.932024
H	-0.51455	0.953948	-3.316352
H	1.097917	0.843683	-2.588543
Cl	-3.596598	0.0	0.0
