16

C	0.0	0.0	0.0
C	-0.52446	-0.196538	-1.451343
Br	1.967063	0.0	0.0
H	-1.612921	-0.291081	-1.34541
C	-0.331094	1.385877	0.394022
N	-0.550656	2.498278	0.708096
N	-0.492698	-1.02597	0.855226
H	-1.515064	-1.037269	0.73614
H	-0.290219	-0.796535	1.822115
N	-0.032001	-1.521948	-1.970094
O	-0.700694	-2.513944	-1.694013
O	1.001881	-1.517316	-2.635968
N	-0.206942	0.821119	-2.393074
H	-0.83378	1.603616	-2.263964
H	0.756765	1.120432	-2.323392
Br	-3.658926	0.0	0.0
