16

C	0.0	0.0	0.0
C	-0.540203	-0.191974	-1.443297
Br	1.971638	0.0	0.0
H	-1.617592	-0.356584	-1.315617
C	-0.336206	1.376017	0.418522
N	-0.547251	2.481035	0.7636
N	-0.471961	-1.040516	0.852432
H	-0.251402	-0.824754	1.818594
H	-1.494851	-1.065117	0.752108
N	0.023309	-1.467661	-2.011591
O	1.022324	-1.376835	-2.722601
O	-0.559103	-2.511113	-1.726641
N	-0.317014	0.871611	-2.360175
H	0.620098	1.24715	-2.291975
H	-1.004011	1.596457	-2.199287
Br	-3.648427	0.0	0.0
