12

C	0.0	0.0	0.0
C	-0.467563	-0.128178	-1.439448
F	1.353049	0.0	0.0
H	-1.496869	0.231086	-1.513267
H	-0.410082	-0.757261	0.661504
H	-0.487591	-1.193865	-1.68656
N	-0.375336	1.331864	0.596536
O	-0.340407	2.30369	-0.152803
O	-0.569846	1.349923	1.807158
C	0.44149	0.53661	-2.37171
N	1.203967	1.020176	-3.121083
Cl	-3.311445	0.0	0.0
