12

C	0.0	0.0	0.0
C	-0.548047	0.192527	-1.390391
F	1.357618	0.0	0.0
H	-1.646936	0.16538	-1.293856
H	-0.385374	-0.884475	0.501584
H	-0.237574	1.169229	-1.766215
N	-0.369313	1.171391	0.883266
O	-0.44108	0.931753	2.083907
O	-0.44913	2.278123	0.359973
C	-0.079968	-0.860566	-2.282325
N	0.286418	-1.697252	-3.019891
Cl	-3.456153	0.0	0.0
