12

C	0.0	0.0	0.0
C	-0.54165	0.068865	-1.408285
F	1.348882	0.0	0.0
H	-1.609517	0.320269	-1.335005
H	-0.395053	-0.844514	0.558815
H	-0.482625	-0.935658	-1.83774
N	-0.362589	1.230052	0.803356
O	-0.559755	2.27675	0.19435
O	-0.317097	1.09321	2.022931
C	0.201541	0.986859	-2.265477
N	0.799521	1.678535	-3.00182
Cl	-3.425928	0.0	0.0
