12

C	0.0	0.0	0.0
C	-0.548692	-0.105089	-1.400697
F	1.348395	0.0	0.0
H	-0.22672	0.76425	-1.976879
H	-0.387095	-0.761228	0.674117
H	-1.648155	-0.102724	-1.30521
N	-0.37697	1.329147	0.618737
O	-0.569473	1.330964	1.82945
O	-0.348836	2.314145	-0.114126
C	-0.075608	-1.329326	-2.033425
N	0.311571	-2.308905	-2.551388
Cl	-3.469074	0.0	0.0
