12

C	0.0	0.0	0.0
C	-0.536544	0.065596	-1.406371
F	1.35752	0.0	0.0
H	-0.209279	0.996493	-1.871727
H	-0.384938	-0.83849	0.575825
H	-1.636564	0.058066	-1.32308
N	-0.370443	1.242245	0.778139
O	-0.449738	1.104486	1.994329
O	-0.441407	2.300847	0.161507
C	-0.056851	-1.074788	-2.175644
N	0.33614	-1.989131	-2.797072
Cl	-3.448584	0.0	0.0
