12

C	0.0	0.0	0.0
C	-0.25209	-0.082961	-1.512923
F	1.357444	0.0	0.0
H	0.1246	0.86368	-1.908146
H	-0.422829	-0.77866	0.623771
H	0.455063	-0.852997	-1.841222
N	-0.369501	1.319571	0.622121
O	-0.396124	2.309431	-0.100156
O	-0.463282	1.312428	1.844428
C	-1.505882	-0.38471	-2.20295
N	-2.205834	-0.68316	-3.101544
Cl	-3.090143	0.0	0.0
