12

C	0.0	0.0	0.0
C	-0.546382	0.121542	-1.401759
F	1.348964	0.0	0.0
H	-1.613777	0.370348	-1.306021
H	-0.398925	-0.862161	0.530141
H	-0.496255	-0.868552	-1.865162
N	-0.351954	1.196088	0.856553
O	-0.472031	2.283268	0.302496
O	-0.349876	0.9917	2.066315
C	0.194097	1.061492	-2.234759
N	0.790209	1.76789	-2.956758
Cl	-3.431332	0.0	0.0
