12

C	0.0	0.0	0.0
C	-0.243796	0.190386	-1.50198
F	1.357418	0.0	0.0
H	0.274249	1.12265	-1.739089
H	-0.416744	-0.883199	0.469407
H	0.351284	-0.609945	-1.954624
N	-0.380045	1.179074	0.848002
O	-0.373703	2.284471	0.317038
O	-0.519411	0.948935	2.044698
C	-1.51341	0.21438	-2.226423
N	-2.210261	0.266449	-3.173911
Cl	-3.090605	0.0	0.0
