12

C	0.0	0.0	0.0
C	-0.535484	0.143669	-1.405373
F	1.348762	0.0	0.0
H	-1.600565	0.401498	-1.324074
H	-0.398462	-0.872037	0.512716
H	-0.484547	-0.839717	-1.882502
N	-0.36332	1.186342	0.865407
O	-0.559362	2.262138	0.31217
O	-0.317632	0.985896	2.075529
C	0.221587	1.093381	-2.213364
N	0.832431	1.811208	-2.912403
Cl	-3.416463	0.0	0.0
