14
Coordinates from ORCA-job run
  C   -0.97263400561410      0.25670700673931     -0.32774091259870
  C   0.47096646617166     -0.21256560114437     -0.34141228596711
  F   -1.64454221320247     -0.21380266520887     -1.41090028951978
  H   0.45369820878754     -1.26985562780535     -0.63318539144227
  H   -1.05982160163771      1.34128160841774     -0.26975641223295
  N   -1.67875099973297     -0.28769633993526      0.88387831059606
  O   -1.57190174994037     -1.49881188768654      1.07396411160278
  O   -2.31500896923143      0.50252233070422      1.57474495661682
  N   1.03234857446160      0.03756588009552      0.98533767687226
  H   0.72687008776051     -0.67066461282280      1.64378704849081
  H   2.04160636950440     -0.01834949251996      0.92695064484896
  N   1.14119187227352      0.53242252838201     -1.37941693089986
  H   1.97151611143945      0.05248689763538     -1.69789421303225
  H   1.40246184896038      1.44675997514897     -1.02835631333477
