14
Coordinates from ORCA-job run
  C   -0.88487315690221     -0.45987775262799     -0.16908576091033
  C   0.51873906944662     -0.04609990899242      0.22330517126336
  F   -1.24169209301351     -1.60020552923731      0.49638123721843
  H   0.49599101051605      0.14005775186324      1.30516474295236
  H   -0.99996325891231     -0.61032121404169     -1.24210071817748
  N   -1.84390955511293      0.62142661763418      0.22842818258426
  O   -1.94300539781202      0.84330837260135      1.43080820401787
  O   -2.44019066189085      1.19508692606017     -0.67685758859046
  N   0.80310270348387      1.20229382416262     -0.43890764738613
  H   1.10884445052060      1.01900807732194     -1.38744460606010
  H   1.52256331194487      1.72269046983463      0.04261057926015
  N   1.40764001162147     -1.12873569402743     -0.18526413993092
  H   1.14223405826440     -1.99209735654279      0.27598907326835
  H   2.35451950784594     -0.90753458400850      0.09997327049064
