14
Coordinates from ORCA-job run
  C   -0.91180149090570     -0.12327244384407     -0.34885616598190
  C   0.56016318580772      0.26832985001293     -0.15064009268622
  F   -1.03285078687240     -1.45456406994936     -0.54864666585762
  H   0.57084888882307      1.29629177960834      0.23822267756823
  H   -1.40591392129810      0.41865679288004     -1.15699567669452
  N   -1.65274635822419      0.24418098814144      0.90782902134910
  O   -1.90717258582430     -0.64095161484035      1.71500641214847
  O   -1.88233267054359      1.44435764353563      1.03240111460473
  N   1.21525926396884      0.09868132740352     -1.43416381649288
  H   2.21428091732433      0.14221840709139     -1.27585744842786
  H   0.95711011353852      0.83768014381090     -2.07683867856010
  N   1.24925155589682     -0.57327145404672      0.79644181874948
  H   0.93203713944809     -0.41368005776046      1.74348854589247
  H   1.09286674886089     -1.54565729204322      0.55860895438860
