14
Coordinates from ORCA-job run
  C   -0.96318704565400      0.00662180957777     -0.38515669823914
  C   0.47808470499901      0.37960765006774     -0.09707782279881
  F   -1.01813794108980     -1.27118492084393     -0.85765838165865
  H   0.47149397197519      1.40628765228842      0.27527225716699
  H   -1.43806778594873      0.68102999983026     -1.09642291001483
  N   -1.75493791276349      0.08641807956508      0.89180033798104
  O   -1.87176392020742      1.22563390403455      1.33062794603300
  O   -2.19656365799246     -0.94283281054405      1.37601624139011
  N   1.16666370235209      0.37586840159722     -1.37982512610314
  H   2.10375913430639      0.74349685582114     -1.27432629513014
  H   1.23848681576468     -0.57206202761390     -1.73097354745825
  N   0.94241915573498     -0.47624904409847      0.97884916102194
  H   0.97831458350309     -1.44320103411405      0.67928493012629
  H   1.86343619502046     -0.19843451556777      1.29058990768357
