14
Coordinates from ORCA-job run
  C   -0.83922284957524      0.34614625807993     -0.25715968775198
  C   0.54719343129335     -0.26965858758484     -0.25538063897865
  F   -1.46179212400627      0.11085927725512     -1.45384920774021
  H   0.43947387471575     -1.31972079157062     -0.55399563122305
  H   -0.81630319801086      1.41664616611811     -0.05411492697877
  N   -1.71709850510151     -0.26396005468757      0.80147586968955
  O   -2.49111529140369      0.48795990255904      1.38711283891908
  O   -1.61156955531370     -1.47825334757109      0.97321106620874
  N   1.10289456578433     -0.06577663320253      1.07043571312379
  H   0.74661429051949     -0.76223735853318      1.71366264983718
  H   2.10588184898262     -0.18997370479346      1.00043617073672
  N   1.42775469262730      0.37561733258151     -1.20571320759662
  H   1.09433449112227      0.24072329511579     -2.15146366588393
  H   1.47295432836618      1.37062824623378     -1.01365734236184
