14
Coordinates from ORCA-job run
  C   -0.89191124561655      0.08507413880676     -0.32500679470702
  C   0.58376891230391      0.31332705418795     -0.01537392128453
  F   -1.06080940965371     -1.14524556919988     -0.88787108914504
  H   0.66426122407150      1.30659183146756      0.43343782828730
  H   -1.31241410595434      0.84392663277326     -0.98619160733300
  N   -1.68479179840962      0.15187528374005      0.95138873778180
  O   -1.72742311974004      1.27456431170353      1.44470251948220
  O   -2.18883638599436     -0.87047527407062      1.38712724054699
  N   1.41536006719030      0.29590340096200     -1.21040245304558
  H   1.25136043882232      1.11089053580783     -1.79037020934022
  H   1.22425669460230     -0.53386295407590     -1.76030039843359
  N   0.96269138870953     -0.66725695285203      0.97314071514917
  H   1.94950750641791     -0.56408024458763      1.17296865270275
  H   0.81397983325085     -1.60323219466289      0.61375077933877
