14
Coordinates from ORCA-job run
  C   -0.94597928875455     -0.18838946386889     -0.35770117259598
  C   0.48292826989091      0.27442063105403     -0.10382866823663
  F   -0.99498964039946     -1.52643941485859     -0.53938849240708
  H   0.42621029216583      1.32745578311258      0.19680652167276
  H   -1.42090077422594      0.31467192517290     -1.20306758464578
  N   -1.77465029046902      0.16781493545482      0.85054219910513
  O   -2.23872202603874     -0.73269258074034      1.52974065061214
  O   -1.89873134148802      1.37550963887860      1.03391861134520
  N   1.24118403784872      0.04440633542908     -1.33274684588973
  H   2.21897476666915      0.24163692652356     -1.15622395984475
  H   0.93336135382378      0.67009467413942     -2.07019497455011
  N   0.98055119312551     -0.47352991180313      1.02028361192512
  H   1.82736829091205     -0.06529546866928      1.39087894714364
  H   1.16239515693979     -1.42966400982476      0.74098115636609
