14
Coordinates from ORCA-job run
  C   -1.01069711648787     -0.22750626271012     -0.44943833658314
  C   0.52136456360928     -0.29230931545604     -0.35842416429894
  F   -1.51342279266967     -1.45349594770073     -0.73315382331303
  H   0.78526336774122     -1.15629808139662     -0.98546451837920
  H   -1.36691236889025      0.49086465332703     -1.19052176237060
  N   -1.58655755892766      0.22571907677425      0.86693782374765
  O   -1.29849381590920      1.37797930275984      1.17478923796718
  O   -2.25668664217703     -0.56460629729960      1.51119034950552
  N   0.92190532477860     -0.61422196955607      0.98847930136902
  H   0.97074814649626      0.23681644537466      1.53735226288882
  H   1.82095018117222     -1.07404836295615      1.00467406617269
  N   1.08366472510117      0.97086113022370     -0.81751621687791
  H   2.09421800613303      0.91993005660058     -0.76688271367388
  H   0.83265598002990      1.15931557201526     -1.78202150615418
