14
Coordinates from ORCA-job run
  C   -0.92084679063321      0.49440104021868     -0.17036614670087
  C   0.39101477970426     -0.24461659259469     -0.38672860969935
  F   -1.63282295373521      0.55015761630523     -1.32185021950671
  H   0.11772152666486     -1.17511989278406     -0.89193213222293
  H   -0.79580369258142      1.50194977640897      0.23201328102276
  N   -1.73617426502817     -0.26083461266581      0.84125191211669
  O   -2.20346502581540     -1.33078216997012      0.47163812404079
  O   -1.84326681314512      0.24814201070315      1.95231683783758
  N   0.92982819548713     -0.59415749564106      0.91445649003510
  H   1.69923898751816     -1.24382360909781      0.82154530208399
  H   1.26127579689777      0.22568697211547      1.40990846584224
  N   1.18725597884183      0.54701656738902     -1.30843269148544
  H   1.64725743283376      1.30567056061504     -0.81837645427165
  H   1.89978684299075     -0.02269017100199     -1.74544415909220
