14
Coordinates from ORCA-job run
  C   -0.98787133537547     -0.39013905692280     -0.38421099918523
  C   0.52359277982286     -0.23717588066584     -0.47453038870098
  F   -1.30634291915381     -1.70083033247892     -0.20244989016919
  H   0.82706982316489     -0.98174670193396     -1.22620507840294
  H   -1.49301868291562      0.00583139076862     -1.26419697505165
  N   -1.50317948565799      0.38338734445034      0.80483401172181
  O   -1.88300408063677     -0.23912985964173      1.78371189072811
  O   -1.46694369424034      1.60294264251180      0.67315507975495
  N   1.06849781750457     -0.48641456314719      0.85563793575612
  H   0.77181696168044     -1.39366273320223      1.20081913358228
  H   2.08032630708590     -0.48584109873188      0.81524800393984
  N   0.85682698197213      1.05861291533853     -1.00886938906809
  H   1.83580212325199      1.09188299956257     -1.26185577676481
  H   0.67542740349724      1.77028293409269     -0.31108755814020
