14
Coordinates from ORCA-job run
  C   -0.88635344968266      0.04519172133349     -0.34676693479131
  C   0.57302058385182      0.33251906229469     -0.01069442483310
  F   -1.00067007182947     -1.20551416435794     -0.87754282639025
  H   0.60898372011176      1.33907923774202      0.41365477313706
  H   -1.31641488125142      0.76984988884677     -1.03943696750358
  N   -1.71070241501748      0.12086651981130      0.90897929778788
  O   -1.80207925124572      1.25445491935966      1.36926504908788
  O   -2.19079777013476     -0.90540974566070      1.36199364807635
  N   1.43252502014456      0.31368396951655     -1.18578995786762
  H   1.25376663344485      1.10694704699949     -1.79095374997587
  H   1.28385473013892     -0.53653607147886     -1.71725673572249
  N   0.96220087364083     -0.60880228657545      1.01151409789211
  H   1.94051865562070     -0.46711577584937      1.22885832563353
  H   0.85214762220808     -1.55821432198163      0.67417640546941
