14
Coordinates from ORCA-job run
  C   -0.98538679211894     -0.36974503483695     -0.41056601116454
  C   0.52931577506993     -0.23504106709200     -0.46918108866748
  F   -1.32384703112813     -1.67945797718812     -0.26074754567919
  H   0.83801474155335     -0.96948197317291     -1.22860616867022
  H   -1.46901809170785      0.05050428459222     -1.29137026553430
  N   -1.51313686375406      0.38735156662259      0.78378868090221
  O   -1.92108854877613     -0.24884160631478      1.74236010395611
  O   -1.45707883724498      1.60862534631533      0.67686190175823
  N   1.04493843527198     -0.51605879600337      0.86640926000104
  H   0.73218924764118     -1.42674657155963      1.18753553535109
  H   2.05732644823728     -0.52554814391754      0.84589060798103
  N   0.88957068150611      1.06604749617434     -0.97224516051610
  H   1.87333224730202      1.09076225491284     -1.20695227436664
  H   0.70486858814823      1.76663022146798     -0.26417757535127
