14
Coordinates from ORCA-job run
  C   -0.95448711786774     -0.11454384310148     -0.36727207530545
  C   0.49954113439791      0.30463674349310     -0.22601627013499
  F   -1.05811159932255     -1.43269563640044     -0.65824170070248
  H   0.47769608515326      1.35993491603925      0.07505313406809
  H   -1.46809300740409      0.47954479462474     -1.12103128968282
  N   -1.66239890363121      0.14682047057146      0.94040258875505
  O   -1.88865012546416     -0.80156912096580      1.68276502799224
  O   -1.90920054035286      1.32845930822563      1.16036286064128
  N   1.08122293500591      0.24779945484364     -1.55378371852573
  H   1.33004737870648     -0.71867689312255     -1.73485628046293
  H   1.93699303264037      0.78790992221521     -1.57567591201843
  N   1.16659896192054     -0.56477330890356      0.73469318218137
  H   1.90747213712500     -0.07011188972863      1.21226150885574
  H   0.54036962909314     -0.95373491779057      1.42833894433904
