14
Coordinates from ORCA-job run
  C   -0.90271854081853      0.44141931126405     -0.20851628402569
  C   0.45577441978817     -0.21046471199237     -0.47538247815380
  F   -1.69358542393485      0.38092457234015     -1.30555799248863
  H   0.23016896854657     -1.13449976782496     -1.01605029693339
  H   -0.83029367014502      1.47270138393895      0.14261648304614
  N   -1.57652889972718     -0.32459326548552      0.89411043984559
  O   -1.53522398222234      0.17877324210213      2.01471871492522
  O   -2.04331079052548     -1.41959531879253      0.60040474140542
  N   1.20303694422953     -0.56942915358522      0.71736317836054
  H   0.81176697124291     -1.37983405134177      1.18105378299726
  H   1.23849778581993      0.19309966191914      1.38412704583378
  N   1.16412761572767      0.68004839750751     -1.36734814821162
  H   1.49213406588661      1.48914961106121     -0.84978371204974
  H   1.98715453613203      0.20030008888923     -1.71175547455107
