14
Coordinates from ORCA-job run
  C   -0.90690663447157     -0.17168310531566     -0.34022333229592
  C   0.54993389594753      0.28216347862396     -0.16389953620837
  F   -0.97880447319897     -1.51416265069645     -0.48109147597218
  H   0.52288431754626      1.32674056290204      0.17726531784873
  H   -1.42228899471176      0.31537172702308     -1.16979011765434
  N   -1.65893229982767      0.22338028183373      0.90109507378419
  O   -1.93393224736333      1.41824701635344      0.97285159689961
  O   -1.87733250197750     -0.63372806005199      1.74793623527318
  N   1.21013222906785      0.07736888420081     -1.43942334542564
  H   2.20661445369952      0.17169422407826     -1.28729662169204
  H   0.91926263682151      0.77124076155766     -2.11747653715600
  N   1.27050545172134     -0.48881112686850      0.81907191884376
  H   0.94630889263017     -0.30078083639610      1.75850144651896
  H   1.15355527411663     -1.47604115724428      0.62347937723604
