14
Coordinates from ORCA-job run
  C   -0.87074021285720     -0.40818791516030     -0.16832649232305
  C   0.59098729974745     -0.16136056218968      0.20152486042416
  F   -1.29702772647025     -1.57968695538849      0.38242984227408
  H   0.63219220475814     -0.15429858732864      1.30194839436675
  H   -1.03309009660063     -0.42020535755312     -1.24582837013818
  N   -1.69983885464471      0.70559155433453      0.39487813769814
  O   -1.99410200955761      0.64012768671720      1.58295242374214
  O   -1.94926878624735      1.63171800033081     -0.37494041163165
  N   1.13004252000280      1.08755192149344     -0.27267826522255
  H   0.72087028362786      1.88615548900613      0.19248993009184
  H   0.99345296031278      1.17523388555491     -1.27238818650804
  N   1.34484907076348     -1.22733168107399     -0.42943411319173
  H   1.10284161325217     -2.12312546990656     -0.02450366868012
  H   2.32883173391308     -1.05118200883622     -0.26712408090179
