14
Coordinates from ORCA-job run
  C   -0.90229510908124     -0.39135834101098     -0.23540929043115
  C   0.52069321151127     -0.10384855824801      0.19815552663694
  F   -1.28546525213464     -1.62939939815044      0.20192400038332
  H   0.52196187405701     -0.13072333981561      1.29581634001191
  H   -1.03996948087333     -0.32478839920621     -1.31420897480104
  N   -1.81857387472364      0.61813175856679      0.38785750150341
  O   -2.41078386897519      1.37522442760849     -0.37391838575863
  O   -1.88966825214634      0.60267045273627      1.61240503493616
  N   0.83551469126217      1.24033960966698     -0.21625818177503
  H   1.57928441141903      1.63643006577071      0.34069988623643
  H   1.11919571754716      1.23645364892918     -1.18900609079441
  N   1.36560170183863     -1.11233348766304     -0.43273115179469
  H   2.32473768368958     -0.97623756800592     -0.13543908569992
  H   1.08176654660954     -2.04056087117820     -0.13888712865330
