14
Coordinates from ORCA-job run
  C   -0.98293689137167      0.02726891172063     -0.41104639110672
  C   0.49074321215191      0.33509799995499     -0.18094142737310
  F   -1.14587213041303     -1.17710460249480     -1.00077950407824
  H   0.54904521390852      1.38883190748773      0.11810908129394
  H   -1.46377154926128      0.80167512417553     -1.01066619137529
  N   -1.69601686127805      0.01196011830455      0.91835121119775
  O   -2.29938903868772     -0.99349649425694      1.25768746230293
  O   -1.58508559864922      1.05679709239491      1.55804492201129
  N   1.12847339416567      0.20191941136497     -1.46756093521032
  H   2.06010445106276      0.59479715822109     -1.45054695097694
  H   1.18859178973449     -0.78020861590936     -1.70896812673781
  N   1.01313599715665     -0.59081767420772      0.82126615295919
  H   2.02476135250064     -0.55680761089930      0.80363631909041
  H   0.71821665898032     -0.31991272585628      1.75341437800289
