14
Coordinates from ORCA-job run
  C   -0.90844755447868     -0.38689915773855     -0.21873351068113
  C   0.52077214831951     -0.10467361139684      0.19752657275694
  F   -1.30437170855215     -1.60622436003461      0.25740504272754
  H   0.52879715009126     -0.10091256098303      1.29558226758700
  H   -1.05275845994328     -0.35044794218293     -1.29816895636358
  N   -1.80754543022381      0.65255043558067      0.37984587932701
  O   -1.87460432731242      0.67135598238871      1.60467149366676
  O   -2.39125852154893      1.39790322140571     -0.39991334237582
  N   0.84905295535676      1.22401028941270     -0.25551766753453
  H   1.60153808118757      1.62518457817039      0.28596583399572
  H   1.12757831801708      1.18869366434122     -1.22918309021698
  N   1.34983095550372     -1.14003520359513     -0.40981854972544
  H   2.31090216190551     -1.01364909475226     -0.11454181501086
  H   1.05051423167785     -2.05685624061608     -0.09612015815264
