14
Coordinates from ORCA-job run
  C   -0.96391294476521      0.11861036433896     -0.33329484019178
  C   0.52566819271450     -0.22890003716638     -0.38609539715629
  F   -1.63593400897289     -0.47331920698989     -1.34862552539158
  H   0.56278384709185     -1.30063320008965     -0.60300173072713
  H   -1.16212896481621      1.19225116320104     -0.33121098586954
  N   -1.51712021424114     -0.40740462818526      0.96044115641848
  O   -1.68775387110969     -1.61929646218890      1.03521765078355
  O   -1.67987982328978      0.41362029396127      1.86061852455587
  N   1.24769319304121     -0.00587092833130      0.85420783911788
  H   1.06023513939432      0.91235790004590      1.24014611314114
  H   1.02043088975845     -0.69925408088006      1.55592925960406
  N   1.06831091596174      0.48649014055091     -1.51913083682054
  H   2.00368499825247      0.14149662512475     -1.69829493545044
  H   1.15792265098038      1.47085205660860     -1.28890629201369
