14
Coordinates from ORCA-job run
  C   -0.88992681568382      0.23202065668867     -0.28422532918386
  C   0.57527924053367     -0.19780532130289     -0.19886219709287
  F   -1.40421926196443     -0.14384663140290     -1.48661578568789
  H   0.57436166415599     -1.29641482015961     -0.28401122445837
  H   -1.02290140674772      1.30246578669128     -0.12791011911619
  N   -1.67011213528620     -0.47129221871372      0.79032546603354
  O   -1.81638465205107      0.14623078883032      1.84431850425594
  O   -2.03189545314943     -1.61873814551163      0.55675529717962
  N   1.13862464423406      0.33547432611752      1.02214064362893
  H   0.68546061429649     -0.03073910768747      1.84928420248923
  H   2.12031458292877      0.09013630691009      1.05040999153536
  N   1.36842319626923      0.31804801661521     -1.28877374024260
  H   1.36319560301923      1.33146398824530     -1.26251319473117
  H   1.01078017944524      0.00099637467986     -2.18032251460967
