14
Coordinates from ORCA-job run
  C   -0.86892293032896      0.29792955655253     -0.27835967687262
  C   0.56279700788921     -0.23710854983226     -0.19159877629862
  F   -1.40306936414057     -0.02344635064489     -1.48663315379286
  H   0.48221189376532     -1.33463070759096     -0.25361329033437
  H   -0.92364818206047      1.37338109216206     -0.10846225102844
  N   -1.70539021517795     -0.35970304980485      0.78469516571154
  O   -2.22283831707071     -1.43511482977355      0.50968159498083
  O   -1.73810162360848      0.21640171984126      1.87135266456204
  N   1.17449576287037      0.27812275406566      1.01365990877154
  H   0.68209003119452     -0.00995611911913      1.84906300017323
  H   2.12678770045790     -0.06191065394342      1.05717818014142
  N   1.38343502807165      0.19520587835264     -1.29757365867574
  H   0.99234012040426     -0.10627477040726     -2.18050761833606
  H   1.45881308773391      1.20610403014216     -1.28788208900190
