14
Coordinates from ORCA-job run
  C   -0.98273054656030     -0.36808331824408     -0.41770314342087
  C   0.53268522713010     -0.23656688793354     -0.46473453294469
  F   -1.32539309080006     -1.67677807201880     -0.26803294024927
  H   0.84574367288958     -0.97257185947625     -1.22082925048682
  H   -1.45836283701449      0.05103075686786     -1.30339322280242
  N   -1.51823917054613      0.39220297002782      0.77085008683547
  O   -1.93377161056261     -0.24125328318938      1.72799907449474
  O   -1.46042101372472      1.61325879208203      0.66206728369511
  N   1.03724828916118     -0.51676323326867      0.87542692273674
  H   0.71755770599380     -1.42529227170728      1.19600905367220
  H   2.04973886162934     -0.53204961919634      0.86190185233053
  N   0.89922488258419      1.06321997983288     -0.96677507512250
  H   1.88549217675016      1.08643072005426     -1.19104682910284
  H   0.70822745306995      1.76521532616949     -0.26173927963537
