14
Coordinates from ORCA-job run
  C   -0.84599863849172     -0.01945748578862     -0.36508670402771
  C   0.62755052993876      0.36386613370936     -0.15055050734015
  F   -0.93249700119093     -1.32863016896963     -0.72557449356241
  H   0.63843000874331      1.40701763825093      0.17794496454375
  H   -1.36299618956666      0.59570107790953     -1.10382482284099
  N   -1.58071169279908      0.17274125615428      0.92950444669212
  O   -1.88233460916835     -0.81328698318030      1.58867983757104
  O   -1.75218903276866      1.34937553726083      1.23868241893593
  N   1.39096529999723      0.25234946851689     -1.38005619930179
  H   1.57944474042895     -0.72278511517898     -1.57520834282382
  H   0.89377519047266      0.65207597008270     -2.16745506416091
  N   1.23574451340133     -0.45958710073399      0.86819843546728
  H   1.14593087270631     -0.05561648272758      1.78833129744346
  H   0.84688600829685     -1.39376374530543      0.87641473340420
