14
Coordinates from ORCA-job run
  C   -0.91583962732565     -0.33834920874056     -0.43049311121997
  C   0.61704943396617     -0.27834173254300     -0.39142911407044
  F   -1.32357451167641     -1.63226480880847     -0.30991833925633
  H   0.93296260574299     -0.99974459820994     -1.16297691631043
  H   -1.33656992220433      0.09500270169582     -1.33903035554141
  N   -1.48370737942526      0.44623889235563      0.71925452352080
  O   -1.38338536206213      1.66504865056024      0.59594286664661
  O   -1.95609917693780     -0.15959994798371      1.66691978255287
  N   1.02172218508384     -0.61697735782977      0.95596178498861
  H   0.70564341933829     -1.54428071062530      1.21221829639896
  H   2.03170719940113     -0.58341006454055      1.00583365587458
  N   1.21315959314533      0.99221371663858     -0.71542716836331
  H   1.05479501044510      1.23904905027756     -1.68371101265139
  H   0.82313653250874      1.71541541775348     -0.12314489256917
