14
Coordinates from ORCA-job run
  C   -0.91665255654244     -0.38481010602562     -0.39227643651731
  C   0.61362879270668     -0.26291080451046     -0.42344989845968
  F   -1.25888808906588     -1.66709985691408     -0.08506891619771
  H   0.92393433202840     -0.86612590074221     -1.29266402705045
  H   -1.39960185436411     -0.09723661350020     -1.32732495970345
  N   -1.47869527452093      0.52744925300131      0.65401534003524
  O   -1.36883224017274      0.16983804983196      1.82279523477455
  O   -1.96228985798043      1.57993733693757      0.24967686308516
  N   1.28946844574696     -0.80485405650814      0.72733799489227
  H   0.95024627908690     -0.34891742709735      1.56677946141333
  H   1.10866671245465     -1.79698033086326      0.80962134565809
  N   0.94753892973979      1.14260471109621     -0.49615152409905
  H   0.59706146935559      1.57699079808968     -1.34103305818393
  H   1.95541491152756      1.23011494720458     -0.47225741964706
