14
Coordinates from ORCA-job run
  C   -0.97042917607130     -0.29368430139145     -0.41988284174103
  C   0.56387010597286     -0.37726167789413     -0.40642595524977
  F   -1.52555699477896     -1.52462556418056     -0.47710018290505
  H   0.78658817497627     -1.17593002688653     -1.12114545215912
  H   -1.34703679231863      0.31382777157726     -1.24646522070266
  N   -1.45415462221715      0.38418338156038      0.83827346306468
  O   -2.24072970912504     -0.19850899021501      1.56396697874651
  O   -0.97719503370881      1.50538737272537      1.02253777599347
  N   0.97404969012178     -0.83545762095432      0.90285397438391
  H   0.97498094303423     -0.05429590602577      1.55046757478198
  H   1.92950336220566     -1.16414977118043      0.84343770291097
  N   1.25507061416746      0.81855108246855     -0.85526609931767
  H   0.91132803490792      1.62671200950665     -0.35059805284311
  H   1.11771140283370      0.97625224088999     -1.84665366496311
