14
Coordinates from ORCA-job run
  C   -0.97484399063294     -0.35068394011711     -0.40552848928742
  C   0.54941968832789     -0.28198293404858     -0.55143383473959
  F   -1.35841171758773     -1.64793218640905     -0.28584380494444
  H   0.76827477923512     -1.04114398652065     -1.31052439887131
  H   -1.50280662767513      0.12740912769296     -1.23082637093103
  N   -1.38256803060057      0.36736459855210      0.85256212919891
  O   -1.23556462256864      1.58841829676167      0.81614672370300
  O   -1.75693181566118     -0.29104374738319      1.81179750358515
  N   1.27841337195975     -0.66614912568085      0.64534534421481
  H   1.12526522521531     -0.00391162985540      1.39750958622515
  H   1.00623888202702     -1.58920926027808      0.96408722567412
  N   0.92386799449280      1.00468500221118     -1.08268843904058
  H   0.62889815808860      1.74675313027432     -0.45962167766081
  H   1.93274870537969      1.03542665480066     -1.16298149712598
