15

C	0.0	0.0	0.0
C	-0.336644	0.100087	-1.527318
Cl	1.731792	0.0	0.0
H	0.311661	-0.67931	-1.943301
N	-0.458964	1.152979	0.889271
O	-0.904035	0.910757	1.989287
O	-0.232268	2.249015	0.402386
N	-0.388817	-1.401395	0.522576
O	-0.28263	-1.596908	1.721543
O	-0.615711	-2.230537	-0.344914
C	0.158568	1.357235	-2.107866
N	0.532779	2.303885	-2.693212
C	-1.642753	-0.205909	-2.152957
N	-2.249316	-0.591446	-3.09104
Cl	-3.050976	0.0	0.0
