15

C	0.0	0.0	0.0
C	-0.439055	-0.035036	-1.456852
F	1.388186	0.0	0.0
H	-1.529944	-0.094422	-1.414241
H	-0.020849	-0.968695	-1.847686
C	-0.348034	1.314383	0.628089
N	-0.51387	2.364472	1.127987
N	-0.543742	-1.112657	0.697793
H	-1.579185	-0.910227	0.551547
H	-0.336138	-1.005147	1.686965
C	0.056699	1.160154	-2.261065
H	-0.414602	2.083501	-1.915285
H	-0.191351	1.03715	-3.319551
H	1.140899	1.277663	-2.17983
F	-2.776114	0.0	0.0
