15

C	0.0	0.0	0.0
C	-0.210981	0.107836	-1.538559
F	1.386523	0.0	0.0
H	0.222508	-0.83792	-1.884692
H	0.491631	0.894915	-1.83676
C	-0.364248	1.272096	0.691332
N	-0.553582	2.29956	1.228844
N	-0.586826	-1.158328	0.553072
H	-1.62456	-0.907647	0.394039
H	-0.426512	-1.148674	1.557127
C	-1.542794	0.351119	-2.2293
H	-1.346561	0.370215	-3.311121
H	-1.983621	1.299128	-1.926464
H	-2.27517	-0.404565	-1.972399
F	-2.800085	0.0	0.0
