15

C	0.0	0.0	0.0
C	-0.458525	-0.070395	-1.447614
F	1.388339	0.0	0.0
H	-1.552398	-0.080975	-1.381375
H	-0.097608	-1.039453	-1.812792
C	-0.338339	1.338087	0.587805
N	-0.507386	2.401602	1.057429
N	-0.553439	-1.084513	0.733938
H	-1.587453	-0.895597	0.567756
H	-0.372403	-0.929223	1.720984
C	0.073809	1.067739	-2.3089
H	1.164501	1.127889	-2.271814
H	-0.222804	0.92382	-3.352098
H	-0.332306	2.028159	-1.980535
F	-2.804741	0.0	0.0
