15

C	0.0	0.0	0.0
C	-0.204544	-0.05461	-1.551835
F	1.411378	0.0	0.0
H	-0.00247	-1.105993	-1.804405
H	0.63345	0.520991	-1.959839
C	-0.383135	1.333384	0.525024
N	-0.559445	2.427529	0.910638
N	-0.590832	-1.006862	0.793832
H	-0.454344	-1.887893	0.305185
H	-1.624986	-0.743325	0.664772
C	-1.489581	0.410897	-2.22112
H	-2.35416	-0.087839	-1.790713
H	-1.390662	0.251598	-3.302967
H	-1.641017	1.479448	-2.044771
F	-2.832139	0.0	0.0
