15

C	0.0	0.0	0.0
C	-0.467079	-0.176934	-1.441357
F	1.386056	0.0	0.0
H	0.213554	-0.917631	-1.874769
H	-1.481558	-0.564793	-1.369393
C	-0.350679	1.350567	0.541926
N	-0.502061	2.408218	1.030267
N	-0.521664	-1.055615	0.80339
H	-1.555792	-0.871646	0.669109
H	-0.290065	-0.865187	1.774202
C	-0.487121	1.116877	-2.244166
H	0.44247	1.688056	-2.151038
H	-0.652333	0.910497	-3.305542
H	-1.315205	1.733117	-1.887681
F	-2.749386	0.0	0.0
