14

C	-0.590652	0.014685	-1.393
C	0.0	0.0	0.0
Cl	-0.11142	1.492317	-2.248892
H	1.090892	0.0	0.0
H	-1.677076	-0.046998	-1.403517
N	-0.141791	-1.151172	-2.247291
O	-0.958749	-1.512189	-3.091399
O	0.982161	-1.596916	-2.080238
N	-0.422864	-1.172492	0.723147
O	-0.912684	-2.118937	0.067917
O	-0.136319	-1.217359	1.930771
C	-0.377888	1.185658	0.736244
N	-0.65028	2.174361	1.312544
H	2.335179	0.0	0.0
