14

C	-0.46048	0.021109	-1.43187
C	0.0	0.0	0.0
Cl	0.570198	-0.878263	-2.532495
H	1.094721	0.0	0.0
H	-0.470997	1.055941	-1.778964
N	-1.925041	-0.426334	-1.575626
O	-2.25936	-1.086732	-2.547518
O	-2.671381	0.004761	-0.704016
N	-0.362383	-1.214351	0.696905
O	-0.24217	-1.211462	1.927544
O	-0.626934	-2.210747	0.006454
C	-0.397744	1.175074	0.736803
N	-0.64193	2.193248	1.272877
H	2.354051	0.0	0.0
