14

C	-0.577505	0.006122	-1.398592
C	0.0	0.0	0.0
Cl	-0.080569	1.475159	-2.261331
H	1.090943	0.0	0.0
H	-1.664083	-0.048229	-1.418988
N	-0.123865	-1.171259	-2.232866
O	0.977326	-1.65012	-2.008907
O	-0.910571	-1.510524	-3.115432
N	-0.43941	-1.164519	0.725887
O	-0.149746	-1.213238	1.93003
O	-0.966259	-2.09569	0.079776
C	-0.374057	1.194256	0.725097
N	-0.632887	2.186164	1.301445
H	2.339425	0.0	0.0
