14

C	-0.357026	-0.002119	-1.457914
C	0.0	0.0	0.0
Cl	-2.103034	0.078612	-1.79171
H	1.093753	0.0	0.0
H	0.036503	-0.899433	-1.922214
N	0.307591	1.155133	-2.158043
O	0.058023	2.28398	-1.752619
O	1.046167	0.86382	-3.095032
N	-0.312398	-1.279633	0.608802
O	-0.262623	-2.281237	-0.123896
O	-0.425625	-1.314366	1.84142
C	-0.511524	1.095117	0.783627
N	-0.873965	2.003001	1.437885
H	2.354372	0.0	0.0
