14

C	-0.362104	0.124554	-1.460045
C	0.0	0.0	0.0
Cl	0.261047	-1.115068	-2.542775
H	1.091821	0.0	0.0
H	0.03564	1.079217	-1.804463
N	-1.858085	0.228766	-1.651871
O	-2.537978	-0.742331	-1.350727
O	-2.278337	1.303058	-2.076889
N	-0.404355	-1.21177	0.70011
O	-0.7739	-1.097731	1.87556
O	-0.196876	-2.283987	0.129111
C	-0.460589	1.18064	0.695891
N	-0.762016	2.202104	1.196861
H	2.383596	0.0	0.0
