14

C	-0.380989	-0.037088	-1.45481
C	0.0	0.0	0.0
Cl	-2.123529	-0.192209	-1.751193
H	1.093747	0.0	0.0
H	0.12599	-0.868769	-1.932703
N	0.144866	1.210872	-2.11836
O	-0.52592	2.234582	-2.053452
O	1.254151	1.091682	-2.6359
N	-0.304645	-1.262481	0.637656
O	-0.140717	-2.280165	-0.056724
O	-0.527857	-1.263041	1.857136
C	-0.521194	1.123203	0.733939
N	-0.88471	2.091007	1.295185
H	2.335123	0.0	0.0
