14

C	-0.362208	-0.022546	-1.459022
C	0.0	0.0	0.0
Cl	-2.100393	-0.104938	-1.790453
H	1.093808	0.0	0.0
H	0.122009	-0.870602	-1.92982
N	0.209876	1.210116	-2.113616
O	1.23908	1.03329	-2.759076
O	-0.3551	2.281076	-1.921778
N	-0.2876	-1.270185	0.631595
O	-0.210642	-2.280675	-0.086443
O	-0.393209	-1.286174	1.865267
C	-0.519208	1.109906	0.755505
N	-0.896949	2.048821	1.355289
H	2.34764	0.0	0.0
