14

C	-0.565678	0.008039	-1.40004
C	0.0	0.0	0.0
Cl	-0.050337	1.472405	-2.2576
H	1.091018	0.0	0.0
H	-1.651735	-0.046387	-1.442464
N	-0.093888	-1.178648	-2.217819
O	0.935681	-1.744451	-1.88628
O	-0.798012	-1.443176	-3.189345
N	-0.432007	-1.18072	0.714845
O	-1.054908	-2.062835	0.087554
O	-0.049481	-1.281364	1.889381
C	-0.393731	1.177687	0.73748
N	-0.70065	2.151328	1.323647
H	2.339815	0.0	0.0
