14

C	-0.365353	0.017122	-1.456971
C	0.0	0.0	0.0
Cl	0.290209	-1.287676	-2.445576
H	1.094818	0.0	0.0
H	0.033131	0.940884	-1.875756
N	-1.860367	0.089759	-1.710594
O	-2.198602	0.607002	-2.772289
O	-2.611882	-0.367359	-0.859852
N	-0.399115	-1.145528	0.800558
O	-0.479042	-0.962341	2.020094
O	-0.474882	-2.243256	0.245703
C	-0.432623	1.235517	0.610976
N	-0.718457	2.298335	1.027359
H	2.387984	0.0	0.0
