18

C	0.0	0.0	0.0
C	-0.151796	0.018171	-1.566897
Cl	1.809907	0.0	0.0
H	0.40479	-0.818817	-1.978133
N	-0.554591	1.056417	0.752369
H	-0.41017	1.945502	0.292298
H	-1.562358	0.880642	0.825165
C	-0.485893	-1.33452	0.530471
H	-0.17072	-1.412267	1.572486
H	-1.578616	-1.355345	0.478653
H	-0.070868	-2.16629	-0.039131
N	0.449241	1.227992	-2.224319
O	0.989567	1.019943	-3.30958
O	0.341551	2.322491	-1.683643
N	-1.520315	-0.117124	-2.18252
O	-1.910741	-1.272974	-2.273618
O	-2.071686	0.892494	-2.597004
Br	-3.902529	0.0	0.0
