15

C	-0.586485	-0.001971	-1.397891
C	0.0	0.0	0.0
Cl	0.069168	1.396244	-2.29196
H	1.090091	0.0	0.0
H	-0.281274	0.95579	0.457884
N	-0.147939	-1.266363	-2.149798
O	-0.579118	-1.390827	-3.293202
O	0.553394	-2.0747	-1.553708
C	-2.10068	0.039097	-1.463514
H	-2.43006	0.084106	-2.500167
H	-2.453926	0.921918	-0.92939
H	-2.51279	-0.853498	-0.985814
C	-0.551823	-1.071567	0.811738
N	-1.01728	-1.920245	1.479156
H	2.727009	0.0	0.0
