15

C	-0.578012	-0.001472	-1.401983
C	0.0	0.0	0.0
Cl	0.071538	1.412772	-2.274959
H	1.090094	0.0	0.0
H	-0.281745	0.95707	0.454173
N	-0.122765	-1.245551	-2.171934
O	-0.498813	-1.328074	-3.340112
O	0.535082	-2.081408	-1.567558
C	-2.092067	0.023253	-1.478215
H	-2.49705	-0.87884	-1.012082
H	-2.459898	0.896147	-0.936153
H	-2.416383	0.076478	-2.517047
C	-0.554278	-1.069284	0.813137
N	-1.011201	-1.934589	1.465365
H	2.723229	0.0	0.0
