14

C	0.0	0.0	0.0
C	-0.248993	0.227457	-1.579556
Br	1.941906	0.0	0.0
H	0.577425	0.862478	-1.898907
H	-0.06383	-0.776713	-1.981176
N	-0.420026	1.177338	0.841346
O	-0.425521	2.265494	0.276626
O	-0.615547	0.98431	2.03181
C	-0.494764	-1.249589	0.543295
N	-0.614154	-2.352439	0.938389
N	-1.457029	0.762698	-2.13282
H	-2.200742	0.344417	-1.550882
H	-1.482006	1.745461	-1.890202
F	-2.408021	0.0	0.0
