14

C	0.0	0.0	0.0
C	-0.457683	0.117313	-1.475774
Br	1.942999	0.0	0.0
H	0.40926	0.350049	-2.099199
H	-1.165987	0.940962	-1.494876
N	-0.390813	1.229556	0.80916
O	-0.549956	1.082302	2.01102
O	-0.401075	2.295018	0.207105
C	-0.439121	-1.198521	0.702342
N	-0.569644	-2.207006	1.29259
N	-1.045627	-1.151558	-1.888074
H	-1.927294	-1.121934	-1.36371
H	-1.251435	-1.090683	-2.879547
F	-2.40791	0.0	0.0
