14

C	0.0	0.0	0.0
C	-0.419636	0.113207	-1.486975
Br	1.929391	0.0	0.0
H	-0.166218	-0.85878	-1.922474
H	-1.50751	0.211936	-1.401625
N	-0.461511	1.189465	0.817195
O	-0.620134	2.243521	0.216574
O	-0.527326	1.036032	2.028347
C	-0.475957	-1.231162	0.6163
N	-0.620504	-2.306469	1.070165
N	0.295726	1.159017	-2.21166
H	0.32163	0.91457	-3.193212
H	-0.218448	2.022626	-2.108854
F	-2.468077	0.0	0.0
