14

C	0.0	0.0	0.0
C	-0.412826	0.0127	-1.492267
Br	1.929266	0.0	0.0
H	-0.138121	-0.979073	-1.864487
H	-1.500949	0.102013	-1.423546
N	-0.460094	1.23912	0.740398
O	-0.628951	2.253058	0.076891
O	-0.517648	1.160995	1.959192
C	-0.489649	-1.184907	0.691764
N	-0.625219	-2.227059	1.221024
N	0.289677	1.02408	-2.281621
H	-0.227175	1.888236	-2.205717
H	0.27276	0.733278	-3.247714
F	-2.462158	0.0	0.0
