14

C	0.0	0.0	0.0
C	-0.391876	0.028385	-1.559909
Br	1.942009	0.0	0.0
H	0.543658	0.143032	-2.111378
H	-0.784485	-0.974241	-1.736268
N	-0.382469	1.231535	0.788304
O	-0.656862	1.08853	1.969638
O	-0.279452	2.303579	0.20053
C	-0.45642	-1.196987	0.68777
N	-0.603	-2.248582	1.194014
N	-1.345363	0.977702	-2.055532
H	-2.142279	0.831143	-1.420614
H	-0.985052	1.910246	-1.905022
F	-2.386712	0.0	0.0
