14

C	0.0	0.0	0.0
C	-0.200535	-0.19571	-1.582267
Br	1.943308	0.0	0.0
H	0.256222	-1.175774	-1.75941
H	0.460043	0.551619	-2.026103
N	-0.437954	1.348635	0.503759
O	-0.512031	2.242704	-0.332009
O	-0.565039	1.482317	1.712451
C	-0.491306	-1.073676	0.84383
N	-0.626307	-2.04194	1.50088
N	-1.464156	-0.138864	-2.261183
H	-1.832324	0.790527	-2.081275
H	-2.100209	-0.684636	-1.680392
F	-2.356086	0.0	0.0
