12

C	0.0	0.0	0.0
C	-0.446458	-0.055542	-1.442203
F	1.389226	0.0	0.0
H	-1.539478	-0.135102	-1.384218
H	-0.361793	-0.887213	0.520963
H	-0.163733	0.888897	-1.934548
C	-0.435596	1.201394	0.73103
N	-0.559945	2.172811	1.379854
N	0.160591	-1.245184	-2.045805
H	-0.291319	-1.435803	-2.930438
H	1.141192	-1.069093	-2.227077
H	-2.94549	0.0	0.0
