12

C	0.0	0.0	0.0
C	-0.483106	0.182244	-1.444459
F	1.384888	0.0	0.0
H	-0.677111	1.254313	-1.619127
H	-0.356029	-0.96088	0.377038
H	0.384653	-0.094537	-2.056409
C	-0.406033	1.086063	0.908903
N	-0.600771	1.978826	1.644827
N	-1.590865	-0.715602	-1.718291
H	-2.377751	-0.463865	-1.056279
H	-1.94211	-0.50414	-2.64832
H	-3.461009	0.0	0.0
