12

C	0.0	0.0	0.0
C	-0.540452	-0.137982	-1.412768
F	1.378929	0.0	0.0
H	0.177904	-0.760311	-1.958721
H	-0.347948	-0.843275	0.602902
H	-1.511307	-0.630647	-1.305153
C	-0.408303	1.243529	0.681454
N	-0.517643	2.246811	1.281982
N	-0.656225	1.173053	-2.058665
H	-0.825771	1.015441	-3.046705
H	-1.523011	1.559928	-1.684143
H	-2.977717	0.0	0.0
