12

C	0.0	0.0	0.0
C	-0.522742	0.096253	-1.437206
F	1.383022	0.0	0.0
H	-1.148248	0.991289	-1.525095
H	-0.350575	-0.923609	0.457585
H	0.361906	0.206778	-2.074882
C	-0.390774	1.153097	0.837032
N	-0.469371	2.106867	1.518756
N	-1.240456	-1.134761	-1.761483
H	-2.096896	-1.017209	-1.179493
H	-1.545941	-1.065627	-2.729383
H	-2.923182	0.0	0.0
