12

C	0.0	0.0	0.0
C	-0.44117	-0.034476	-1.456771
F	1.378855	0.0	0.0
H	0.254875	-0.718863	-1.956505
H	-0.372869	-0.880337	0.526727
H	-1.462988	-0.415914	-1.463933
C	-0.428718	1.208274	0.726822
N	-0.504292	2.220918	1.319731
N	-0.299123	1.298882	-2.054579
H	-1.098832	1.835966	-1.72658
H	-0.41314	1.207202	-3.058301
H	-2.811563	0.0	0.0
