12

C	0.0	0.0	0.0
C	-0.534502	0.196622	-1.42184
F	1.383791	0.0	0.0
H	-1.145404	1.102959	-1.443983
H	-0.350641	-0.953318	0.393628
H	0.343251	0.334085	-2.06341
C	-0.384419	1.088091	0.922171
N	-0.503495	1.965922	1.693108
N	-1.278068	-0.995561	-1.811849
H	-2.128138	-0.90254	-1.213977
H	-1.594953	-0.861624	-2.769473
H	-2.980094	0.0	0.0
