13

C	-0.006547	0.078712	0.021552
C	-0.608576	-0.193152	-1.358029
Br	1.994667	-0.371153	-0.098158
H	-0.493466	-1.260017	-1.563721
H	-1.689729	-0.012071	-1.288265
C	0.011571	1.515257	0.334302
N	-0.017802	2.651268	0.63866
N	-0.629363	-0.7316	0.974285
H	-0.552633	-0.37502	1.915939
H	-1.608891	-0.95767	0.725893
C	-0.01123	0.597393	-2.425286
N	0.445334	1.225122	-3.305901
Cl	-3.572046	-1.178315	-0.059429
