16

C	0.0	0.0	0.0
C	-0.453954	-0.044767	-1.47013
Cl	1.768913	0.0	0.0
H	-0.04379	0.88168	-1.894965
C	-0.414719	1.268608	0.727013
H	-0.042839	2.123056	0.156177
H	0.041965	1.279355	1.715061
H	-1.500471	1.266035	0.781019
N	-0.454681	-1.231537	0.756274
O	-0.706844	-2.231335	0.099903
O	-0.459571	-1.151483	1.978077
C	-1.914677	-0.024267	-1.790574
N	-2.655032	0.035784	-2.716014
C	0.184986	-1.126966	-2.234173
N	0.725942	-1.92437	-2.905488
F	-2.581582	0.0	0.0
