16

C	0.0	0.0	0.0
C	-0.457176	-0.023987	-1.471752
Cl	1.768923	0.0	0.0
H	-0.096828	0.933771	-1.872451
C	-0.410604	1.25048	0.758057
H	-1.495469	1.250385	0.815121
H	0.04916	1.23609	1.745126
H	-0.034326	2.116687	0.20832
N	-0.446066	-1.253326	0.725684
O	-0.692824	-2.236185	0.041388
O	-0.448384	-1.207032	1.949741
C	-1.916992	-0.079467	-1.793663
N	-2.660761	-0.09431	-2.718363
C	0.232858	-1.051947	-2.264762
N	0.819386	-1.808566	-2.944405
F	-2.57578	0.0	0.0
