16

C	0.0	0.0	0.0
C	-0.435616	0.008557	-1.473312
Cl	1.795286	0.0	0.0
H	0.033867	0.916989	-1.873875
C	-0.401735	1.249762	0.761668
H	0.06664	1.237594	1.744643
H	-1.486993	1.244152	0.828489
H	-0.038244	2.118732	0.207024
N	-0.445332	-1.250627	0.724131
O	-0.455787	-1.197854	1.947815
O	-0.684028	-2.238702	0.0452
C	-1.888727	0.13562	-1.797546
N	-2.624754	0.335709	-2.706313
C	0.145587	-1.089238	-2.259546
N	0.633384	-1.895558	-2.96007
F	-2.558698	0.0	0.0
