12

C	-0.527208	0.013688	-1.409265
C	0.0	0.0	0.0
Br	0.19105	-1.492903	-2.419343
H	1.087988	0.0	0.0
H	-0.38337	0.892397	0.506913
H	-0.381807	-0.895582	0.49617
C	-1.981407	-0.056478	-1.517598
N	-3.156053	-0.138092	-1.51863
N	-0.100219	1.277765	-2.186076
O	-0.867018	1.660255	-3.069594
O	0.977363	1.768208	-1.883348
F	2.54368	0.0	0.0
