15

C	-0.40703	0.006363	-1.467994
C	0.0	0.0	0.0
Cl	-2.213339	0.042497	-1.613676
H	1.099851	0.0	0.0
H	-0.102981	-0.940469	-1.918463
C	0.201495	1.180089	-2.20104
H	1.287444	1.128193	-2.081374
H	-0.155984	2.111217	-1.763999
H	-0.055236	1.148867	-3.262045
C	-0.454866	-1.229743	0.667867
N	-0.823958	-2.200056	1.218675
N	-0.418126	1.217466	0.683299
H	0.252457	1.422518	1.413593
H	-1.332894	1.105375	1.098362
Br	3.472437	0.0	0.0
