20

C	-0.465817	0.017593	-1.461295
C	0.0	0.0	0.0
F	-0.236308	-1.270123	-1.999624
H	1.096782	0.0	0.0
C	-1.954247	0.275023	-1.612695
H	-2.536219	-0.490047	-1.092
H	-2.225228	0.241674	-2.671658
H	-2.206277	1.256727	-1.210039
C	0.373767	0.987877	-2.264909
H	1.428039	0.720517	-2.163689
H	0.083017	0.957197	-3.319725
H	0.234935	1.998273	-1.877221
C	-0.474486	-1.225422	0.770487
H	-1.565956	-1.23613	0.883534
H	-0.167493	-2.143935	0.269815
H	-0.025748	-1.213657	1.767386
N	-0.408007	1.271861	0.625189
H	0.350628	1.587661	1.217935
H	-1.217011	1.119003	1.217969
Br	3.703087	0.0	0.0
