20

C	-0.401351	-0.024699	-1.487803
C	0.0	0.0	0.0
F	-0.117688	1.264733	-2.000174
H	1.097725	0.0	0.0
C	0.461794	-0.989549	-2.278028
H	0.280775	-0.853401	-3.348459
H	0.233677	-2.025534	-2.01804
H	1.514795	-0.798919	-2.057587
C	-1.884436	-0.238412	-1.735482
H	-2.100213	-0.082806	-2.795771
H	-2.484795	0.474601	-1.163914
H	-2.189528	-1.250418	-1.462719
C	-0.479545	-1.234385	0.750858
H	-0.193696	-2.161288	0.248533
H	-0.022034	-1.228699	1.740699
H	-1.568106	-1.226226	0.879347
N	-0.440766	1.193212	0.719725
H	-1.431027	1.348451	0.558463
H	0.053551	1.987995	0.332718
Br	3.749067	0.0	0.0
