18

C	0.0	0.0	0.0
C	-0.570353	-0.071869	-1.418853
Br	1.947904	0.0	0.0
H	-1.595467	-0.425212	-1.247663
C	-0.399629	1.190424	0.743023
N	-0.58972	2.210677	1.296634
N	-0.383297	-1.229554	0.849951
O	-0.392254	-1.068191	2.061624
O	-0.579857	-2.274383	0.250215
C	0.16976	-1.013988	-2.364532
H	0.382511	-1.979326	-1.909851
H	-0.472853	-1.184021	-3.233321
H	1.104141	-0.571769	-2.720088
C	-0.677696	1.326879	-2.018863
H	-1.421295	1.913977	-1.479627
H	0.283389	1.851596	-2.014022
H	-1.011099	1.238183	-3.056181
Br	-3.649287	0.0	0.0
