13

C	0.0	0.0	0.0
C	-0.505502	-0.031154	-1.443501
Cl	1.761976	0.0	0.0
H	-1.218118	-0.850023	-1.513607
H	-0.37212	0.858893	0.541486
H	0.336447	-0.203511	-2.121496
N	-0.412756	-1.200569	0.80135
O	-0.458674	-2.283438	0.228118
O	-0.565716	-1.02858	2.005044
N	-1.123488	1.271203	-1.703608
H	-1.404814	1.287461	-2.67936
H	-1.976494	1.139339	-1.128666
F	-2.577125	0.0	0.0
