13

C	0.0	0.0	0.0
C	-0.49667	-0.028313	-1.43951
Cl	1.75962	0.0	0.0
H	-1.562363	-0.275906	-1.297385
H	-0.389574	0.847325	0.54879
H	-0.458217	1.017314	-1.77892
N	-0.438426	-1.198208	0.802239
O	-0.458991	-1.039166	2.021011
O	-0.660635	-2.247849	0.219343
N	0.262664	-0.931532	-2.298914
H	-0.383663	-1.468015	-2.857429
H	0.885438	-0.423683	-2.911584
F	-2.618429	0.0	0.0
