13

C	0.0	0.0	0.0
C	-0.440028	0.002843	-1.515871
Cl	1.767783	0.0	0.0
H	0.476149	-0.05424	-2.110792
H	-0.384176	0.84115	0.559852
H	-0.883831	0.989444	-1.650349
N	-0.397176	-1.202853	0.797858
O	-0.672394	-1.020122	1.977141
O	-0.310689	-2.302703	0.256256
N	-1.387404	-0.964802	-2.013625
H	-1.013275	-1.888589	-1.841696
H	-2.175789	-0.810601	-1.357666
F	-2.531567	0.0	0.0
