13

C	0.0	0.0	0.0
C	-0.601492	0.03381	-1.383812
Cl	1.759495	0.0	0.0
H	-0.380684	1.046616	-1.762547
H	-0.363365	0.847537	0.57093
H	-1.698695	-0.0227	-1.104009
N	-0.409599	-1.195477	0.833185
O	-0.197593	-2.311066	0.376422
O	-0.852111	-0.961458	1.951422
N	-0.168612	-1.038176	-2.263823
H	0.708687	-0.823428	-2.719449
H	-0.87594	-1.175172	-2.972221
F	-2.799346	0.0	0.0
