13

C	-0.547912	0.084924	-1.399525
C	0.0	0.0	0.0
F	0.044124	-0.788126	-2.238097
H	1.089099	0.0	0.0
H	-1.629663	-0.046235	-1.451522
H	-0.347464	0.838235	0.602391
N	-0.304254	1.4917	-1.920476
O	-0.848628	2.381217	-1.270679
O	0.349543	1.629746	-2.94175
N	-0.491711	-1.229489	0.677591
O	-1.235745	-1.992044	0.054849
O	-0.133256	-1.388745	1.838187
Cl	3.27208	0.0	0.0
