12
Coordinates from ORCA-job run
  C   1.02700039875548     -0.12644948248524      0.67685557048442
  C   -0.07404742363950      0.07664899881596     -0.09519527955303
  H   1.67098685601309      0.69914363125737      0.94904356924768
  C   1.35746410893892     -1.43083385095816      1.13245927168722
  N   1.57382797264152     -2.53331754466877      1.48586311332307
  N   -0.86422878137757     -0.94624846295604     -0.56145179034399
  H   -0.74696831952990     -1.84635735143003     -0.11924458690333
  H   -1.82041838456629     -0.71200214597119     -0.77200043541539
  C   -0.45193931838473      1.44405550715604     -0.57842200227801
  H   -0.46262937685205      1.46847256250788     -1.67127057624181
  H   -1.45464364926502      1.71097687560741     -0.22903002776990
  H   0.24659591726604      2.19691126312477     -0.21560682623693
