12
Coordinates from ORCA-job run
  C   0.48602942716156     -0.85010857175786      0.81653746758292
  C   -0.26615384761594     -0.21829683371073     -0.12150815809326
  H   0.22591966294007     -1.84840809320643      1.15693689889239
  C   1.64760778572405     -0.25788018490613      1.37938978757794
  N   2.60838318849869      0.22934186303477      1.85410748514958
  N   -1.33396016270528     -0.83734541055731     -0.73845710238864
  H   -2.05227408645192     -0.22309636290684     -1.08710920139513
  H   -1.69983820450009     -1.65672046565913     -0.27863417292241
  C   0.04420160819532      1.15297813428489     -0.64041160960462
  H   0.20330433021888      1.11238291549802     -1.72116238901726
  H   -0.79581797872556      1.82915660932857     -0.45142801210811
  H   0.93259827726022      1.56899640055818     -0.16826099367340
