12
Coordinates from ORCA-job run
  C   1.04044145317529     -0.18469212750375      0.64075610108799
  C   -0.06780468829203      0.07049282825730     -0.10476246485875
  H   1.82694436839342      0.55274038221255      0.73108449774600
  C   1.18898335358469     -1.42773548263773      1.31235750912062
  N   1.24970466905363     -2.47237759990982      1.85294400993133
  N   -1.04584310418294     -0.86578155077784     -0.34320253010825
  H   -1.04378894622597     -1.68046847408238      0.25359225918994
  H   -1.96527227623457     -0.50664599402320     -0.54230451272097
  C   -0.25362515998227      1.37841640832996     -0.81228207032360
  H   -0.33834453888075      1.21524167040797     -1.88979477632197
  H   -1.17266977025968      1.86922114439554     -0.47619663603595
  H   0.58127463985117      2.05158879533140     -0.62219138670640
