12
Coordinates from ORCA-job run
  C   0.95168991236153     -0.11174864326839      0.78052049864511
  C   -0.09170072609532      0.08520178385893     -0.06917195842180
  H   1.65617007949563      0.68366400447542      0.98379977383934
  C   1.13142237307405     -1.36450214495392      1.42578556535382
  N   1.23356768561112     -2.42591564133983      1.92604112366947
  N   -1.07675120447293     -0.84907597230137     -0.28009653159144
  H   -0.88408414531916     -1.78932070757282      0.03325441854828
  H   -1.55955182071757     -0.79991112739574     -1.16189442225809
  C   -0.29575076813632      1.39366369523496     -0.77089774902156
  H   -1.26127145266196      1.82350974276449     -0.49196007090873
  H   -0.29514940310784      1.25136582150160     -1.85630478959037
  H   0.49140946996878      2.10306918899666     -0.51907585826403
