12
Coordinates from ORCA-job run
  C   0.50825185872532     -0.92336377034031      0.71757328845266
  C   -0.26818157521485     -0.20704599012474     -0.13629674333729
  H   0.33357613104521     -1.98476235119161      0.86966267168801
  C   1.56263608814444     -0.32961867218412      1.46078324901914
  N   2.44241146708820      0.15481759949898      2.07497322320814
  N   -1.35336952640908     -0.76626198816088     -0.77925715014163
  H   -1.61410584735150     -0.33475274750559     -1.65137393768046
  H   -1.38384485807853     -1.77367147164463     -0.80821148606347
  C   -0.08535450124387      1.25985319807665     -0.38307106266157
  H   0.74294839122603      1.66397842486104      0.19644607292540
  H   0.11359312261412      1.44421143005905     -1.44367700108632
  H   -0.99956075054549      1.79661633865617     -0.11655112432261
