12
Coordinates from ORCA-job run
  C   0.69281027405375     -0.93486211686241      0.52140383855974
  C   -0.18702292177750     -0.21813834480948     -0.22515714463075
  H   0.72819606725984     -2.01823782025098      0.44939130855093
  C   1.61417323654193     -0.31530009838343      1.40683361376114
  N   2.37680348234588      0.19194890931717      2.14637184299397
  N   -1.00875985587103     -0.81648097905262     -1.15827257625336
  H   -1.86639928071414     -0.32852255490034     -1.36117978473768
  H   -1.12875920486374     -1.81387127890861     -1.07215565874788
  C   -0.28022472995815      1.27703508935395     -0.18014466637330
  H   0.43382269216925      1.70226714665446      0.52312846921926
  H   -1.28657222007284      1.58492966768212      0.12152100878869
  H   -0.08806753911325      1.69023238016018     -1.17374025113077
