12
Coordinates from ORCA-job run
  C   0.81781947602989     -0.13369551954410      0.91763290514123
  C   -0.09000801294034      0.08440149803803     -0.07116067963288
  H   1.35019149643536      0.69177474751435      1.37101709198866
  C   1.07521311235369     -1.45160209567716      1.38220233487851
  N   1.25087228652737     -2.56679842709383      1.71814700760798
  N   -0.87286364156988     -0.91010252221370     -0.60628004711039
  H   -1.20537087106132     -0.75995019551912     -1.54460811974353
  H   -0.59031927728664     -1.86064706841546     -0.41548192622603
  C   -0.37476934438961      1.46340205216496     -0.58425473369349
  H   0.23726342851122      2.20679531666138     -0.07520073397400
  H   -0.16808427816166      1.52538189058995     -1.65741160549432
  H   -1.42894437444811      1.71004032349470     -0.43360149374173
