12
Coordinates from ORCA-job run
  C   0.67174358899299     -0.94340242397405      0.53381304256655
  C   -0.25302915233267     -0.21866205198345     -0.14796868650333
  H   0.63630252190392     -2.02904316994652      0.53705080934063
  C   1.70569469944002     -0.32950458733433      1.28958826648080
  N   2.56891145438634      0.17263318000982      1.91303510935810
  N   -1.31516048649370     -0.81530903532711     -0.79636542192174
  H   -1.69242115097407     -0.30200629398814     -1.57678522242368
  H   -1.22768781696138     -1.80360743687510     -0.97627602762541
  C   -0.26406087359232      1.27965659838570     -0.18194582404951
  H   -1.21193244524009      1.65181118944606      0.21561712001572
  H   0.55269567734011      1.70031366305578      0.40206965270030
  H   -0.17105601646914      1.63612036853134     -1.21283281793842
