12
Coordinates from ORCA-job run
  C   0.44726648355882     -0.81394308444547      0.87401791748473
  C   -0.30733208683860     -0.18625056032550     -0.06497565927857
  H   0.14275103066537     -1.77439215897743      1.28023583880724
  C   1.64562210608520     -0.24769870877897      1.38412445767155
  N   2.64258602969796      0.21383259893870      1.80714411271843
  N   -1.52136856058248     -0.69164285090065     -0.48254178733477
  H   -1.81027970432997     -0.42409311460721     -1.40973089049538
  H   -1.69501161643587     -1.66301927054541     -0.27563584989459
  C   0.05209399227380      1.14226302536172     -0.65829047748303
  H   0.16921688053372      1.05312520576024     -1.74315008528873
  H   0.98145697546163      1.52876549537072     -0.24340791829485
  H   -0.74800153008958      1.86205342314925     -0.46678965861202
