12
Coordinates from ORCA-job run
  C   0.43540024378415     -0.78078001438905      0.90919144237920
  C   -0.29497974388788     -0.19997255587699     -0.07787590518985
  H   0.08507276998127     -1.68429132558396      1.40029452839999
  C   1.68447879748582     -0.25646680707018      1.33486422380782
  N   2.71840619033387      0.17625567011710      1.69477423469648
  N   -1.45752692996068     -0.76987510575485     -0.55596312033548
  H   -1.88483884947710     -1.46790928475084      0.03311348804641
  H   -2.12269788868778     -0.12968953561951     -0.95936921222038
  C   0.13501894536232      1.04029872310985     -0.80087269261393
  H   0.23051703439331      0.83138560588170     -1.86966673925449
  H   -0.61463603148812      1.82898673651173     -0.68000214874618
  H   1.08778546216081      1.41205789342499     -0.42748809896960
