12
Coordinates from ORCA-job run
  C   0.96613149667246     -0.16347801414440      0.75416770549978
  C   -0.08162932550303      0.08999678823903     -0.07514515006678
  H   1.79245933281393      0.53103466232746      0.82704673981883
  C   0.99467216202685     -1.34656773819607      1.53986459964496
  N   0.96545076804474     -2.34908801550562      2.15737552539590
  N   -1.20449673964239     -0.70022525210635     -0.13156685041247
  H   -1.72228527916889     -0.68009196067129     -0.99489459244362
  H   -1.13430605920897     -1.61663112447046      0.28646128119154
  C   -0.12899576937823      1.32387953059793     -0.92448848029044
  H   -1.00333016284897      1.92629611561128     -0.66463706395325
  H   0.76713482834886      1.92849913797120     -0.79180382126006
  H   -0.20980525215636      1.05837587034731     -1.98337989312437
