12
Coordinates from ORCA-job run
  C   0.66685016894215     -0.93169138674410      0.55948966023956
  C   -0.24040488192075     -0.22283653822136     -0.16140602138426
  H   0.65464213218136     -2.01795494725431      0.55403172015737
  C   1.64956131716045     -0.30084990665304      1.36770892178097
  N   2.47012341529932      0.21610390487548      2.03501692446401
  N   -1.25658251050055     -0.83899615339553     -0.86249994493428
  H   -1.13916427718949     -1.82409037815982     -1.04236407609726
  H   -1.61159202606958     -0.32935028631093     -1.65556420349041
  C   -0.28340949295811      1.27498622849191     -0.18740463470628
  H   0.49768246428556      1.70944403993774      0.43416038373046
  H   -1.25561549103786      1.62433045491835      0.17002682506200
  H   -0.15209081819249      1.63990496851561     -1.21119555482188
