12
Coordinates from ORCA-job run
  C   0.82923512081817     -0.14037732454605      0.90623424359624
  C   -0.08101643567452      0.08815928527302     -0.07813177805629
  H   1.49939632160064      0.64436690534446      1.23115602986350
  C   0.90904983152236     -1.41259416899402      1.53345081861484
  N   0.93221009186200     -2.49029541687750      2.00800875727395
  N   -1.02859240224528     -0.83271098915570     -0.45468479614302
  H   -0.88468888311230     -1.78268847452285     -0.14423259187628
  H   -1.37878963255205     -0.75524975991870     -1.39537972773174
  C   -0.17657905925048      1.41690092139393     -0.76475726439868
  H   -0.01983956083163      1.30361026464535     -1.84227059541394
  H   -1.17019933909733      1.84759171352722     -0.61620589694587
  H   0.56981394696043      2.11228704383083     -0.38318719878270
