12
Coordinates from ORCA-job run
  C   0.91511066807413     -0.17394709589402      0.81223777396919
  C   -0.09408077967720      0.08795211882471     -0.06103265135306
  H   1.52669267695548      0.62721873936379      1.20526197401377
  C   1.17452076254761     -1.50454101366949      1.23712538071574
  N   1.34625885014972     -2.62778702131392      1.54669219885246
  N   -0.97155603563415     -0.87165269863306     -0.50619707275016
  H   -0.70234471148111     -1.83337170696591     -0.35704025357931
  H   -1.40438484121021     -0.70020455470232     -1.39891621112506
  C   -0.38639587827816      1.48235171935437     -0.52605932961874
  H   -1.40097812052911      1.76918972487316     -0.23728514329748
  H   -0.31924794421342      1.54673055928308     -1.61674539841774
  H   0.31640535329643      2.19606122947961     -0.09804126740964
