12
Coordinates from ORCA-job run
  C   0.79193448822541     -0.14334080571433      0.93760114051351
  C   -0.05395059192004      0.08294992006172     -0.10299386872037
  H   1.24020659190798      0.68235064018077      1.47394728004789
  C   1.11529395426438     -1.46995868386239      1.32959886442049
  N   1.33985097048063     -2.59073954666011      1.61312297119605
  N   -0.56471839872609     -0.92196308306756     -0.88930128874106
  H   -0.48913936840754     -1.86131863598381     -0.52670980594718
  H   -1.43988717920112     -0.72810320716604     -1.34780300941413
  C   -0.41210475799819      1.47284801125667     -0.53418154978056
  H   -0.09810340487857      1.63749330612603     -1.56819458963016
  H   0.06480748216097      2.21787393234752      0.10133831576393
  H   -1.49518978590780      1.62390815248155     -0.48642445970842
