12
Coordinates from ORCA-job run
  C   0.40961998466092     -0.78569705353442      0.91684430858821
  C   -0.29846060751320     -0.19450994052069     -0.08026592450038
  H   0.10104075478356     -1.74462990053246      1.32364567694560
  C   1.56159408900459     -0.18212732075131      1.48731686000081
  N   2.52045091900223      0.31036320276959      1.96047871528170
  N   -1.47317632278593     -0.73625548175481     -0.56091345555652
  H   -1.70740461232027     -0.49542259804416     -1.51072956279765
  H   -1.63555695310494     -1.70781932125562     -0.34562384905189
  C   0.06728657001442      1.13050789506567     -0.67730962180013
  H   0.24844795653189      1.02503447362594     -1.75179798491514
  H   -0.75692104743768      1.83634945317307     -0.54531125859431
  H   0.96307926916440      1.54420659175921     -0.21733390360030
