12
Coordinates from ORCA-job run
  C   0.84413782528935     -0.19875764067887      0.88067585929738
  C   -0.09805173232587      0.08619657795127     -0.05765009039782
  H   1.31293176524319      0.59232485337218      1.45060279432195
  C   1.22082987316951     -1.54404990608345      1.13956342433323
  N   1.49669793551088     -2.67720300913240      1.30389493656374
  N   -0.80428102843237     -0.88059406519093     -0.73235777257940
  H   -1.16433904929777     -0.62030388145023     -1.63586505073703
  H   -0.43812697435059     -1.82066488088383     -0.68977817809581
  C   -0.50918877694649      1.49674749458287     -0.35309025796886
  H   0.05609410392473      2.20617149020723      0.24984057632008
  H   -1.57463631546212      1.62846543167841     -0.14726046334559
  H   -0.34206762632245      1.73366753562774     -1.40857577771186
