12
Coordinates from ORCA-job run
  C   0.49750267430120     -0.86708442055912      0.79128559666895
  C   -0.22735099496415     -0.23222233227011     -0.16604095282055
  H   0.31828790036993     -1.91376351668440      1.02051891124222
  C   1.52782081572071     -0.21372023734613      1.51795524186520
  N   2.37906988617383      0.32396372653977      2.12801088875401
  N   -1.15568635043507     -0.89842046483375     -0.93969778038309
  H   -1.46966488818572     -1.79020303462953     -0.58914967201245
  H   -1.90172742175317     -0.33211479288532     -1.31041354678619
  C   -0.02369350803745      1.20564052694889     -0.53626568163473
  H   0.24285408309070      1.28254501472561     -1.59354383861051
  H   0.76231306258463      1.66568739323050      0.06017940605698
  H   -0.94872525886544      1.77069213776359     -0.38283857233984
