12
Coordinates from ORCA-job run
  C   0.44012388666376     -0.77307346782560      0.91349731671506
  C   -0.27464986311021     -0.21902440995525     -0.10014069407918
  H   0.13190658723723     -1.71374525509179      1.36100616559874
  C   1.62196636999910     -0.17203085640656      1.42233912353997
  N   2.59892286287633      0.32420123785433      1.85265089842285
  N   -1.36362184163084     -0.85645615659680     -0.65831087531444
  H   -2.05071521046424     -0.25517223948727     -1.08380850946640
  H   -1.76925134777182     -1.60327410215758     -0.11565009265202
  C   0.10165701406114      1.07017887365936     -0.76534212510474
  H   0.26823262386026      0.90149471030389     -1.83244015867695
  H   -0.70837768009540      1.79963651614503     -0.66413365009168
  H   1.00380659837470      1.49726514955825     -0.33066739889121
