12
Coordinates from ORCA-job run
  C   0.52854509339418     -0.81281211328389      0.82784856165326
  C   -0.29972652867296     -0.20064313017748     -0.05776001751415
  H   0.29383222774925     -1.79953612329846      1.21703028337286
  C   1.71841850878000     -0.19829267870455      1.30033284861348
  N   2.70931818167321      0.30289646421479      1.69116971860931
  N   -1.50334938368446     -0.75900306504979     -0.43661766761544
  H   -1.84710546418811     -0.48251680542573     -1.34224255487103
  H   -1.61519651228981     -1.74381125622125     -0.25169594182282
  C   -0.03899521476725      1.16250599894296     -0.62351102711008
  H   -0.86074529994343      1.83446040644050     -0.36244985834986
  H   0.89249270264643      1.58139186455098     -0.24653557225145
  H   0.02051168930296      1.11536043801192     -1.71556877271408
