18

C	0.0	0.0	0.0
C	-0.275319	-0.209726	-1.528259
F	1.363145	0.0	0.0
H	-0.023514	0.781504	-1.930692
C	-0.642519	1.206661	0.589272
H	-0.332321	1.327091	1.627204
H	-0.346908	2.084829	0.009572
H	-1.735821	1.003072	0.505844
N	-0.37746	-1.239507	0.799187
O	-0.434954	-1.114253	2.01879
O	-0.492885	-2.297106	0.187662
C	-1.643275	-0.614763	-2.077425
H	-1.809055	-1.676337	-1.895831
H	-2.441946	-0.091777	-1.524973
H	-1.634899	-0.432223	-3.157587
C	0.740642	-1.112857	-2.097481
N	1.508494	-1.792928	-2.670279
F	-3.110499	0.0	0.0
