18

C	0.0	0.0	0.0
C	-0.453618	0.189886	-1.46665
F	1.371048	0.0	0.0
H	0.45227	-0.018918	-2.052075
C	-0.425592	1.010207	1.030703
H	0.053535	0.752702	1.976009
H	-0.07094	1.993427	0.716983
H	-1.514368	0.955863	1.085102
N	-0.320622	-1.413467	0.475843
O	-0.120683	-2.305339	-0.34541
O	-0.605688	-1.592091	1.651537
C	-0.935748	1.617868	-1.743438
H	-1.850878	1.723557	-1.16464
H	-0.187529	2.364296	-1.467026
H	-1.155907	1.728807	-2.808131
C	-1.47738	-0.724667	-1.988494
N	-2.155759	-1.378641	-2.692154
F	-2.596393	0.0	0.0
