18

C	0.0	0.0	0.0
C	-0.614788	0.095527	-1.385557
F	1.360042	0.0	0.0
H	-1.722369	-0.031237	-1.107594
C	-0.510402	1.055676	0.946895
H	-0.107111	0.863894	1.941372
H	-0.167527	2.032283	0.598922
H	-1.605698	0.971863	0.907053
N	-0.338782	-1.371335	0.624531
O	0.130472	-1.554335	1.747577
O	-0.977921	-2.201917	-0.006592
C	-0.057318	-0.880822	-2.426816
H	1.025304	-0.767203	-2.535988
H	-0.286347	-1.905899	-2.148023
H	-0.518935	-0.677738	-3.395914
C	-0.416934	1.453727	-1.879366
N	-0.252045	2.525243	-2.335384
F	-2.882473	0.0	0.0
