18

C	0.0	0.0	0.0
C	-0.606871	-0.002718	-1.393718
F	1.360176	0.0	0.0
H	-1.711216	-0.120848	-1.116836
C	-0.508285	1.12731	0.861998
H	-0.110803	1.009475	1.869863
H	-0.157989	2.072089	0.44162
H	-1.603445	1.045349	0.824592
N	-0.346128	-1.320002	0.720633
O	0.073985	-1.403299	1.873169
O	-0.94353	-2.210745	0.131586
C	-0.029211	-1.036869	-2.365376
H	1.05627	-0.934217	-2.451677
H	-0.270974	-2.044277	-2.036082
H	-0.461969	-0.885171	-3.356913
C	-0.423245	1.323283	-1.974148
N	-0.26757	2.362942	-2.501107
F	-2.87259	0.0	0.0
