18

C	0.0	0.0	0.0
C	-0.445979	0.078812	-1.470266
F	1.370939	0.0	0.0
H	0.404918	-0.33523	-2.027981
C	-0.427999	1.075108	0.961712
H	-1.517896	1.035888	0.998731
H	-0.054554	2.034268	0.597177
H	0.028429	0.868653	1.930477
N	-0.330731	-1.382681	0.553652
O	-0.615878	-1.496815	1.738919
O	-0.144931	-2.318711	-0.222835
C	-0.680522	1.527569	-1.903486
H	0.186765	2.155496	-1.68274
H	-1.561987	1.886224	-1.373635
H	-0.86699	1.560424	-2.978768
C	-1.606125	-0.722708	-1.884631
N	-2.294732	-1.337204	-2.618015
F	-2.59133	0.0	0.0
