16

C	-0.574636	-0.000825	-1.409252
C	0.0	0.0	0.0
Cl	-0.162286	-1.533321	-2.284049
H	1.100125	0.0	0.0
H	-0.055558	0.786115	-1.959257
C	-2.079145	0.193021	-1.454534
H	-2.314042	1.154842	-0.99207
H	-2.580999	-0.601521	-0.898896
H	-2.444377	0.192208	-2.485091
N	-0.540292	-1.12057	0.791815
H	-0.347201	-1.974697	0.27414
H	0.065375	-1.174574	1.610444
N	-0.379234	1.274178	0.611507
H	-1.160162	1.105023	1.237238
H	0.416228	1.596301	1.155778
H	2.977673	0.0	0.0
