16

C	-0.483669	-0.102855	-1.444847
C	0.0	0.0	0.0
Cl	-0.236628	1.459367	-2.328722
H	1.102825	0.0	0.0
H	-1.571645	-0.244286	-1.447782
C	0.25003	-1.193015	-2.204036
H	1.325821	-1.023957	-2.111348
H	-0.039273	-1.204938	-3.257497
H	0.013717	-2.168271	-1.770484
N	-0.382656	-1.187625	0.754611
H	-1.270442	-1.565236	0.442083
H	0.342854	-1.885898	0.651218
N	-0.617284	1.151062	0.663594
H	-0.364566	1.043142	1.6404
H	-0.139778	1.985053	0.335197
H	3.051217	0.0	0.0
