16

C	-0.54974	-0.046179	-1.418111
C	0.0	0.0	0.0
Cl	0.073346	-1.50144	-2.27728
H	1.093996	0.0	0.0
H	-0.14032	0.802336	-1.973719
C	-2.065787	-0.087315	-1.476612
H	-2.420739	-0.115392	-2.509806
H	-2.402313	-0.981839	-0.952599
H	-2.500138	0.786705	-0.980647
N	-0.499693	-1.135938	0.782279
H	0.311788	-1.673505	1.065861
H	-0.917769	-0.740803	1.615723
N	-0.401286	1.270708	0.637537
H	-0.832766	1.892151	-0.035785
H	0.46889	1.718187	0.919927
H	2.939993	0.0	0.0
