16

C	-0.438136	-0.036815	-1.467757
C	0.0	0.0	0.0
Cl	0.067724	-1.587426	-2.248834
H	1.095357	0.0	0.0
H	0.12668	0.734714	-1.994559
C	-1.930546	0.118163	-1.724608
H	-2.495366	-0.67721	-1.235156
H	-2.299933	1.077534	-1.355596
H	-2.143405	0.065975	-2.794321
N	-0.457569	-1.122459	0.803157
H	0.29527	-1.800978	0.81211
H	-1.269562	-1.572305	0.398033
N	-0.362683	1.295269	0.587493
H	0.489483	1.850701	0.618836
H	-1.052067	1.801214	0.046776
H	2.917398	0.0	0.0
