14

C	-0.359586	0.135673	-1.496003
C	0.0	0.0	0.0
F	-1.707483	0.462812	-1.586742
H	1.095629	0.0	0.0
H	-0.228662	-0.85932	-1.933051
N	0.409071	1.071087	-2.245606
H	0.433467	1.948976	-1.739927
H	1.365776	0.728546	-2.276655
C	-0.55218	-1.213886	0.575794
N	-0.988519	-2.236706	0.95289
N	-0.446884	1.188764	0.790063
O	-0.213927	2.292533	0.304147
O	-0.988036	0.999032	1.87475
Cl	3.181039	0.0	0.0
