19

C	-0.429792	0.013339	-1.478535
C	0.0	0.0	0.0
Br	0.108495	-1.752992	-2.234603
H	1.09526	0.0	0.0
C	-1.929387	0.13082	-1.692659
H	-2.271047	1.102636	-1.325745
H	-2.175525	0.047557	-2.754342
H	-2.467714	-0.640698	-1.140108
C	0.396454	1.04176	-2.236025
H	0.057088	2.046885	-1.9763
H	0.294132	0.903506	-3.315454
H	1.43562	0.929867	-1.912717
N	-0.583852	-1.064585	0.783585
H	-0.747562	-1.861526	0.18218
H	0.134776	-1.352427	1.443399
N	-0.483268	1.321052	0.576131
O	0.229981	2.304624	0.378672
O	-1.5427	1.363659	1.203418
F	2.620875	0.0	0.0
