19

C	-0.160008	-0.017304	-1.525537
C	0.0	0.0	0.0
Br	-2.082013	-0.154224	-2.078741
H	1.093188	0.0	0.0
C	0.459644	1.216453	-2.158262
H	-0.080914	2.128985	-1.914496
H	0.497654	1.102831	-3.244201
H	1.470827	1.273483	-1.741134
C	0.57533	-1.256539	-2.018207
H	0.103992	-2.174422	-1.665157
H	0.606047	-1.27815	-3.109784
H	1.586023	-1.169076	-1.598618
N	-0.500889	-1.117686	0.732972
H	-1.357479	-1.489217	0.342953
H	0.217806	-1.825233	0.767287
N	-0.57066	1.256068	0.57146
O	-1.696771	1.204183	1.068642
O	0.102478	2.285167	0.490968
F	2.637399	0.0	0.0
