19

C	-0.232438	0.011925	-1.506481
C	0.0	0.0	0.0
Br	-2.195604	0.018056	-1.929095
H	1.094073	0.0	0.0
C	0.426361	1.197967	-2.189917
H	1.453985	1.212542	-1.809977
H	-0.055246	2.144189	-1.954713
H	0.416782	1.04939	-3.273248
C	0.37738	-1.277628	-2.036961
H	1.414785	-1.264555	-1.682307
H	0.342231	-1.296649	-3.12922
H	-0.126993	-2.150033	-1.628061
N	-0.512631	-1.164129	0.642308
H	-1.487894	-1.033919	0.883432
H	0.013145	-1.31485	1.493943
N	-0.491849	1.268892	0.657577
O	0.053604	2.331326	0.363946
O	-1.406998	1.178516	1.484223
F	2.610799	0.0	0.0
