19

C	-0.519233	0.015068	-1.44324
C	0.0	0.0	0.0
Br	0.172629	-1.640798	-2.277109
H	1.090015	0.0	0.0
C	-2.034782	-0.049776	-1.539088
H	-2.360228	-0.101599	-2.5813
H	-2.476197	0.840956	-1.074257
H	-2.399612	-0.934231	-1.009526
C	0.103493	1.171732	-2.212625
H	1.174174	1.195409	-1.98394
H	-0.053484	1.053438	-3.288097
H	-0.347149	2.119015	-1.897485
N	-0.479146	-1.118324	0.771527
H	-1.291812	-0.854217	1.315841
H	0.275166	-1.401608	1.385586
N	-0.477804	1.298761	0.631915
O	0.176085	2.32081	0.448048
O	-1.538814	1.274808	1.276166
F	2.599813	0.0	0.0
