19

C	-0.162546	-0.023032	-1.525394
C	0.0	0.0	0.0
Br	-2.084885	-0.163927	-2.076697
H	1.093182	0.0	0.0
C	0.454583	1.209198	-2.164289
H	0.486993	1.093781	-3.250815
H	-0.084553	2.123129	-1.920036
H	1.46842	1.265856	-1.751892
C	0.572106	-1.264017	-2.014698
H	0.603548	-1.286457	-3.106346
H	1.582704	-1.177512	-1.594275
H	0.099338	-2.181196	-1.659593
N	-0.49706	-1.114711	0.739347
H	0.221622	-1.823053	0.774858
H	-1.357617	-1.48621	0.357396
N	-0.572208	1.257522	0.568843
O	-1.697924	1.203715	1.067335
O	0.097988	2.288685	0.485223
F	2.637692	0.0	0.0
