19

C	-0.162822	-0.019779	-1.524956
C	0.0	0.0	0.0
Br	-2.08565	-0.158538	-2.075648
H	1.093204	0.0	0.0
C	0.452799	1.213046	-2.162552
H	0.484341	1.097625	-3.249572
H	1.466764	1.2705	-1.750503
H	-0.087	2.126305	-1.916831
C	0.571836	-1.260683	-2.015393
H	0.602862	-1.283242	-3.107744
H	1.583334	-1.174364	-1.595148
H	0.099221	-2.177949	-1.660265
N	-0.496962	-1.116703	0.736175
H	0.222978	-1.823443	0.77302
H	-1.355838	-1.489605	0.351742
N	-0.571373	1.255133	0.573963
O	0.097389	2.287028	0.490371
O	-1.695082	1.198876	1.076779
F	2.637131	0.0	0.0
