19

C	-0.218159	0.008464	-1.509162
C	0.0	0.0	0.0
Br	-2.177849	0.029696	-1.950943
H	1.094076	0.0	0.0
C	0.454735	1.187989	-2.189854
H	-0.022602	2.138497	-1.962639
H	0.455355	1.035217	-3.272557
H	1.478399	1.195553	-1.799621
C	0.389971	-1.285438	-2.031208
H	0.365188	-1.305749	-3.123763
H	-0.122247	-2.155038	-1.625309
H	1.424323	-1.276052	-1.667045
N	-0.518904	-1.162288	0.63979
H	-1.499745	-1.034808	0.860278
H	-0.010931	-1.304168	1.503625
N	-0.493959	1.270455	0.651189
O	-1.410169	1.181769	1.47661
O	0.050945	2.332404	0.355226
F	2.611576	0.0	0.0
