13

C	-0.372526	-0.038141	-1.464302
C	0.0	0.0	0.0
Cl	0.179753	1.404577	-2.313334
H	1.092801	0.0	0.0
H	-0.32855	-0.936829	0.460803
C	0.189672	-1.223441	-2.110742
N	0.613878	-2.179341	-2.646273
N	-1.914228	-0.152867	-1.607838
O	-2.36104	-1.268803	-1.360071
O	-2.562933	0.851202	-1.855823
C	-0.586446	1.130271	0.683259
N	-1.043327	2.041396	1.270226
F	2.478741	0.0	0.0
