13

C	-0.380919	-0.185194	-1.450991
C	0.0	0.0	0.0
Cl	0.198004	1.145234	-2.44997
H	1.092766	0.0	0.0
H	-0.332499	-0.880551	0.558037
C	0.145958	-1.446143	-1.971847
N	0.54571	-2.456347	-2.418339
N	-1.928249	-0.28188	-1.577914
O	-2.557301	0.682208	-1.979617
O	-2.396662	-1.338123	-1.166851
C	-0.57836	1.200058	0.562589
N	-1.031391	2.170127	1.048915
F	2.480295	0.0	0.0
