13

C	-0.241372	-0.015118	-1.479247
C	0.0	0.0	0.0
Cl	-1.960511	-0.295544	-1.975443
H	1.094777	0.0	0.0
H	-0.354842	-0.936333	0.432435
C	0.215769	1.204826	-2.13372
N	0.55817	2.206555	-2.642887
N	0.538165	-1.209053	-2.063623
O	1.18318	-1.015675	-3.08322
O	0.397593	-2.268321	-1.473856
C	-0.596882	1.14559	0.638593
N	-1.07072	2.075234	1.181254
F	2.470541	0.0	0.0
