13

C	-0.320738	0.040578	-1.487173
C	0.0	0.0	0.0
Cl	0.025481	-1.531106	-2.212211
H	1.093828	0.0	0.0
H	-0.352922	-0.950762	0.403543
C	-1.690753	0.422252	-1.828931
N	-2.804396	0.697236	-2.087095
N	0.588659	1.122424	-2.139678
O	0.376756	2.243185	-1.694007
O	1.371992	0.8053	-3.014635
C	-0.577213	1.092413	0.752732
N	-1.052533	1.937557	1.418544
F	2.487717	0.0	0.0
