13

C	-0.371252	-0.062052	-1.46382
C	0.0	0.0	0.0
Cl	0.182097	1.365234	-2.336348
H	1.092791	0.0	0.0
H	-0.328154	-0.92895	0.476383
C	0.187948	-1.258779	-2.09017
N	0.607853	-2.224315	-2.610989
N	-1.913558	-0.177075	-1.606905
O	-2.560922	0.824501	-1.867444
O	-2.361136	-1.288827	-1.345204
C	-0.586369	1.142017	0.663658
N	-1.044298	2.062841	1.234359
F	2.478292	0.0	0.0
