17

C	0.0	0.0	0.0
C	-0.42136	0.127711	-1.502458
F	1.389031	0.0	0.0
H	0.532291	-0.000822	-2.027921
C	-0.326737	1.234945	0.783343
N	-0.482596	2.176363	1.470007
N	-0.502819	-1.166164	0.63884
H	-1.529842	-1.032048	0.534772
H	-0.287235	-1.087454	1.628686
C	-0.982837	1.515771	-1.820064
H	-0.298243	2.323567	-1.541851
H	-1.925576	1.610287	-1.274948
H	-1.16926	1.586622	-2.898526
N	-1.308561	-0.953913	-1.916785
H	-1.517698	-0.795875	-2.89719
H	-2.166572	-0.776865	-1.369423
F	-2.819494	0.0	0.0
