17

C	0.0	0.0	0.0
C	-0.397274	-0.08732	-1.517576
F	1.409042	0.0	0.0
H	0.552969	-0.260036	-2.038314
C	-0.356453	1.309741	0.601385
N	-0.496996	2.368671	1.087054
N	-0.498432	-1.027132	0.848292
H	-1.512809	-0.795395	0.858004
H	-0.440335	-1.879586	0.295754
C	-1.034372	1.200602	-2.039688
H	-1.237871	1.093779	-3.111951
H	-1.972002	1.334342	-1.49686
H	-0.386885	2.072672	-1.904207
N	-1.243073	-1.265832	-1.707827
H	-1.448774	-1.339822	-2.698593
H	-2.110669	-1.003618	-1.204603
F	-2.812602	0.0	0.0
