17

C	0.0	0.0	0.0
C	-0.413444	-0.01861	-1.525909
F	1.366478	0.0	0.0
H	0.547237	-0.217507	-2.017382
C	-0.356569	1.277336	0.687301
N	-0.528024	2.272629	1.287636
N	-0.525655	-1.136217	0.683792
H	-0.28132	-1.053977	1.666554
H	-1.55341	-0.948736	0.595641
C	-0.957895	1.32367	-1.993214
H	-0.278566	2.153561	-1.772725
H	-1.908256	1.47697	-1.476029
H	-1.129096	1.277066	-3.071223
N	-1.349929	-1.051151	-1.92386
H	-2.194636	-0.829033	-1.372527
H	-1.001469	-1.936898	-1.572499
F	-2.815529	0.0	0.0
