14

C	-0.483609	-0.002512	-1.438014
C	0.0	0.0	0.0
Br	-2.616959	-0.346835	-1.265799
H	1.09389	0.0	0.0
H	-0.315629	-0.958939	0.435032
C	-0.487715	1.305823	-2.084147
N	-0.458163	2.335281	-2.651121
N	0.125677	-0.960742	-2.213226
H	0.356312	-1.819046	-1.736802
H	-0.224183	-1.082197	-3.14927
N	-0.488148	1.163103	0.712923
H	0.240384	1.499998	1.327193
H	-1.314963	0.948564	1.25167
Cl	3.414774	0.0	0.0
