14

C	-0.322431	0.108466	-1.499624
C	0.0	0.0	0.0
Br	-0.299313	-1.85389	-2.242516
H	1.094152	0.0	0.0
H	-0.396291	-0.928138	0.40959
C	-1.69712	0.521735	-1.782953
N	-2.813116	0.823549	-1.992038
N	0.613083	0.933453	-2.113706
H	1.565005	0.721132	-1.816274
H	0.523567	1.007183	-3.115963
N	-0.500552	1.19126	0.676048
H	0.279583	1.722062	1.038489
H	-1.111179	0.943562	1.440976
Cl	3.427922	0.0	0.0
