14

C	-0.575032	0.044265	-1.413849
C	0.0	0.0	0.0
Br	-0.080967	1.692461	-2.337324
H	1.092511	0.0	0.0
H	-0.316424	-0.978888	0.405466
C	-0.051018	-1.065278	-2.228422
N	0.262219	-2.01603	-2.845808
N	-2.033551	0.007866	-1.344098
H	-2.29655	-0.894415	-0.955704
H	-2.419617	0.062456	-2.281313
N	-0.461726	1.136749	0.770535
H	0.239776	1.369278	1.457846
H	-1.344547	0.958568	1.222944
Cl	3.450534	0.0	0.0
