14

C	-0.573297	-0.160196	-1.4059
C	0.0	0.0	0.0
Br	-0.079508	1.343279	-2.550368
H	1.089674	0.0	0.0
H	-0.315728	-0.911	0.540719
C	-0.045424	-1.373174	-2.053748
N	0.236815	-2.397515	-2.557054
N	-2.030832	-0.19269	-1.33399
H	-2.291611	-1.029776	-0.818397
H	-2.414366	-0.276076	-2.269573
N	-0.465951	1.233175	0.601412
H	0.239893	1.5706	1.238302
H	-1.340312	1.112264	1.087702
Cl	3.454273	0.0	0.0
