14

C	-0.614252	-0.041494	-1.398593
C	0.0	0.0	0.0
Br	0.170915	1.508491	-2.463454
H	1.094774	0.0	0.0
H	-0.357439	-0.907823	0.497434
C	-0.224949	-1.234066	-2.145715
N	0.047618	-2.225662	-2.711973
N	-2.023038	0.042074	-1.296813
H	-2.461207	0.196747	-2.194545
H	-2.225845	0.799847	-0.650609
N	-0.549796	1.173854	0.700113
H	-0.549403	0.972244	1.691921
H	0.108079	1.932988	0.564217
Cl	3.458749	0.0	0.0
