14

C	-0.335495	-0.087122	-1.489955
C	0.0	0.0	0.0
Br	-2.320585	-0.31947	-1.686302
H	1.095028	0.0	0.0
H	-0.394002	0.923837	0.438689
C	-0.036466	1.173358	-2.172269
N	0.198496	2.192433	-2.707731
N	0.310446	-1.187805	-2.152785
H	1.309298	-0.973463	-2.148135
H	0.187242	-1.979384	-1.523837
N	-0.413153	-1.231756	0.658412
H	-1.314073	-1.128086	1.104057
H	0.277795	-1.471083	1.356891
Cl	3.387378	0.0	0.0
