14

C	-0.33614	-0.060891	-1.490982
C	0.0	0.0	0.0
Br	-2.320078	-0.299195	-1.689001
H	1.103093	0.0	0.0
H	-0.394592	0.915267	0.455452
C	-0.044316	1.213172	-2.149626
N	0.17876	2.249778	-2.655891
N	0.315085	-1.146258	-2.173511
H	1.311168	-0.91961	-2.176284
H	0.207722	-1.945627	-1.552392
N	-0.41051	-1.244291	0.635831
H	-1.312832	-1.15285	1.081444
H	0.280127	-1.497128	1.329613
Cl	3.386834	0.0	0.0
