14

C	-0.623414	0.284789	-1.372373
C	0.0	0.0	0.0
Br	0.170382	1.980357	-2.062828
H	1.098486	0.0	0.0
H	-0.354256	-0.999517	0.280345
C	-0.280029	-0.753738	-2.341602
N	-0.101546	-1.6341	-3.099007
N	-2.055947	0.438871	-1.324651
H	-2.264755	0.768753	-0.383927
H	-2.505941	-0.454186	-1.491422
N	-0.560767	0.966353	0.957128
H	-0.006314	1.813135	0.881194
H	-0.386996	0.60661	1.888321
Cl	3.472344	0.0	0.0
