14

C	-0.375907	-0.026182	-1.483472
C	0.0	0.0	0.0
Br	-0.098713	-1.860351	-2.180812
H	1.091995	0.0	0.0
H	-0.323805	0.985839	0.358791
C	-1.793666	0.28125	-1.694214
N	-2.917061	0.597465	-1.830793
N	0.448845	0.857536	-2.278874
H	1.419249	0.692194	-2.003632
H	0.221645	1.814965	-2.025208
N	-0.665338	-1.026679	0.79088
H	-0.134728	-1.885283	0.693787
H	-0.59893	-0.76041	1.765659
Cl	3.453914	0.0	0.0
