14

C	-0.566229	-0.05033	-1.42235
C	0.0	0.0	0.0
Br	-0.054688	-1.783	-2.243147
H	1.089141	0.0	0.0
H	-0.34728	-0.888503	0.538505
C	-2.039808	-0.089963	-1.352999
N	-3.213684	-0.056482	-1.279737
N	-0.068607	1.032474	-2.199524
H	0.050656	1.824948	-1.57737
H	-0.677893	1.267598	-2.971233
N	-0.425648	1.266322	0.602641
H	-1.250912	1.149742	1.174867
H	0.327508	1.612046	1.182987
Cl	3.456552	0.0	0.0
