14

C	-0.594504	-0.01064	-1.407263
C	0.0	0.0	0.0
Br	0.026006	1.575759	-2.38431
H	1.095768	0.0	0.0
H	-0.368006	0.91346	0.473842
C	-0.130148	-1.182117	-2.169797
N	0.124306	-2.160671	-2.770434
N	-2.033519	0.035545	-1.303307
H	-2.463438	-0.201431	-2.189577
H	-2.269476	-0.669592	-0.607525
N	-0.547854	-1.174039	0.708378
H	0.121872	-1.930043	0.603563
H	-0.574229	-0.962723	1.698062
Cl	3.475792	0.0	0.0
