14

C	-0.327691	-0.247745	-1.469637
C	0.0	0.0	0.0
Br	-2.22578	-0.858245	-1.671652
H	1.101944	0.0	0.0
H	-0.339864	-0.875252	0.556226
C	-0.286185	1.009951	-2.23555
N	-0.196028	1.991086	-2.877635
N	0.543401	-1.269887	-1.957871
H	0.551017	-1.307177	-2.968585
H	1.487488	-1.09739	-1.606759
N	-0.618247	1.215816	0.50484
H	0.040478	1.978535	0.388046
H	-0.773993	1.116951	1.499986
Cl	3.417409	0.0	0.0
