14

C	-0.393764	0.043327	-1.482108
C	0.0	0.0	0.0
Br	-0.073077	-1.736021	-2.262741
H	1.093637	0.0	0.0
H	-0.395637	-0.89372	0.493631
C	-1.831961	0.308546	-1.624579
N	-2.989354	0.497077	-1.69869
N	0.363524	1.015668	-2.241716
H	0.204395	1.901622	-1.764843
H	1.348271	0.788778	-2.092266
N	-0.429163	1.26858	0.590101
H	0.296383	1.605251	1.209128
H	-1.284924	1.161965	1.116893
Cl	3.419063	0.0	0.0
