15

C	-0.442496	-0.010925	-1.45228
C	0.0	0.0	0.0
Br	0.077274	1.643007	-2.317899
H	1.093082	0.0	0.0
H	-0.321206	-0.933506	0.468651
C	0.149056	-1.198264	-2.184014
H	-0.133688	-1.178868	-3.237515
H	1.235695	-1.151983	-2.081471
H	-0.21459	-2.121912	-1.723131
N	-1.970048	-0.150749	-1.545899
O	-2.535414	0.237684	-2.558958
O	-2.507552	-0.748527	-0.615417
C	-0.541578	1.116349	0.76205
N	-0.995952	2.000736	1.386733
Br	3.469322	0.0	0.0
