15

C	-0.401243	0.031787	-1.464592
C	0.0	0.0	0.0
Br	-2.359307	-0.041173	-1.673306
H	1.095639	0.0	0.0
H	-0.35008	-0.914933	0.477941
C	0.160834	1.223961	-2.195964
H	-0.232065	2.134514	-1.740929
H	-0.103211	1.198652	-3.250841
H	1.249143	1.203705	-2.078386
N	0.086905	-1.267177	-2.111138
O	0.438532	-1.209043	-3.28375
O	0.046216	-2.280961	-1.425038
C	-0.501664	1.166022	0.709952
N	-0.926532	2.104516	1.273445
Br	3.431934	0.0	0.0
