15

C	-0.565492	0.003053	-1.413879
C	0.0	0.0	0.0
Br	0.204159	-1.450448	-2.455443
H	1.090153	0.0	0.0
H	-0.32101	0.909716	0.515402
C	-2.077795	-0.062867	-1.473896
H	-2.41771	-0.029982	-2.507142
H	-2.417047	-0.987488	-1.007559
H	-2.498018	0.785803	-0.924085
N	-0.16098	1.296123	-2.119514
O	-0.588639	1.446501	-3.269686
O	0.518871	2.104093	-1.482601
C	-0.505537	-1.157716	0.728942
N	-0.966062	-2.058914	1.32505
Br	3.527018	0.0	0.0
