15

C	-0.429199	0.170308	-1.454515
C	0.0	0.0	0.0
Br	0.000991	1.942746	-2.094612
H	1.092762	0.0	0.0
H	-0.31934	-0.996869	0.322812
C	0.258614	-0.861773	-2.32655
H	-0.039047	-0.745857	-3.370323
H	1.336767	-0.719142	-2.223519
H	-0.003969	-1.861268	-1.97996
N	-1.948519	-0.041657	-1.517763
O	-2.704508	0.899121	-1.725458
O	-2.300115	-1.198799	-1.289183
C	-0.567481	0.993756	0.897073
N	-1.063516	1.773433	1.622289
Br	3.452432	0.0	0.0
