15

C	-0.429748	-0.022401	-1.449656
C	0.0	0.0	0.0
Br	0.156598	1.616732	-2.350671
H	1.101177	0.0	0.0
H	-0.333563	-0.918595	0.493973
C	0.206037	-1.205962	-2.167263
H	1.289282	-1.155159	-2.023341
H	-0.171644	-2.138816	-1.732346
H	-0.007229	-1.19747	-3.237414
N	-1.934576	-0.035553	-1.670925
O	-2.606909	0.88946	-1.088718
O	-2.329479	-0.443628	-2.823436
C	-0.496803	1.161418	0.835977
N	-1.404491	1.232763	1.601959
Br	2.703664	0.0	0.0
