15
Coordinates from ORCA-job run
  C   -0.27990420207261     -0.29477237238578     -0.40100561912270
  C   0.69847342649864     -0.30787161446770      0.80270659370560
  Cl  -0.32919614396283     -2.05399995113840     -0.96133744979702
  H   0.37738858308285     -1.09254438305236      1.49628624513113
  N   0.19968695323900      0.59700501024112     -1.38449384089387
  H   -0.46793508380447      0.72295098879959     -2.13441050122776
  H   1.09098909313877      0.31125141060461     -1.77288005026916
  C   -1.68387137548654      0.07652280475694      0.03554566829910
  H   -2.36920007256278     -0.03591506891905     -0.80677348682420
  H   -1.70030280335726      1.11471175288242      0.37188565863521
  H   -2.02735217985877     -0.57692776314814      0.83835694552876
  C   0.66874374165147      0.98182029040441      1.50068227001451
  N   0.61126830416270      2.00070148939516      2.08087376151272
  C   2.06415324279927     -0.60894781715663      0.36260384158682
  N   3.14905851653257     -0.83498477681619     -0.02504003627915
