15
Coordinates from ORCA-job run
  C   -0.26063357040637     -0.20436589671743     -0.38769109768515
  C   0.79914502020279      0.28855201829751      0.63148240121003
  Cl  -0.22910090336903     -2.03576192883077     -0.33024344344097
  H   0.74151637315177      1.38432871057282      0.61782461297153
  N   0.08727917472953      0.32510973486531     -1.65845598007219
  H   -0.63882792264719      0.13692274961976     -2.33864847522591
  H   0.96065842888978     -0.05759025974173     -2.00372273330321
  C   -1.65012751320054      0.24547493476576      0.02087593915568
  H   -1.91651188887148     -0.14483192468308      1.00284373425886
  H   -1.68838209017428      1.33751573089133      0.03137173786852
  H   -2.38139958525134     -0.12573358449091     -0.70000568150300
  C   2.14986516710847     -0.09163504028400      0.20943587078459
  N   3.22010366618191     -0.37686521975683     -0.17971540529437
  C   0.52429833312416     -0.17362828136637      1.99300487958564
  N   0.28211731053183     -0.50849174314136      3.09164364068996
