15
Coordinates from ORCA-job run
  C   -0.22444787413686     -0.37284844536919     -0.41766699985072
  C   0.71281275025803     -0.30374293859591      0.82001446363782
  Cl  -0.17498142342548     -2.06711380334928     -0.99170761809504
  H   0.33263407691731     -0.99347185708747      1.58261417358392
  N   0.34862308842871      0.45821139084330     -1.45048465111743
  H   0.18091482812369      1.43730787364030     -1.24018470557824
  H   -0.07057503921266      0.24611664868307     -2.34783538153801
  C   -1.65842174551716     -0.04436028186065     -0.02362835429349
  H   -2.30491418101630     -0.15734028295130     -0.89546972761852
  H   -2.02276028431928     -0.70737142912274      0.76416021550223
  H   -1.72136784299936      0.99028229307105      0.32396526473771
  C   0.69386158504388      1.05822792868537      1.36491963361128
  N   0.63160158486307      2.16087445826534      1.76424221141319
  C   2.08613387283756     -0.68986847009338      0.48451019193484
  N   3.19188660415485     -1.01390308475851      0.26255128367046
