15
Coordinates from ORCA-job run
  C   -0.28506829162099     -0.32714300032307     -0.39575661687953
  C   0.75864210680335      0.30461165714651      0.59056358516629
  Cl  -0.12240702626741     -2.10391585265708     -0.23861258843845
  H   0.63381586676074      1.39333303409573      0.51444559633150
  N   -0.04119771680431      0.01422454247772     -1.76584536675266
  H   0.88984078460121     -0.24642585664213     -2.06921801227791
  H   -0.20186032478757      0.99994183234685     -1.93501235622294
  C   -1.68877438672627      0.08900868787579      0.00053523280362
  H   -1.92203188489420     -0.22057130703849      1.01930587987556
  H   -1.79055862709379      1.17698981553592     -0.07170197586126
  H   -2.39550533271463     -0.37597828669361     -0.68620151999561
  C   2.12461517131396     -0.01407847932686      0.17104991607910
  N   3.20577112119130     -0.25181323070422     -0.22034921689741
  C   0.52891266386246     -0.07665841533791      1.98489620523931
  N   0.30580587637617     -0.36152514075514      3.10190123783036
