15
Coordinates from ORCA-job run
  C   -0.25721988922990     -0.18134626683849     -0.40070884638460
  C   0.78791056758047      0.21578135103143      0.67387500201190
  Cl  -0.40548550678023     -2.00632308381729     -0.33635668781113
  H   0.83827515967590      1.31185056617951      0.65364351947036
  N   0.20911940319882      0.30151435049737     -1.65229376548880
  H   1.05907469678681     -0.16657706113296     -1.94725470241776
  H   -0.49329671407090      0.17698255100815     -2.37085967767803
  C   -1.61696341817555      0.40369210663305     -0.07130043779763
  H   -1.97285637152242      0.05221786231947      0.89680555086449
  H   -1.55075914659973      1.49436844784913     -0.06985262468894
  H   -2.33996354389026      0.09568075272397     -0.82924055324525
  C   2.11633523784982     -0.29781269195905      0.32943901907251
  N   3.17371819406738     -0.68907768331643      0.00227967597028
  C   0.39400671569395     -0.20559506946370      2.01939382682417
  N   0.05810461541585     -0.50535613171415      3.10343070129844
