16

C	-0.459954	-0.001728	-1.448014
C	0.0	0.0	0.0
Cl	0.343609	-1.242561	-2.383551
H	1.092744	0.0	0.0
H	-0.275664	0.96723	-1.905086
N	-1.96595	-0.196547	-1.47444
O	-2.447132	-1.272022	-1.804809
O	-2.595226	0.782554	-1.077575
C	-0.523737	-1.154963	0.819871
H	-0.039124	-1.153041	1.794786
H	-0.269862	-2.088042	0.314015
H	-1.604231	-1.100717	0.966296
N	-0.370245	1.327769	0.603636
O	-0.881678	1.332134	1.722796
O	-0.087404	2.331397	-0.046543
Br	3.404139	0.0	0.0
