16

C	-0.559072	-0.009799	-1.412842
C	0.0	0.0	0.0
Cl	0.228586	1.179208	-2.435512
H	1.089995	0.0	0.0
H	-1.627957	0.178247	-1.418437
N	-0.400278	-1.394068	-1.989919
O	0.676037	-1.724457	-2.459817
O	-1.399056	-2.106539	-1.882904
C	-0.492147	-1.158168	0.854376
H	-1.580806	-1.244495	0.845725
H	-0.135677	-1.003455	1.873841
H	-0.051486	-2.086954	0.492286
N	-0.470477	1.266232	0.65588
O	0.2361	1.726425	1.545942
O	-1.567727	1.721452	0.316465
Br	3.46156	0.0	0.0
