16

C	-0.458935	-0.003195	-1.448056
C	0.0	0.0	0.0
Cl	0.349861	-1.240686	-2.384567
H	1.092699	0.0	0.0
H	-0.276691	0.966204	-1.9047
N	-1.964948	-0.20012	-1.472767
O	-2.596237	0.782777	-1.088006
O	-2.4449	-1.278982	-1.793722
C	-0.523702	-1.156141	0.817698
H	-1.604555	-1.104018	0.962844
H	-0.040159	-1.153978	1.793309
H	-0.267556	-2.088087	0.310965
N	-0.371606	1.325155	0.606633
O	-0.892123	1.325918	1.721568
O	-0.084731	2.331669	-0.036796
Br	3.408337	0.0	0.0
