16

C	-0.460329	0.008159	-1.449051
C	0.0	0.0	0.0
Cl	0.34578	-1.221836	-2.395614
H	1.092692	0.0	0.0
H	-0.280854	0.981899	-1.898008
N	-1.964482	-0.195532	-1.477093
O	-2.437567	-1.274673	-1.807494
O	-2.600057	0.777401	-1.076174
C	-0.519896	-1.163775	0.810062
H	-1.600984	-1.11633	0.955364
H	-0.036436	-1.168394	1.78581
H	-0.259969	-2.091458	0.29689
N	-0.379403	1.322884	0.610941
O	-0.90807	1.317331	1.722107
O	-0.08855	2.331388	-0.0276
Br	3.412467	0.0	0.0
