16

C	-0.547412	-0.0131	-1.417527
C	0.0	0.0	0.0
Cl	0.222169	1.200315	-2.429827
H	1.089999	0.0	0.0
H	-1.620845	0.147329	-1.434665
N	-0.342048	-1.388125	-1.998865
O	-1.352496	-2.091856	-2.033189
O	0.783096	-1.719895	-2.337866
C	-0.522784	-1.154715	0.838683
H	-0.185583	-1.017253	1.86761
H	-0.09268	-2.089153	0.476733
H	-1.613617	-1.217777	0.810121
N	-0.485745	1.271373	0.633815
O	-1.647381	1.614976	0.394907
O	0.277484	1.854906	1.393617
Br	3.48871	0.0	0.0
