16

C	-0.53741	-0.091682	-1.415211
C	0.0	0.0	0.0
Cl	-2.305757	0.02333	-1.474523
H	1.092715	0.0	0.0
H	-0.251322	-1.058777	-1.824987
N	0.08436	0.904832	-2.386114
O	-0.56539	1.865214	-2.773727
O	1.226023	0.602557	-2.708394
C	-0.444571	-1.178607	0.842709
H	0.008287	-1.099558	1.830109
H	-1.527737	-1.23418	0.95081
H	-0.068443	-2.092669	0.376698
N	-0.418515	1.298699	0.61342
O	-0.127782	2.311777	-0.017019
O	-1.001099	1.280161	1.697686
Br	3.425017	0.0	0.0
