16

C	-0.566842	-0.044045	-1.409031
C	0.0	0.0	0.0
Cl	0.293362	1.020748	-2.508473
H	1.089999	0.0	0.0
H	-1.620477	0.2176	-1.424495
N	-0.511447	-1.46863	-1.906445
O	0.536042	-1.901054	-2.362325
O	-1.557517	-2.103583	-1.755218
C	-0.474524	-1.136076	0.894341
H	-0.052376	-2.077348	0.541331
H	-1.564616	-1.215255	0.922756
H	-0.084321	-0.956831	1.896194
N	-0.443528	1.287137	0.637714
O	-1.359537	1.928938	0.116554
O	0.117796	1.592631	1.683428
Br	3.441502	0.0	0.0
