16

C	-0.462646	0.009247	-1.446983
C	0.0	0.0	0.0
Cl	0.34821	-1.214798	-2.399695
H	1.09272	0.0	0.0
H	-0.286417	0.984404	-1.893752
N	-1.967701	-0.195726	-1.4754
O	-2.440899	-1.274065	-1.808131
O	-2.60473	0.778401	-1.077594
C	-0.519257	-1.165281	0.808037
H	-0.264187	-2.091173	0.289756
H	-1.599525	-1.116463	0.958696
H	-0.030807	-1.173384	1.781169
N	-0.375809	1.318732	0.617165
O	-0.887577	1.310375	1.736371
O	-0.099583	2.330523	-0.02271
Br	3.406927	0.0	0.0
