15

C	0.0	0.0	0.0
C	-0.419925	-0.115176	-1.468384
Br	1.965737	0.0	0.0
H	0.27512	0.472911	-2.074544
H	-0.25762	0.991233	0.379042
H	-0.281351	-1.159993	-1.772315
C	-0.581283	-1.071393	0.892929
H	-1.6745	-0.981475	0.859123
H	-0.25	-0.956494	1.927052
H	-0.29175	-2.063767	0.538585
C	-1.843975	0.357322	-1.745519
H	-2.128676	0.075099	-2.766025
H	-1.899469	1.447985	-1.679341
H	-2.624921	-0.015048	-1.065869
H	-4.328918	0.0	0.0
