15

C	0.0	0.0	0.0
C	-0.564517	0.110376	-1.40219
Br	1.967828	0.0	0.0
H	-1.645702	0.261457	-1.218183
H	-0.252383	0.913296	0.541794
H	-0.158442	1.004941	-1.888103
C	-0.53202	-1.189623	0.766537
H	-1.629979	-1.094503	0.718599
H	-0.200381	-1.167924	1.808078
H	-0.212232	-2.134278	0.320517
C	-0.363793	-1.115957	-2.282347
H	-0.949817	-1.957601	-1.908054
H	0.68728	-1.415564	-2.34008
H	-0.712545	-0.907872	-3.298199
H	-3.401337	0.0	0.0
