13
Coordinates from ORCA-job run
  C   -0.32161204419189      0.26424897255248      0.16837739891550
  C   0.92711806138640     -0.14839244781551     -0.62852438203269
  Br  -0.68713453599001      2.16071374337610     -0.17745257665410
  H   0.72980955358837      0.01100033114096     -1.69240843963285
  H   1.09528589297629     -1.21989093968257     -0.47211681936603
  C   -0.08036478555761      0.11042871948330      1.60054688669568
  N   0.10319328203090     -0.06700083705283      2.74809384728462
  C   -1.53075627915492     -0.56009224600201     -0.26369207549894
  H   -1.71170337413247     -0.41972363649060     -1.33096247035485
  H   -1.34118279838659     -1.61854492993339     -0.06393580119071
  H   -2.41960340411437     -0.25252038091745      0.28706440701247
  C   2.13039600119136      0.58236756340508     -0.24196038332504
  N   3.10555443035454      1.15740608793644      0.06697040814694
