13
Coordinates from ORCA-job run
  C   -0.41072340784700      0.44272901994114      0.18973102736143
  C   0.92805774068892      0.61670516953724     -0.55261477558157
  Br  -1.47016685493122      2.05781277586512     -0.17177869582166
  H   1.43805892993229      1.51558541695279     -0.19748942485973
  H   0.72273128231359      0.74583193290967     -1.61907653584652
  C   -0.18027532548646      0.38259461326162      1.63087304291255
  N   0.01977819282050      0.30219697438754      2.78649922751014
  C   -1.18435546805145     -0.78008986652359     -0.28929597338616
  H   -1.35873740569740     -0.70734322941939     -1.36463925909892
  H   -0.60769345254668     -1.68401487247764     -0.07714112144225
  H   -2.14548955898259     -0.84606287014549      0.22078377928264
  C   1.78890226547710     -0.54902371435003     -0.35718108015978
  N   2.45991306231041     -1.49892134993899     -0.19767021087018
