13
Coordinates from ORCA-job run
  C   -0.31751530033263      0.38362255531084      0.28700439811541
  C   1.18896966889944      0.15519642247733      0.05870303972682
  Br  -0.82505200479703      2.09286628684943     -0.53360920453795
  H   1.48752450223574     -0.74567205655273      0.60661291613339
  H   1.75830825903392      0.99599227601474      0.46242775602997
  C   -0.54557206543693      0.50438877463150      1.72513692906056
  N   -0.71197540634123      0.56252079466748      2.88726995771555
  C   -1.17260159621087     -0.73073051757905     -0.30536168619243
  H   -1.02121808903973     -0.78214347665849     -1.38446163109122
  H   -2.22807900789376     -0.54824127262176     -0.10323058047462
  H   -0.88621811791401     -1.68581935621350      0.14477351613629
  C   1.50861233512735     -0.02007004559188     -1.35523755876826
  N   1.76481682266975     -0.18191038473392     -2.48902785185350
