13
Coordinates from ORCA-job run
  C   -0.31165293332634      0.27551774438976      0.17023941448567
  C   0.91605189129465     -0.17994237125217     -0.63614606787694
  Br  -0.62171845868740      2.18036823880582     -0.18233822345047
  H   1.05272481915107     -1.25516360963133     -0.47476068110921
  H   0.71359322092392     -0.02061289744190     -1.69910081520990
  C   -0.06181699648186      0.12076717730609      1.60088748189489
  N   0.12610894856909     -0.05948856885057      2.74719963817757
  C   -1.54970559172461     -0.51346448768349     -0.24574491764978
  H   -1.73711135546388     -0.37215240045410     -1.31177930501823
  H   -2.42307653886080     -0.17657777785852      0.31259567701439
  H   -1.39036195715830     -1.57639630804945     -0.04321642489633
  C   2.14479874970072      0.51597908285289     -0.26553694054075
  N   3.14116620206374      1.06216617786697      0.02770116417910
