13
Coordinates from ORCA-job run
  C   -0.37547197086476      0.47943033026001      0.17296547941137
  C   0.93104052336328      0.51374904184398     -0.64323308542912
  Br  -1.35979350806836      2.12202591338509     -0.26867260932190
  H   0.67893629160934      0.57136708034822     -1.70594106382301
  H   1.50847054388619      1.40518177333161     -0.38597464198295
  C   -0.07282174559546      0.52097244461110      1.60120669671336
  N   0.18869908619846      0.52753406634109      2.74736899795591
  C   -1.24021058943196     -0.72827645396824     -0.16830507211637
  H   -1.46572256788145     -0.72872713329032     -1.23650794319878
  H   -2.17593020848203     -0.69678873284855      0.38999172515552
  H   -0.70502848705932     -1.64600580472122      0.08812576245074
  C   1.73307656096521     -0.68341773692863     -0.39526239946659
  N   2.35575607136086     -1.65804478836413     -0.19476184634818
