12
Coordinates from ORCA-job run
  C   0.37862014294285      0.41160357211490      0.60123069293220
  C   -0.24841390286089     -0.42431387942235     -0.50479599553417
  Br  -1.04533909003813      1.52424739464940      1.40359735102982
  H   -0.64265480366155      0.26148003405355     -1.27225053576771
  H   0.70434333560118     -0.24479513085543      1.40874504570017
  H   0.57273485725454     -0.99130376481262     -0.95871205166228
  N   1.45927495487558      1.26705389803465      0.20813064173781
  H   1.25084048458132      1.74914452817641     -0.65727022504325
  H   2.31209366104201      0.73222306152625      0.10335868822032
  N   -1.21276454284684     -1.37457753505002      0.02856532571234
  H   -1.48837364195991     -2.02884391633607     -0.69260347033636
  H   -2.04336145493018     -0.88091826207865      0.33100453301111
