19

C	-0.540593	-0.021735	-1.437363
C	0.0	0.0	0.0
F	-0.324392	1.245002	-2.000267
H	1.091054	0.0	0.0
C	0.273101	-1.019966	-2.232803
H	1.33068	-0.757187	-2.165709
H	-0.048574	-1.005391	-3.278095
H	0.138169	-2.02097	-1.822509
C	-2.034224	-0.272029	-1.510674
H	-2.580648	0.484951	-0.944852
H	-2.349481	-0.222239	-2.555523
H	-2.276554	-1.258839	-1.11622
N	-0.442449	-1.159841	0.718694
H	0.22621	-1.357435	1.452349
H	-1.347779	-0.980246	1.134959
N	-0.465996	1.28948	0.656351
O	-1.53525	1.246465	1.280642
O	0.210824	2.296712	0.503674
Cl	3.389553	0.0	0.0
