19

C	-0.459332	-0.013065	-1.465034
C	0.0	0.0	0.0
F	-1.848029	-0.291816	-1.489512
H	1.09067	0.0	0.0
C	-0.251769	1.310832	-2.166976
H	-0.512434	1.206537	-3.22334
H	-0.888644	2.080793	-1.728977
H	0.790568	1.621243	-2.073514
C	0.2387	-1.150831	-2.180859
H	0.005979	-2.100207	-1.695209
H	-0.107908	-1.19796	-3.216993
H	1.320399	-0.998161	-2.150475
N	-0.472474	-1.094639	0.788946
H	-1.345014	-1.463669	0.43914
H	0.239172	-1.808155	0.848086
N	-0.496739	1.283404	0.617899
O	-1.651858	1.288693	1.044515
O	0.248814	2.260586	0.593334
Cl	3.367711	0.0	0.0
