19

C	-0.456811	-0.035226	-1.458968
C	0.0	0.0	0.0
F	-1.863465	-0.200683	-1.466564
H	1.091505	0.0	0.0
C	-0.14468	1.231811	-2.225467
H	0.916075	1.470574	-2.130485
H	-0.727664	2.072539	-1.848966
H	-0.394969	1.080166	-3.278551
C	0.163719	-1.251809	-2.113532
H	-0.142086	-2.150715	-1.5801
H	1.252725	-1.170329	-2.0673
H	-0.160496	-1.310921	-3.156269
N	-0.485838	-1.128884	0.719914
H	0.046922	-1.240591	1.570998
H	-1.46426	-1.005505	0.941084
N	-0.466332	1.314557	0.617979
O	0.211456	2.317949	0.416522
O	-1.521267	1.300088	1.2582
Cl	3.36145	0.0	0.0
