19

C	-0.540176	-0.001426	-1.438613
C	0.0	0.0	0.0
F	-0.336312	1.276689	-1.979886
H	1.091057	0.0	0.0
C	0.282396	-0.979189	-2.25065
H	0.161409	-1.98741	-1.852823
H	-0.043597	-0.954865	-3.294479
H	1.337168	-0.704811	-2.183662
C	-2.032109	-0.264546	-1.515579
H	-2.264366	-1.263038	-1.143625
H	-2.348975	-0.19351	-2.558919
H	-2.585107	0.474592	-0.932303
N	-0.442837	-1.169805	0.701253
H	-1.352928	-0.999265	1.112212
H	0.220719	-1.373803	1.438546
N	-0.467992	1.280557	0.673958
O	-1.540534	1.228785	1.29184
O	0.210481	2.289201	0.540911
Cl	3.390318	0.0	0.0
