19

C	-0.503239	0.009636	-1.456513
C	0.0	0.0	0.0
F	-0.33838	-1.337616	-1.871284
H	1.100651	0.0	0.0
C	-1.985505	0.298969	-1.574201
H	-2.316103	0.054814	-2.586465
H	-2.189542	1.351817	-1.381506
H	-2.535121	-0.315312	-0.859402
C	0.375162	0.829855	-2.374919
H	0.093402	0.621675	-3.411192
H	0.259516	1.89263	-2.172128
H	1.420072	0.556341	-2.214111
N	-0.5844	-1.114231	0.722807
H	-0.149381	-1.142498	1.637298
H	-0.286476	-1.945284	0.225323
N	-0.378386	1.259458	0.723662
O	-0.559383	1.176275	1.936313
O	-0.421126	2.313693	0.089063
Cl	3.363923	0.0	0.0
