19

C	-0.459242	0.051514	-1.456992
C	0.0	0.0	0.0
F	-1.875014	-0.01556	-1.462374
H	1.095064	0.0	0.0
C	-0.055682	1.317642	-2.182035
H	1.019534	1.474274	-2.075769
H	-0.5754	2.1867	-1.780218
H	-0.310495	1.216167	-3.240155
C	0.070337	-1.181266	-2.160976
H	-0.308382	-2.076695	-1.671694
H	-0.244934	-1.167629	-3.207877
H	1.161779	-1.185844	-2.104484
N	-0.493479	-1.161399	0.660619
H	-1.471571	-1.038245	0.887541
H	0.032369	-1.31181	1.511393
N	-0.447677	1.279769	0.705696
O	-1.440905	1.214259	1.43552
O	0.194447	2.305022	0.496754
Cl	3.354637	0.0	0.0
