10
Coordinates from ORCA-job run
  C   0.60393026097519     -0.48477397575728     -0.43803651159254
  C   -0.37903564562143      0.68277540834402     -0.45938397304597
  F   -0.05551671084119     -1.63765021357177     -0.80495310155278
  H   0.14830546160110      1.61014286913499     -0.21762097766054
  H   1.39950366322024     -0.30794647725807     -1.16770444086519
  H   -0.77969301545780      0.77425569679132     -1.47244826902574
  C   1.20440762172024     -0.66477429629514      0.89160767807104
  N   1.69948065013684     -0.78129660990407      1.94910313298755
  C   -1.47952938651134      0.48331037935393      0.48086431155335
  N   -2.36085289922185      0.32595721916206      1.23857215113082
