10
Coordinates from ORCA-job run
  C   0.51986594392372     -0.41942241892479     -0.35614584756774
  C   -0.51181909016693      0.44322396329635      0.36893100581087
  F   -0.06279014873814     -1.61600804764377     -0.71191307089917
  H   -0.88028384142104     -0.10636784361563      1.23881484707546
  H   0.86494362890221      0.07012276068786     -1.27081591490415
  H   -0.04197842142404      1.36436083826323      0.72443332610822
  C   1.67007930580419     -0.67826359485721      0.52339028344666
  N   2.58001262527837     -0.86019314618104      1.24146510018887
  C   -1.62771054441907      0.76832449263843     -0.51618866491827
  N   -2.51031945773929      1.03222299633658     -1.24197106434075
