10
Coordinates from ORCA-job run
  C   0.73121338448163     -0.11634701189852     -0.15963182374633
  C   -0.73831272751357      0.12026046037959      0.18508977398320
  F   0.82922175360297     -0.49895098756178     -1.47898006778667
  H   -1.29827474496380     -0.79678970825372     -0.01524181820512
  H   1.31489467528029      0.79922130569972     -0.03191294585644
  H   -0.83738437999246      0.35182083396743      1.24931182744543
  C   1.28745228091252     -1.17259266967908      0.69946362855629
  N   1.71044821766977     -2.00695714769811      1.40771793591434
  C   -1.28716048079094      1.21583065540740     -0.61068946857725
  N   -1.71309797868641      2.10550426963707     -1.24512704172744
