10
Coordinates from ORCA-job run
  C   0.64575059542862     -0.43821966490157     -0.42708821788401
  C   -0.40664996316994      0.66716064601275     -0.45867011426995
  F   0.06979252485225     -1.62216286356831     -0.83235756145533
  H   0.05413285023846      1.61982914015643     -0.18196897234836
  H   1.44965585831599     -0.19946523481086     -1.12939754867649
  H   -0.78038073475592      0.75466544817658     -1.48230973827823
  C   1.21693179042831     -0.60460506901308      0.91724280906342
  N   1.68740364378670     -0.70734647789395      1.98730044261127
  C   -1.52135824210712      0.37996447723159      0.44130822461949
  N   -2.41527832301734      0.15017959861041      1.16494067661818
