10
Coordinates from ORCA-job run
  C   0.70836656316375     -0.29037526834679     -0.41019687739792
  C   -0.78915035993991      0.01804999361050     -0.42560645976143
  F   0.93117216876597     -1.34509915764208     -1.27178227048940
  H   -1.08824828522937      0.19995889136458     -1.46109327190524
  H   1.28398504126698      0.56670481096966     -0.76910047324769
  H   -1.33777146348816     -0.85360073637459     -0.06061848395977
  C   1.16979624061023     -0.65725927734876      0.93604784025173
  N   1.53146198248876     -0.95443562578512      2.01214993541505
  C   -1.09522694447841      1.18596128762993      0.39481542872750
  N   -1.31638494315985      2.12909508192266      1.05638463236715
