10
Coordinates from ORCA-job run
  C   0.79265327271360     -0.14571700852811     -0.32527006287403
  C   -0.66452908286422      0.26382475855021     -0.54042487017592
  F   1.23768339549156     -0.74877660435820     -1.48406838204940
  H   -0.71299022266070      0.89478166272064     -1.43164557140806
  H   1.41758807214834      0.73161629462479     -0.13938689479225
  H   -1.26406835599602     -0.63115374429942     -0.72352650276812
  C   0.92867097269513     -1.08730972844885      0.79489288532819
  N   1.02476429493231     -1.84634234209306      1.68468423148351
  C   -1.18323705066430      0.99112906080870      0.61409298763599
  N   -1.57653529579571      1.57794765102331      1.55065217962007
