10
Coordinates from ORCA-job run
  C   0.80118546288021     -0.15937841505079     -0.29642042081226
  C   -0.63898722236856      0.28023149212815     -0.56206495072691
  F   1.28036295630304     -0.75418443521598     -1.44578314909855
  H   -0.64092989949163      0.91766477807985     -1.45000467828862
  H   1.43409990590373      0.70327277092178     -0.07279517219264
  H   -1.25001407415634     -0.60053354294713     -0.77365044811117
  C   0.87584036993895     -1.11796846024925      0.81513274988670
  N   0.92347983283569     -1.87897845129290      1.70714767601840
  C   -1.18557525213565      1.01016664372556      0.57779360303348
  N   -1.60046207970945      1.60070761990071      1.50264479029158
