10
Coordinates from ORCA-job run
  C   0.80750553329255     -0.14685302289555     -0.28652870426784
  C   -0.61307873662291      0.35312539404354     -0.55000446121199
  F   1.31114330167849     -0.63397794905167     -1.47520795771825
  H   -1.23312288266692     -0.48557882789387     -0.87566576205069
  H   1.45143108355651      0.67253241674979      0.04327364472423
  H   -0.57177740124254      1.08227077869449     -1.36329540277212
  C   0.82533464854721     -1.21467354734565      0.72330773893902
  N   0.83148241557231     -2.06543226161144      1.53151094418166
  C   -1.18536946043114      0.96976274464623      0.64285913431081
  N   -1.62254850168355      1.46982427466411      1.60975082586518
