10
Coordinates from ORCA-job run
  C   0.71693553904511     -0.31256727206201     -0.37869081219304
  C   -0.73994348940704      0.13892565203717     -0.48678541178827
  F   0.93113582118892     -1.28402350832059     -1.33472893627815
  H   -1.39531241160063     -0.70883681472535     -0.27309072422030
  H   1.39547483944951      0.51958566471298     -0.58351056501853
  H   -0.92148790677751      0.45944799122022     -1.51586149065121
  C   1.01287444295256     -0.86509624178469      0.95073376380906
  N   1.23942032102627     -1.30907978917858      2.01308399480897
  C   -1.01965151170384      1.23663067288402      0.43408131099036
  N   -1.21844564417335      2.12601364521684      1.17276887054111
