10
Coordinates from ORCA-job run
  C   0.79135425009639     -0.18110473008781     -0.31382741675006
  C   -0.63923610157390      0.30495974472939     -0.54862980104146
  F   1.22877019181849     -0.78308765576003     -1.47598434641232
  H   -1.27870630397453     -0.55513019049232     -0.76132275433645
  H   1.45528483295317      0.65998432301628     -0.09811998638013
  H   -0.63787539062139      0.95438318588973     -1.42782873542858
  C   0.85755023398782     -1.14865225933407      0.79043873241217
  N   0.89874228312281     -1.91498614311232      1.67816139673355
  C   -1.14531268252959      1.03551844955535      0.60939930325273
  N   -1.52957131327926      1.62711527559582      1.54671360795053
