10
Coordinates from ORCA-job run
  C   0.64871957477970     -0.44201662764126     -0.41922800966372
  C   -0.42753278789624      0.63891440916365     -0.47920149300380
  F   0.09261506683480     -1.65338793792412     -0.76683217588917
  H   0.01685446890347      1.61149948649875     -0.24896568479041
  H   1.43704484113274     -0.21541560667322     -1.14295158292771
  H   -0.81880016744620      0.67669431287949     -1.49930615850975
  C   1.24316402698384     -0.54074611961055      0.92177764487899
  N   1.72949113163042     -0.59050142587959      1.98851060454393
  C   -1.52221626033199      0.36581571164647      0.44942456104680
  N   -2.40033989459055      0.14814379754040      1.19577229431486
