15
Coordinates from ORCA-job run
  C   0.89111943314269     -0.44834367559889      0.24139463954804
  C   -0.51090156414129      0.15614072907985      0.21627361636226
  F   1.12218226729462     -1.16271398235463     -0.89211858134637
  H   -0.62031276466516      0.72428619601305      1.14480557769528
  H   1.08954360596758     -1.07404930746560      1.11377544368552
  N   1.89059374357329      0.67596528327857      0.30465965085452
  O   2.52624624761208      0.95402808699835     -0.70319855690328
  O   1.92636270522164      1.26014946326329      1.38417116643358
  C   -1.54003100163911     -0.96550372284412      0.17547109937051
  H   -1.45020498687162     -1.53348609114881     -0.75292525573400
  H   -1.41644012974577     -1.65590615564455      1.01369169705219
  H   -2.53887832213727     -0.53182716910265      0.21669211658598
  N   -0.72463631010350      1.06528535237560     -0.89528702470997
  H   -0.18165638658516      1.91407047306826     -0.79796312243215
  H   -0.46498653692301      0.62190452008227     -1.76844246646211
