15
Coordinates from ORCA-job run
  C   0.89960482035205      0.05303929837992      0.78660337004358
  C   -0.56116343220224      0.18854894345239      0.38057383137956
  F   1.07622156280697     -1.06136419268655      1.54886714393376
  H   -1.09784506186226      0.29773877549899      1.33785257220190
  H   1.26824147843469      0.92128919963650      1.33531507146010
  N   1.78677707628458     -0.05357640702943     -0.42269351112314
  O   2.34423077761946      0.98166286489393     -0.77189968836072
  O   1.86522642425059     -1.15104409535612     -0.96399140661680
  C   -1.09086603971272     -1.04916093884049     -0.32654466456604
  H   -0.87746360584764     -1.95215428407699      0.24445793458214
  H   -0.64453314979906     -1.14419780004737     -1.31619524418311
  H   -2.17504527781396     -0.96329991299418     -0.43770935855793
  N   -0.67427863379363      1.34387170002446     -0.49770655178563
  H   -1.60147253878954      1.37954138261157     -0.90122614541391
  H   -0.51963439992730      2.21010546653336      0.00429664700623
