15
Coordinates from ORCA-job run
  C   0.93397343500690      0.04826279237767      0.81391405817239
  C   -0.53962346739773      0.23135370473027      0.48007093473212
  F   1.10484255222314     -0.99457093918773      1.66524916009246
  H   -1.03008470797234      0.17433973610155      1.45840785408388
  H   1.37242339516217      0.95584424770121      1.22993747943213
  N   1.70266569523772     -0.25719318328016     -0.45041875327787
  O   1.76519971374672      0.67638112025136     -1.24797041708534
  O   2.14940579364663     -1.38316957330393     -0.60988949673878
  C   -1.05714026631371     -0.90700524994305     -0.39807056750311
  H   -0.80020135322775     -1.88452279814486      0.01740116445289
  H   -0.64119800199708     -0.83774339059435     -1.40682963157284
  H   -2.14446827029614     -0.84476337344741     -0.47925065613218
  N   -0.74856953266849      1.58235056027288     -0.02267933009982
  H   -0.32592921948127      1.68238445955677     -0.93787069336150
  H   -1.74129576566876      1.75905188690976     -0.11400110519441
