15
Coordinates from ORCA-job run
  C   1.05103000021472      0.51909933677181      0.06175476943695
  C   -0.42452516440789      0.27646408103901      0.34007149188446
  F   1.57600338420409      1.35776816282138      0.98920462001477
  H   -0.48016552122418      0.07804141209453      1.41555305525330
  H   1.23792361435155      0.91100880019237     -0.93818702545836
  N   1.79245800947209     -0.78560472021744      0.15274136741092
  O   2.08292404138904     -1.32472758931877     -0.91317425002153
  O   1.98382628623054     -1.23642083610367      1.27707182195231
  C   -0.97516928124262     -0.91720095231864     -0.43394412193748
  H   -2.04736735975850     -1.00011392920022     -0.24588684153052
  H   -0.82377262622872     -0.78662109601427     -1.50968325443956
  H   -0.50802794190245     -1.85899048784097     -0.14096337836274
  N   -1.10292165230461      1.53794853634481      0.05629787148471
  H   -1.81945366684244      1.72421334509242      0.74322883909341
  H   -1.54276212195061      1.50513593665763     -0.85508496478065
