15
Coordinates from ORCA-job run
  C   1.00390822536487      0.48143733559889     -0.03841685323290
  C   -0.45464154547231      0.22528687562717      0.27520238053205
  F   1.47390511616748      1.49477339365605      0.74596798700060
  H   -0.49974375503407     -0.00078735434001      1.35168224330632
  H   1.17695646499353      0.71951259915289     -1.08726182013408
  N   1.80596007937694     -0.74873368087335      0.27367978116894
  O   2.13718115663239     -1.43996204755888     -0.68737425700071
  O   2.01359304882547     -0.99118581110360      1.45753561065837
  C   -0.99477297014138     -0.95051844845403     -0.52197275782297
  H   -2.06032659181735     -1.07555856202708     -0.31465381237080
  H   -0.49688773603561     -1.88487991876129     -0.26027247934278
  H   -0.87330031624128     -0.77180371547914     -1.59230366295623
  N   -1.15851602108675      1.44663634875476     -0.10046854414345
  H   -2.15795974437374      1.29903717546826     -0.03537581901911
  H   -0.91535541115819      2.19674581033937      0.53503200335676
