15
Coordinates from ORCA-job run
  C   0.93106615303417     -0.39608070338492      0.42945074073674
  C   -0.46137529045381      0.15508450766712      0.16028244907912
  F   1.23870152632553     -1.42747270404411     -0.38851669476900
  H   -0.68596900205770      0.83363434613874      0.99299149412169
  H   1.06708919632687     -0.70598940894129      1.46961392226816
  N   1.93819434663837      0.70757144082886      0.20166263584745
  O   2.84408614204192      0.52558319812926     -0.59447863414785
  O   1.73427458445919      1.72029580760613      0.86858312035139
  C   -1.46033034383797     -0.99193960100323      0.15196988483632
  H   -2.47757553891286     -0.60074062152689      0.07798755145087
  H   -1.39430960411466     -1.58863323797151      1.06439072733465
  H   -1.26938618707043     -1.64241688061089     -0.70259751122065
  N   -0.44529923318210      0.82856016958607     -1.13262201105943
  H   -0.20543382093887      1.80590042177639     -1.02481405973411
  H   -1.35373292825765      0.77664326575028     -1.57290361509533
