15
Coordinates from ORCA-job run
  C   0.92677817242780      0.01383336348679      0.82383491022910
  C   -0.53858990995329      0.23717440130537      0.47820310108290
  F   1.06411075331447     -1.04484055789766      1.66137276530232
  H   -1.04018801959614      0.17692253785438      1.45072370223010
  H   1.38211345306785      0.90482799949326      1.25729298451920
  N   1.70085133389310     -0.29174565414949     -0.43721694094250
  O   1.79153762546171      0.65083204496356     -1.22146652152424
  O   2.12425310598754     -1.42517721560126     -0.60752640519878
  C   -1.07426804479677     -0.87548912922392     -0.42176588273682
  H   -0.64644602349330     -0.80183045749621     -1.42525404125410
  H   -2.15886716040984     -0.78557836633052     -0.51293503161724
  H   -0.84534649250127     -1.86487373655265     -0.01812703619649
  N   -0.71033283084240      1.59987524538768     -0.00607469546235
  H   -1.69742335996801      1.80258964301897     -0.10364731674214
  H   -0.27618260259147      1.70347988174169     -0.91541359168895
