14

C	0.0	0.0	0.0
C	-0.607119	0.022615	-1.387217
Cl	1.866931	0.0	0.0
H	-1.696687	-0.071311	-1.15788
H	-0.252759	-0.845941	-1.955197
N	-0.469867	1.087294	0.735532
H	-0.017406	1.221127	1.62514
H	-0.503104	1.913846	0.156518
C	-0.299437	-1.282803	0.66052
N	-0.413984	-2.352051	1.133606
N	-0.346383	1.310845	-2.015619
H	-1.126549	1.551272	-2.610505
H	0.496238	1.274332	-2.571692
H	-3.429984	0.0	0.0
