14

C	0.0	0.0	0.0
C	-0.14113	-0.161436	-1.551193
Cl	1.843573	0.0	0.0
H	0.245386	0.810237	-1.911136
H	0.599274	-0.900803	-1.86687
N	-0.37738	1.342102	0.465598
H	-0.705644	1.242635	1.436296
H	0.482724	1.88148	0.489835
C	-0.544657	-1.099841	0.785188
N	-0.677424	-1.956955	1.592799
N	-1.389963	-0.547016	-2.194745
H	-1.328724	-0.159118	-3.135544
H	-2.129635	-0.079174	-1.649633
H	-2.269813	0.0	0.0
