14

C	0.0	0.0	0.0
C	-0.260024	0.044988	-1.521685
Cl	1.868625	0.0	0.0
H	0.160465	-0.873757	-1.95174
H	-1.344467	0.033712	-1.615412
N	-0.325775	1.27352	0.583667
H	0.069679	1.322037	1.515424
H	0.088151	1.98487	-0.007243
C	-0.784288	-1.092021	0.622911
N	-0.704454	-2.134348	1.212544
N	0.267654	1.271361	-2.122796
H	1.22363	1.136482	-2.422719
H	-0.293057	1.513203	-2.928398
H	-2.27549	0.0	0.0
