11
Coordinates from ORCA-job run
  C   0.41229783416724     -0.46781564852361      0.50246905523461
  C   -1.00683830985879     -0.25811954027518      0.00642823147206
  Cl  0.42274978099466     -0.78579833031151      2.23610130543679
  H   -1.44502009945737      0.59494079974823      0.52731641074145
  H   0.93124520707976     -1.27813981125609     -0.00497539647995
  H   -1.59802166229159     -1.14763851814098      0.23700819283391
  N   1.23439770317353      0.77225166027078      0.23640558951834
  O   0.70530155611809      1.84880761033730      0.48518432075132
  O   2.36666994641674      0.58571294953144     -0.19520477320575
  C   -1.01804137185706     -0.02123168776157     -1.43564598523180
  N   -1.00274058448521      0.15803051638119     -2.59508695107099
