11
Coordinates from ORCA-job run
  C   0.35316650666553     -0.38822010168243      0.67261071276333
  C   -0.56048686352659     -0.70662765401998     -0.50488972141320
  Cl  -0.54101679242977     -0.05612676198730      2.13699149274064
  H   0.05982870270028     -0.96727232581992     -1.36596601148139
  H   1.04394989591493     -1.21099537638336      0.85179306736886
  H   -1.17811825647488     -1.57040446217441     -0.24818458322938
  N   1.23734827566147      0.78299043556403      0.26633787750113
  O   1.07322490571693      1.87627603179646      0.78095305078163
  O   2.04234222861034      0.48703074004837     -0.61188760899840
  C   -1.42151428847978      0.42312680660817     -0.84648056997275
  N   -2.10872431435844      1.33022266805037     -1.13127770606049
