11
Coordinates from ORCA-job run
  C   0.44502411641121     -0.46337410370949      0.48006519462640
  C   -0.98340344795890     -0.33650810834418     -0.01685570470689
  Cl  0.47135610138304     -0.87439491459074      2.19333347211712
  H   -1.50357185621980     -1.28199043356716      0.15478862864274
  H   1.02733122590758     -1.20208796507776     -0.06656221001590
  H   -1.49073091274876      0.44705244719002      0.54869778635798
  N   1.17013541623397      0.84923878368940      0.28897975959955
  O   2.31719830872265      0.77381046300722     -0.13681745475644
  O   0.55649971199629      1.86675434390951      0.58654090675992
  C   -1.00773337809752     -0.01448879541860     -1.44236800109872
  N   -1.00310528562976      0.23498828291177     -2.58880237752575
