16

C	0.0	0.0	0.0
C	-0.291597	0.165434	-1.521228
Cl	1.794486	0.0	0.0
H	0.334645	1.031785	-1.770573
C	-0.527109	1.134161	0.836126
H	-1.621237	1.081845	0.817131
H	-0.161439	1.033807	1.856347
H	-0.183344	2.080454	0.412606
N	-0.449446	-1.338626	0.557881
O	-0.760354	-2.209844	-0.24264
O	-0.41368	-1.441867	1.777072
C	-1.605189	0.546806	-2.072966
N	-2.296912	1.019842	-2.902869
C	0.261041	-0.928349	-2.334896
N	0.752398	-1.716379	-3.052894
Br	-3.716716	0.0	0.0
