16

C	0.0	0.0	0.0
C	-0.300948	-0.162372	-1.523742
Cl	1.768073	0.0	0.0
H	0.325938	0.628639	-1.955192
C	-0.548183	1.277828	0.574168
H	-0.219279	2.117558	-0.042693
H	-0.179406	1.406019	1.591155
H	-1.641823	1.208801	0.571408
N	-0.46071	-1.190674	0.82466
O	-0.366617	-1.055586	2.037883
O	-0.842583	-2.184405	0.224427
C	-1.61492	0.09527	-2.143565
N	-2.309012	0.365514	-3.058189
C	0.237804	-1.411224	-2.082826
N	0.701835	-2.351969	-2.61079
Br	-3.737084	0.0	0.0
