14
Coordinates from ORCA-job run
  C   1.07339145405398      0.49415319302628     -0.29502036968747
  C   -0.24397255644128      0.13466463230998      0.39874782416988
  Cl  0.87593481127704      0.56249843236486     -2.06606690810453
  H   -0.06104195733453      0.20210008721079      1.47651453221605
  H   1.37647373735710      1.49287524333914      0.02312067229823
  C   2.10434617850761     -0.47155803204877      0.06649524137408
  N   2.91574728999990     -1.25617337666432      0.39119182331707
  C   -0.82883813832941     -1.20537228712827      0.02184193494969
  H   -1.74677182698775     -1.38438041702208      0.58027331823917
  H   -0.11261258151533     -1.99206416445712      0.26782304047037
  H   -1.06061516462671     -1.25066736954529     -1.04063388533691
  N   -1.20074533844818      1.27319698479132      0.12036273372954
  O   -2.29471603674058      1.00858260674984     -0.36436104832456
  O   -0.79557987077187      2.39314446707364      0.42071109068938
