14
Coordinates from ORCA-job run
  C   1.22943255409628      0.14636823735280      0.24015662482574
  C   -0.26179707052839      0.10958253303520      0.56361384992374
  Cl  1.93914768431231      1.70778488635470      0.72794340086028
  H   -0.38038114129418      0.27085894318325      1.63590676951574
  H   1.70810234026773     -0.61474301297370      0.86312993297331
  C   1.54673440550920     -0.15436274816803     -1.15287366306565
  N   1.84057599310892     -0.46741806560155     -2.24584341144556
  C   -0.92502345717497     -1.17483916162135      0.09963096886593
  H   -1.97578231041388     -1.17625998266879      0.39530004946985
  H   -0.86035783725105     -1.26944439095067     -0.98506174439679
  H   -0.43893204462359     -2.03732556469601      0.56111498937378
  N   -0.96046588020830      1.27289633088697     -0.07558794428268
  O   -0.81660032611329      1.40491491084596     -1.28721699735163
  O   -1.64465290968679      1.97998708502123      0.65878717473394
