14
Coordinates from ORCA-job run
  C   1.17046811858488     -0.16770612170604     -0.19949616578878
  C   -0.21924978003725      0.15309393285131      0.35664318660205
  Cl  2.16478627675139     -0.92031566781377      1.07803792518744
  H   -0.13451578262628      0.86773688261150      1.17659987954085
  H   1.08545052924078     -0.88777168693768     -1.01399184794818
  C   1.83259778250802      1.03851273451838     -0.68744592747080
  N   2.34579265564139      2.02357304957660     -1.06881946181083
  C   -1.01944907468094     -1.07441614775759      0.75421195844374
  H   -0.53742881425978     -1.59104685967595      1.58326659352073
  H   -1.10797500417278     -1.75784479951220     -0.09287406879732
  H   -2.01899778921713     -0.77053621054248      1.07055065394576
  N   -0.98582616576157      0.86604406719271     -0.72167020336132
  O   -0.88827208979636      0.40879301573995     -1.85912007763966
  O   -1.68538086217438      1.81188381145526     -0.37589244442366
