14
Coordinates from ORCA-job run
  C   1.06052687577108      0.49141391019950     -0.34302736550916
  C   -0.24413630588471      0.16142844226230      0.38814061303537
  Cl  0.85031680604794      0.41196174855428     -2.11207356777114
  H   -0.05599197930297      0.31932846055071      1.45551452609587
  H   1.34418519415634      1.51864506916829     -0.10895558588616
  C   2.11384715793137     -0.42057741208882      0.08709297271097
  N   2.94383163025732     -1.15947903137194      0.46709628703725
  C   -0.80225072257916     -1.21683620920116      0.12564949662019
  H   -1.71243692695940     -1.36899098397512      0.70439080606641
  H   -0.06768496529785     -1.96575339846935      0.42894090952447
  H   -1.03983140850484     -1.35315883034285     -0.92771583521732
  N   -1.22758947400828      1.25308471453880      0.02718750808688
  O   -2.31889864678223      0.92691690836320     -0.42468824643298
  O   -0.84488723484461      2.40201661181217      0.23244748163935
