14
Coordinates from ORCA-job run
  C   1.18454084239900     -0.08903204195337     -0.15446803870900
  C   -0.24507220376200      0.08837181559479      0.36481459542777
  Cl  2.15432150713016     -0.97194664573846      1.05640476666049
  H   -0.23463081380316      0.67691607514549      1.28329704580031
  H   1.17429925939707     -0.68841277448633     -1.06552999201528
  C   1.80527768963630      1.20288981694187     -0.43223777645146
  N   2.27981446653150      2.25555793909833     -0.64652720434618
  C   -1.00181981949120     -1.21671117787755      0.53303070706304
  H   -0.53288775473323     -1.83243174820934      1.29960861254523
  H   -2.02816024370424     -1.00637099896340      0.83943377638035
  H   -1.01903934892243     -1.76667678537822     -0.40994290874581
  N   -0.98741432520334      0.92249320461418     -0.64073828826335
  O   -1.70130627461460      1.82012751181144     -0.20677595082013
  O   -0.84992298085985      0.60622580940055     -1.82136934452596
