14
Coordinates from ORCA-job run
  C   1.19562555915323     -0.02932146033959     -0.05610083881911
  C   -0.27862074931517      0.08994404864159      0.33982260944386
  Cl  2.10781622143667     -0.81250357656535      1.26309327786778
  H   -0.37392564807534      0.71587534665087      1.22822489949969
  H   1.28987158117507     -0.66200664453982     -0.93939477090466
  C   1.77127557179554      1.28244217142590     -0.33798666368324
  N   2.21062774510070      2.34902651992719     -0.55863138161037
  C   -0.97788208046341     -1.24694962706274      0.50668177852333
  H   -0.88579792236991     -1.83753380916853     -0.40693107885888
  H   -2.03636709592837     -1.08149967440876      0.71600277893139
  H   -0.54498692777281     -1.80150957260361      1.33834217121193
  N   -0.97797826689263      0.83936853962810     -0.75901079308123
  O   -1.76701984016993      1.71674797220590     -0.42538590307511
  O   -0.73263814767367      0.47791976620885     -1.90872608544538
