14
Coordinates from ORCA-job run
  C   1.23757926390843      0.08638875505988      0.22798668999343
  C   -0.24973933108320      0.09891193977567      0.57099299652601
  Cl  2.01789889825800      1.59780015180113      0.76323506226375
  H   -0.34781499277849      0.22434297871492      1.65012552864234
  H   1.69184655284502     -0.71655847553124      0.81568918051686
  C   1.52427914252130     -0.17421304774756     -1.17967709259425
  N   1.79005067553301     -0.45680413670643     -2.28802292979314
  C   -0.97182781747507     -1.13853430102097      0.06890729034662
  H   -2.01807715874538     -1.10744829181066      0.37862714152159
  H   -0.92447123149403     -1.19487350487864     -1.01933088036865
  H   -0.51682172579183     -2.03716130374445      0.49147377713134
  N   -0.90720727310092      1.31342906798555     -0.01435867544866
  O   -1.55098384022851      2.02044050597031      0.75578592926670
  O   -0.77471116236832      1.48427966213249     -1.22243401800393
