14
Coordinates from ORCA-job run
  C   1.24278918037987      0.07344847069316      0.20303816699278
  C   -0.23761530802199      0.12420787733290      0.57068990561383
  Cl  2.05718192526117      1.58952903294324      0.67123195584281
  H   -0.31424013820795      0.29229200074464      1.64575263148676
  H   1.69374193074478     -0.71558587152047      0.81165234924381
  C   1.50066196493769     -0.24075149540980     -1.19930942545655
  N   1.74526949827065     -0.56604610098727     -2.30067310607500
  C   -0.98874781215968     -1.11920958756109      0.12957126880528
  H   -0.96154971272526     -1.21835927069996     -0.95627866826636
  H   -0.54145292676084     -2.00851823480986      0.57896366400325
  H   -2.02863567234506     -1.05807895184523      0.45539545605909
  N   -0.88702913485620      1.32602830932687     -0.04921723752334
  O   -0.76859289613497      1.45199958595943     -1.26424157381991
  O   -1.51178089838219      2.06804423583347      0.70342461309355
