13

C	-0.550231	-0.02346	-1.425231
C	0.0	0.0	0.0
Cl	0.198187	1.409737	-2.288854
H	1.091825	0.0	0.0
H	-0.31247	0.942434	0.463656
C	-0.130907	-1.218084	-2.168128
N	0.124916	-2.178078	-2.794285
N	-1.976842	0.024611	-1.418901
H	-2.290565	0.84414	-0.912137
H	-2.344685	0.055071	-2.361891
C	-0.522223	-1.115998	0.78077
N	-0.943366	-2.00263	1.424469
Br	3.465424	0.0	0.0
