13

C	-0.311533	-0.108935	-1.496321
C	0.0	0.0	0.0
Cl	-2.066584	-0.478945	-1.798532
H	1.095716	0.0	0.0
H	-0.376924	0.932073	0.423209
C	-0.098167	1.210986	-2.126291
N	0.094443	2.248953	-2.64337
N	0.487735	-1.162364	-2.037952
H	1.449079	-1.058497	-1.705024
H	0.470354	-1.157746	-3.050135
C	-0.498687	-1.142868	0.749796
N	-0.89088	-2.044896	1.390225
Br	3.426855	0.0	0.0
