13

C	-0.312572	-0.096213	-1.496353
C	0.0	0.0	0.0
Cl	-2.070508	-0.457106	-1.798973
H	1.095728	0.0	0.0
H	-0.376519	0.928806	0.430456
C	-0.096111	1.227802	-2.117024
N	0.097365	2.271991	-2.622261
N	0.481851	-1.149602	-2.045301
H	0.46883	-1.133309	-3.056981
H	1.442044	-1.052059	-1.708612
C	-0.498801	-1.14891	0.740206
N	-0.890003	-2.05924	1.369385
Br	3.42715	0.0	0.0
