13

C	-0.532738	-0.006101	-1.431636
C	0.0	0.0	0.0
Cl	0.036071	1.444409	-2.308242
H	1.092496	0.0	0.0
H	-0.312095	-0.934362	0.483201
C	-0.005295	-1.185541	-2.14684
N	0.268065	-2.168079	-2.731623
N	-1.981648	0.023727	-1.433713
H	-2.328329	-0.774135	-0.910773
H	-2.327651	-0.039652	-2.384845
C	-0.529346	1.125231	0.760333
N	-0.945834	2.019243	1.396492
Br	3.451307	0.0	0.0
