13

C	-0.352774	0.065271	-1.500538
C	0.0	0.0	0.0
Cl	-0.113534	-1.561067	-2.221712
H	1.09393	0.0	0.0
H	-0.309412	0.949942	0.451402
C	-1.760101	0.438436	-1.70438
N	-2.875644	0.782787	-1.833594
N	0.497568	0.993528	-2.212499
H	0.316447	1.929685	-1.861934
H	1.46527	0.765202	-1.970774
C	-0.603115	-1.096139	0.736571
N	-1.117295	-1.962189	1.340274
Br	3.448794	0.0	0.0
