13

C	-0.559054	0.001655	-1.422406
C	0.0	0.0	0.0
Cl	0.045145	1.464249	-2.259318
H	1.092197	0.0	0.0
H	-0.34087	0.921833	0.479901
C	-0.080789	-1.168495	-2.183068
N	0.191726	-2.153955	-2.762847
N	-2.006423	0.081541	-1.390834
H	-2.365107	-0.720579	-0.880525
H	-2.369514	0.044193	-2.337413
C	-0.5266	-1.145978	0.73252
N	-1.007476	-2.071729	1.272528
Br	3.459046	0.0	0.0
