13

C	-0.584784	-0.000862	-1.423077
C	0.0	0.0	0.0
Cl	0.007498	1.484849	-2.229554
H	1.093351	0.0	0.0
H	-0.322195	0.924744	0.491075
C	-0.112839	-1.167535	-2.182573
N	0.186	-2.129011	-2.788602
N	-2.035153	0.007676	-1.502724
H	-2.387047	-0.850651	-1.088994
H	-2.380815	0.789778	-0.955414
C	-0.533903	-1.138156	0.73892
N	-1.024037	-2.049327	1.295457
Br	3.454978	0.0	0.0
