13

C	-0.551204	-0.014684	-1.42577
C	0.0	0.0	0.0
Cl	0.196984	1.422923	-2.281472
H	1.092009	0.0	0.0
H	-0.311878	0.939925	0.469274
C	-0.133905	-1.205763	-2.175643
N	0.119162	-2.163665	-2.806593
N	-1.978237	0.034012	-1.421732
H	-2.292571	0.849506	-0.908913
H	-2.343215	0.074057	-2.365724
C	-0.523076	-1.120492	0.773865
N	-0.94634	-2.013561	1.407427
Br	3.45992	0.0	0.0
