13

C	-0.545887	-0.003374	-1.427928
C	0.0	0.0	0.0
Cl	0.186478	1.456082	-2.260755
H	1.092728	0.0	0.0
H	-0.315	0.934283	0.478059
C	-0.106318	-1.177238	-2.191773
N	0.165259	-2.119209	-2.8384
N	-1.973249	0.023833	-1.431045
H	-2.333583	0.070785	-2.376461
H	-2.30321	0.826937	-0.9089
C	-0.521129	-1.130124	0.761095
N	-0.934688	-2.030387	1.390866
Br	3.457352	0.0	0.0
