13

C	-0.413385	-0.119504	-1.469811
C	0.0	0.0	0.0
Cl	-2.07942	-0.886774	-1.566169
H	1.094713	0.0	0.0
H	-0.292833	-0.928355	0.497598
C	-0.598021	1.193405	-2.115847
N	-0.745074	2.208993	-2.6904
N	0.533021	-0.965193	-2.116752
H	1.477439	-0.78149	-1.771632
H	0.496209	-0.878464	-3.123374
C	-0.586787	1.130864	0.694298
N	-1.073525	2.0312	1.269514
Br	3.433962	0.0	0.0
