13

C	-0.525559	-0.094349	-1.43169
C	0.0	0.0	0.0
Cl	0.053577	1.297062	-2.393003
H	1.091271	0.0	0.0
H	-0.31577	-0.901383	0.540019
C	0.003809	-1.318053	-2.066606
N	0.284251	-2.338007	-2.579812
N	-1.973675	-0.060329	-1.44567
H	-2.313145	-0.177581	-2.394712
H	-2.32767	-0.82449	-0.878956
C	-0.530969	1.171972	0.68536
N	-0.956788	2.095008	1.272738
Br	3.449363	0.0	0.0
