15

C	-0.513848	-0.079567	-1.422002
C	0.0	0.0	0.0
Cl	0.299803	-1.348332	-2.34904
H	1.094339	0.0	0.0
H	-1.585079	-0.254332	-1.498692
N	-0.307433	1.23873	-2.129336
O	0.834778	1.578965	-2.392416
O	-1.333002	1.885035	-2.35524
C	-0.366782	-1.256226	0.791595
H	-1.440061	-1.471503	0.799881
H	-0.0244	-1.13254	1.819882
H	0.174748	-2.101004	0.369191
C	-0.541105	1.18247	0.637647
N	-0.972958	2.145565	1.158977
F	2.511012	0.0	0.0
