15

C	-0.544223	-0.110149	-1.409178
C	0.0	0.0	0.0
Cl	0.2751	-1.380747	-2.331725
H	1.094319	0.0	0.0
H	-1.615346	-0.311336	-1.456978
N	-0.387236	1.200318	-2.145796
O	0.736031	1.564603	-2.454562
O	-1.436355	1.819677	-2.342029
C	-0.352667	-1.247913	0.814547
H	0.000485	-1.104451	1.836697
H	-1.426444	-1.470905	0.835727
H	0.192263	-2.097116	0.401606
C	-0.537639	1.189447	0.631706
N	-0.97539	2.15137	1.150377
F	2.5145	0.0	0.0
