15

C	-0.3288	0.015482	-1.466268
C	0.0	0.0	0.0
Cl	-2.08606	-0.024017	-1.86821
H	1.09575	0.0	0.0
H	0.082713	0.901274	-1.943041
N	0.316957	-1.136724	-2.196799
O	1.189555	-0.849801	-3.008162
O	-0.085674	-2.267373	-1.945783
C	-0.480209	-1.201623	0.805206
H	-1.554663	-1.383631	0.709791
H	0.062665	-2.089247	0.487296
H	-0.243453	-1.024021	1.85561
C	-0.468759	1.247052	0.569744
N	-0.842078	2.252717	1.052583
F	2.500321	0.0	0.0
