15

C	-0.296084	-0.046116	-1.475662
C	0.0	0.0	0.0
Cl	-0.039967	1.498566	-2.290667
H	1.096169	0.0	0.0
H	0.35033	-0.786459	-1.942427
N	-1.706985	-0.514656	-1.751336
O	-2.636206	0.239238	-1.485025
O	-1.819401	-1.676978	-2.146945
C	-0.361622	-1.32376	0.67499
H	-1.437678	-1.526338	0.708247
H	0.028033	-1.304215	1.694297
H	0.142559	-2.13775	0.148653
C	-0.58408	1.132835	0.682951
N	-1.03175	2.029315	1.299487
F	2.516211	0.0	0.0
