15

C	-0.29512	-0.056946	-1.475459
C	0.0	0.0	0.0
Cl	-0.030304	1.47981	-2.301961
H	1.096207	0.0	0.0
H	0.348053	-0.804016	-1.93598
N	-1.708013	-0.521152	-1.748151
O	-2.633678	0.242447	-1.498225
O	-1.825594	-1.689533	-2.124009
C	-0.360709	-1.318491	0.685965
H	-1.435813	-1.525726	0.715208
H	0.022826	-1.287166	1.707073
H	0.150209	-2.134722	0.170087
C	-0.584933	1.138091	0.673454
N	-1.03772	2.03747	1.282064
F	2.516296	0.0	0.0
