16

C	-0.461686	-0.04622	-1.474446
C	0.0	0.0	0.0
Br	0.227897	1.662426	-2.316571
H	1.095252	0.0	0.0
C	0.2261	-1.187686	-2.196189
H	-0.131847	-2.133462	-1.779974
H	1.30573	-1.109575	-2.05724
H	-0.008793	-1.155851	-3.26279
N	-1.875663	-0.134482	-1.558316
H	-2.320805	0.661287	-1.114742
H	-2.172938	-0.174794	-2.525404
C	-0.445906	-1.221567	0.679013
N	-0.788256	-2.208661	1.215877
C	-0.537238	1.162102	0.70346
N	-1.017034	2.089888	1.241843
Cl	3.204761	0.0	0.0
