16

C	-0.452322	-0.014412	-1.482273
C	0.0	0.0	0.0
Br	0.017214	1.724179	-2.267658
H	1.09625	0.0	0.0
C	0.336994	-1.08036	-2.232754
H	0.063411	-2.066541	-1.841532
H	1.410012	-0.930607	-2.091856
H	0.089739	-1.045613	-3.296396
N	-1.896936	-0.122806	-1.549666
H	-2.168685	-1.031663	-1.183569
H	-2.191172	-0.074161	-2.518809
C	-0.449722	-1.249568	0.620746
N	-0.828412	-2.274223	1.0548
C	-0.529143	1.133229	0.754067
N	-0.934346	2.040044	1.380649
Cl	3.214582	0.0	0.0
