16

C	-0.487551	-0.078689	-1.483289
C	0.0	0.0	0.0
Br	0.071784	1.598341	-2.339745
H	1.10757	0.0	0.0
C	0.220785	-1.23077	-2.171404
H	-0.107381	-2.177123	-1.728534
H	1.299883	-1.135288	-2.035943
H	-0.035969	-1.230009	-3.230887
N	-1.918156	-0.18052	-1.656243
H	-2.233041	-1.057093	-1.249238
H	-2.385059	0.583415	-1.177259
C	-0.469896	-1.206604	0.683877
N	-0.898814	-2.187393	1.169376
C	-0.536242	1.168457	0.690583
N	-1.016968	2.088806	1.241411
Cl	3.201379	0.0	0.0
