16

C	-0.446358	-0.198949	-1.471613
C	0.0	0.0	0.0
Br	-0.004598	1.439314	-2.46076
H	1.102294	0.0	0.0
C	0.363661	-1.334728	-2.083147
H	0.112888	-2.26841	-1.568733
H	0.114295	-1.440434	-3.141847
H	1.432861	-1.146537	-1.966292
N	-1.887811	-0.341803	-1.528736
H	-2.178725	-0.416017	-2.497321
H	-2.145664	-1.203307	-1.054784
C	-0.453126	-1.16516	0.766057
N	-0.868645	-2.118119	1.313592
C	-0.540682	1.211251	0.610048
N	-0.981794	2.16508	1.132476
Cl	3.225209	0.0	0.0
