13

C	0.0	0.0	0.0
C	-0.553225	-0.329261	-1.377678
F	1.393943	0.0	0.0
H	-1.649179	-0.260853	-1.288743
H	-0.318387	1.009533	0.270722
H	-0.299519	-1.36081	-1.644293
C	-0.478003	-0.997443	1.028846
H	-1.570249	-0.996084	1.046233
H	-0.095856	-0.723062	2.014763
H	-0.107266	-1.995	0.776553
C	-0.08354	0.565332	-2.433673
N	0.28172	1.25818	-3.307607
Cl	-3.753354	0.0	0.0
