13

C	0.0	0.0	0.0
C	-0.520987	-0.338338	-1.387815
F	1.393903	0.0	0.0
H	-1.615127	-0.241009	-1.34726
H	-0.31868	1.01269	0.259821
H	-0.272049	-1.374737	-1.637131
C	-0.486272	-0.990108	1.03042
H	-0.116799	-1.990221	0.784388
H	-1.578228	-0.986566	1.039809
H	-0.10902	-0.713611	2.01774
C	0.037992	0.532327	-2.419686
N	0.504415	1.205368	-3.259139
Cl	-3.740305	0.0	0.0
