13

C	0.0	0.0	0.0
C	-0.497089	-0.317151	-1.403975
F	1.391741	0.0	0.0
H	-0.162286	0.457468	-2.100549
H	-0.336394	1.007421	0.25763
H	-1.594652	-0.311704	-1.370911
C	-0.464619	-1.004175	1.028259
H	-1.554056	-1.065248	1.015991
H	-0.130167	-0.693599	2.020573
H	-0.028406	-1.98131	0.804915
C	0.002647	-1.608088	-1.871406
N	0.426675	-2.642082	-2.229446
Cl	-3.708015	0.0	0.0
