13

C	0.0	0.0	0.0
C	-0.513515	-0.312338	-1.398386
F	1.391775	0.0	0.0
H	-1.611156	-0.310288	-1.342387
H	-0.329012	1.010467	0.257198
H	-0.197392	0.467088	-2.097384
C	-0.475837	-0.989221	1.035655
H	-1.567254	-0.990241	1.05271
H	-0.101799	-1.988256	0.79744
H	-0.094849	-0.700405	2.017904
C	-0.025588	-1.599712	-1.8902
N	0.37783	-2.626639	-2.290956
Cl	-3.735099	0.0	0.0
