14
Coordinates from ORCA-job run
  C   0.85028327315307     -0.70371100993610     -0.48842331471394
  C   -0.32560002008817     -0.05391608702432      0.25916118244514
  Br  1.53009742545434      0.38638310673177     -1.95553492488408
  H   -0.65080885771737     -0.83986969736664      0.96475481077030
  H   0.52185514524878     -1.64138478834248     -0.94367401089022
  C   1.94240657489605     -0.98639000907830      0.43535168899006
  N   2.79187634850090     -1.24499772819240      1.20480810824619
  C   -1.48586684311631      0.26102071735418     -0.66997982215923
  H   -2.36330982894451      0.54454536072809     -0.08267901681843
  H   -1.75519493480977     -0.60444072902693     -1.27963336207200
  H   -1.22519926655196      1.09064280033753     -1.32778805025823
  N   0.12763972260022      1.15709770438850      0.91855098915094
  H   0.70768863615115      0.94072002992374      1.72091452522468
  H   -0.66586737477644      1.69430032950337      1.24417119696882
