14
Coordinates from ORCA-job run
  C   0.88095214961615     -0.91656945220772     -0.05369692906497
  C   -0.44766710646448     -0.24090999058342      0.33297507771778
  Br  0.60187155665231     -2.36295681033114     -1.34049240687752
  H   -1.14463183189592     -1.05264939738600      0.58614286537582
  H   1.31291396019752     -1.39878464144521      0.82574172461774
  C   1.83787600571129      0.04062788554833     -0.59176502712707
  N   2.59321855799482      0.82061164824320     -1.03960607412648
  C   -1.02751934340134      0.58562423413305     -0.80122259777602
  H   -1.15450805795825     -0.00931072833219     -1.70593823823896
  H   -0.37042811605872      1.43003380301803     -1.02308480184450
  H   -2.00719388552965      0.97465665165684     -0.51180671231967
  N   -0.12933051209243      0.62164155994309      1.46446542846910
  H   -0.16961613378116      0.11234473225115      2.33829785216852
  H   -0.77593724299015      1.39764050549199      1.52098983902624
