14
Coordinates from ORCA-job run
  C   1.15950666080573     -0.17740950772236     -0.21546854474491
  C   -0.20071704399101      0.13611171697043      0.41752645070716
  Br  2.62271022372755      0.18070488699316      1.03933929501086
  H   -0.29479466737246     -0.48958794125832      1.31869275479641
  H   1.32125710910032      0.50341124425872     -1.05410648878279
  C   1.26192151301842     -1.56305117771613     -0.64975635715477
  N   1.30607056562672     -2.68318864082081     -1.00111305094529
  C   -1.31503656088879     -0.21704113772587     -0.55955725163884
  H   -1.20795179628209      0.36706591051997     -1.47704567289752
  H   -2.28407488641967      0.02537274146948     -0.11455323494814
  H   -1.31767586401422     -1.28005505715136     -0.80511702644321
  N   -0.24394401300826      1.56751582957923      0.68624243840280
  H   -1.18279009070894      1.82957445556422      0.96184379896418
  H   0.37551885040670      1.80157667703963      1.45307288967405
