14
Coordinates from ORCA-job run
  C   0.88970132411473     -0.89282367040095     -0.17023422058471
  C   -0.43485655091424     -0.27939426442804      0.32019153288909
  Br  0.58679528914989     -2.21075690346087     -1.58425936075090
  H   -1.11432845074937     -1.12279347080785      0.50883823990665
  H   1.35564110741694     -1.45249413945228      0.64361164478565
  C   1.81793993683752      0.12621667725592     -0.64066854946154
  N   2.55027235847991      0.95638723520627     -1.03303647466005
  C   -1.05699252138027      0.64867516233010     -0.70806327815226
  H   -1.20309308063598      0.14664666950908     -1.66465128059734
  H   -0.41684012948636      1.52073087666913     -0.86102144673009
  H   -2.03253357977118      0.99178970378708     -0.35403992821459
  N   -0.09347055515979      0.47006298743015      1.52319180740194
  H   -0.75105223620158      1.22287898336820      1.67898151232460
  H   -0.09718291170023     -0.12612584700595      2.34115980184354
