14
Coordinates from ORCA-job run
  C   1.07800357639974     -0.22655979594983     -0.45625749332612
  C   -0.09919953639651      0.24656939854271      0.40340145007449
  Br  2.77732670021251      0.47638450904041      0.22215124127642
  H   0.08456991454328     -0.10265839694092      1.43136322804699
  H   0.96955850681946      0.18917427642433     -1.46070464953616
  C   1.17575835415143     -1.67809499026101     -0.51199414220560
  N   1.21895427549876     -2.85166782310877     -0.54804560744496
  C   -1.39285046710636     -0.36947484266078     -0.11422319847340
  H   -1.37368783292494     -1.45874426682375     -0.06071475054723
  H   -1.56746734513183     -0.05996038331846     -1.14750642077784
  H   -2.23404392763838     -0.02028192528077      0.49063248068861
  N   -0.18371851655513      1.69589805654508      0.27891565118795
  H   -1.04072955144569      2.02081946127161      0.71026577754140
  H   0.58852584957367      2.13759672252013      0.76371643349542
