14
Coordinates from ORCA-job run
  C   1.13234987660152     -0.26430598886727     -0.26273446895310
  C   -0.17641991138833      0.12688953692228      0.43258134638155
  Br  2.65669035632446     -0.10561455094959      0.95907690416885
  H   -0.29914926015405     -0.54245266549585      1.29830947593892
  H   1.32845105840201      0.44648234069420     -1.06885904126640
  C   1.10164633459032     -1.62524819500477     -0.77894317660352
  N   1.04346942238462     -2.71928206276066     -1.20335046168628
  C   -1.34443459012442     -0.06906856333233     -0.52577038260592
  H   -1.21366740583118      0.56205188782638     -1.40818282920606
  H   -2.27631643816570      0.22426197376667     -0.03490351395206
  H   -1.44482497430120     -1.10972548017288     -0.83659789965069
  N   -0.08610475412585      1.53735724934112      0.78475617720570
  H   0.56884250888826      1.67144042075157      1.54588796079818
  H   -0.99153222310045      1.86521409728112      1.09872990943082
