14
Coordinates from ORCA-job run
  C   0.84918855856755     -0.86017272962627     -0.17767767236207
  C   -0.51785209901234     -0.31701114829512      0.30537150778189
  Br  0.68494114407106     -2.03892685541238     -1.72938683165051
  H   -1.14865426945095     -1.19567430900643      0.47882059441298
  H   1.28638919586513     -1.48543064696217      0.60457346265045
  C   1.76884959578273      0.22951403490024     -0.47818251215502
  N   2.48111340195306      1.14231014644761     -0.67908842550224
  C   -1.17903043698842      0.58930387989565     -0.71885934321194
  H   -0.56209962118683      1.47338851625450     -0.90558550867615
  H   -2.13975881802496      0.92202925871268     -0.32470201222127
  H   -1.34162541863616      0.07763036223983     -1.66734404425205
  N   -0.38672384329345      0.39669605280798      1.56293959234261
  H   0.04112645709466     -0.17411164488342      2.28183110398075
  H   0.16313615325896      1.24045508292722      1.44729008886259
