14
Coordinates from ORCA-job run
  C   0.86479455451255     -0.68617170735495     -0.49225564973780
  C   -0.32247658883726     -0.06177378329488      0.25830228971080
  Br  1.51546005297319      0.41456139637909     -1.96447601828890
  H   -0.62603962122831     -0.85186240415133      0.96894820495098
  H   0.55577193722669     -1.63258142528034     -0.94291881874459
  C   1.96596708350559     -0.93940628791001      0.42966815895144
  N   2.80816820189361     -1.14454565103369      1.22288439415253
  C   -1.49449832410039      0.21997756204319     -0.66708610004794
  H   -1.74861519080813     -0.65709968903214     -1.26669223835093
  H   -2.37437588598760      0.48945533090447     -0.07674046072529
  H   -1.25640042797777      1.04949061688439     -1.33334225604419
  N   0.10286629162412      1.16424829144379      0.90901274446582
  H   -0.70253848312615      1.66754646729328      1.25920327346107
  H   0.71091640032987      0.96616128310916      1.69549247624701
