14
Coordinates from ORCA-job run
  C   0.84697620812451     -0.63403904863073     -0.46447990600271
  C   -0.38953552993388     -0.09565583807181      0.30237127771002
  Br  1.51904747282355      0.65200015123691     -1.77763250821245
  H   -0.65756062181015     -0.91734491907532      0.98027388878357
  H   0.58601107301743     -1.52787996563817     -1.03676222509068
  C   1.92096332470629     -0.94694711105716      0.46789093505356
  N   2.73670565516454     -1.18516941876598      1.27955801452318
  C   -1.55933328678118      0.15612989596275     -0.63589629323177
  H   -1.76785199967137     -0.71590331791736     -1.26076237453055
  H   -2.44370070059868      0.38585810072913     -0.04098474091500
  H   -1.35843128998968      1.00621849741771     -1.29106221074237
  N   -0.14796380321142      1.07159256880726      1.12024402510243
  H   0.57059066141306      0.89774104619269      1.81305061259700
  H   0.14308283674701      1.85339935881007      0.54519150495577
