16

C	-0.505069	-0.040149	-1.427208
C	0.0	0.0	0.0
F	-1.937617	-0.233171	-1.335432
H	1.094512	0.0	0.0
H	-0.338454	0.947027	0.453929
N	-0.238685	1.186752	-2.086778
H	-0.610109	1.963911	-1.555897
H	-0.648347	1.186819	-3.011991
C	0.038683	-1.210809	-2.20829
H	-0.386091	-1.224208	-3.216878
H	1.125034	-1.122893	-2.263349
H	-0.224111	-2.131149	-1.689848
N	-0.452974	-1.185062	0.726218
H	-1.39264	-1.046092	1.073569
H	0.16895	-1.336462	1.509648
Br	3.749438	0.0	0.0
