16

C	-0.389345	0.014916	-1.468499
C	0.0	0.0	0.0
F	-1.804711	0.000992	-1.524821
H	1.093985	0.0	0.0
H	-0.35752	-0.927557	0.470352
N	0.038989	1.21383	-2.14002
H	-0.092385	1.96571	-1.466507
H	1.042305	1.134209	-2.284662
C	0.115842	-1.212022	-2.191659
H	-0.145563	-1.140239	-3.249007
H	1.199842	-1.286343	-2.078391
H	-0.343847	-2.108317	-1.769687
N	-0.475207	1.218215	0.657144
H	-1.412733	1.081771	1.011615
H	0.136064	1.432329	1.434097
Br	3.663224	0.0	0.0
