16

C	-0.380745	-0.004166	-1.46839
C	0.0	0.0	0.0
F	-1.784008	0.150099	-1.549813
H	1.095842	0.0	0.0
H	-0.331028	0.964417	0.420423
N	0.195619	1.117492	-2.178274
H	1.201634	0.967608	-2.207157
H	0.057549	1.952855	-1.615833
C	-0.01166	-1.295086	-2.157908
H	-0.297783	-1.231558	-3.209623
H	-0.525136	-2.12172	-1.670346
H	1.065982	-1.457514	-2.073876
N	-0.506796	-1.15997	0.728283
H	-1.422194	-0.957767	1.107781
H	0.119761	-1.358789	1.497187
Br	3.656362	0.0	0.0
