16

C	-0.589023	0.069859	-1.403687
C	0.0	0.0	0.0
F	-1.5e-05	1.169003	-2.044054
H	1.095401	0.0	0.0
H	-0.308886	0.908954	0.528811
N	-0.268592	-1.115716	-2.135762
H	-0.965357	-1.308405	-2.841936
H	-0.241619	-1.888388	-1.485892
C	-2.079013	0.380654	-1.379029
H	-2.262073	1.348198	-0.904291
H	-2.460981	0.426638	-2.403644
H	-2.612003	-0.400951	-0.834147
N	-0.46348	-1.221811	0.686482
H	-1.048911	-0.987922	1.474711
H	0.354218	-1.692508	1.056884
Br	3.756446	0.0	0.0
