16

C	-0.463893	-0.022294	-1.447778
C	0.0	0.0	0.0
F	-1.897971	-0.249235	-1.408927
H	1.092703	0.0	0.0
H	-0.338727	-0.936445	0.454933
N	-0.209289	1.20812	-2.102867
H	-0.560661	1.977843	-1.551282
H	-0.646917	1.221159	-3.014015
C	0.135343	-1.178134	-2.211991
H	1.22327	-1.086664	-2.191385
H	-0.157179	-2.121789	-1.747448
H	-0.219233	-1.177459	-3.247929
N	-0.492656	1.119848	0.794505
H	0.098156	1.928877	0.661528
H	-1.447265	1.341762	0.54266
Br	3.748037	0.0	0.0
