16

C	-0.37831	0.018588	-1.48729
C	0.0	0.0	0.0
F	-0.201517	1.340447	-1.930486
H	1.096743	0.0	0.0
H	-0.319596	-0.964344	0.415125
N	0.50349	-0.794839	-2.291665
H	1.46281	-0.609734	-1.995377
H	0.323372	-1.77159	-2.090053
C	-1.823594	-0.337854	-1.774976
H	-2.038939	-1.364636	-1.466005
H	-2.495989	0.334893	-1.236712
H	-2.008929	-0.238551	-2.845672
N	-0.506702	1.084141	0.831379
H	-1.491258	1.235482	0.64469
H	-0.019632	1.928346	0.559823
Br	3.707124	0.0	0.0
