17

C	-0.348257	-0.074193	-1.514345
C	0.0	0.0	0.0
F	-1.697944	-0.425041	-1.607346
H	1.095015	0.0	0.0
C	-0.148374	1.287224	-2.144092
H	-0.293017	1.177592	-3.21948
H	0.864829	1.645364	-1.945864
H	-0.867411	2.003351	-1.747631
N	0.407637	-1.053312	-2.235316
H	0.358597	-1.933841	-1.735712
H	1.385501	-0.769176	-2.208304
N	-0.467443	-1.224226	0.726561
O	-0.103326	-2.309324	0.279703
O	-1.173377	-1.079683	1.72122
C	-0.542808	1.177625	0.656658
N	-0.956816	2.171828	1.125844
Cl	3.187841	0.0	0.0
