17

C	-0.379142	0.045342	-1.499095
C	0.0	0.0	0.0
F	-0.162855	-1.278028	-1.96532
H	1.100748	0.0	0.0
C	-1.826296	0.358438	-1.806554
H	-2.078855	1.359349	-1.459416
H	-2.480629	-0.368656	-1.328308
H	-1.972954	0.303879	-2.888446
N	0.505771	0.975439	-2.079442
H	0.392754	1.017809	-3.083728
H	1.473849	0.772728	-1.831623
N	-0.538151	-1.249241	0.62226
O	-1.734858	-1.246942	0.922996
O	0.229344	-2.192506	0.753171
C	-0.516231	1.158108	0.711171
N	-0.932616	2.100794	1.274135
Cl	3.260871	0.0	0.0
