17

C	-0.427189	0.032762	-1.482728
C	0.0	0.0	0.0
F	-0.129217	-1.259616	-1.978554
H	1.092337	0.0	0.0
C	-1.905544	0.236529	-1.729269
H	-2.47694	-0.564239	-1.2607
H	-2.088615	0.2119	-2.807196
H	-2.232697	1.195409	-1.32885
N	0.360675	1.037146	-2.080732
H	1.352409	0.878517	-1.904711
H	0.179563	1.102251	-3.074999
N	-0.511799	-1.260975	0.631999
O	-1.692902	-1.264578	0.990501
O	0.262389	-2.202667	0.710621
C	-0.516975	1.151356	0.72365
N	-0.928551	2.085589	1.303718
Cl	3.245961	0.0	0.0
