17

C	-0.384444	0.107994	-1.493653
C	0.0	0.0	0.0
F	-0.147907	-1.186421	-2.024247
H	1.090762	0.0	0.0
C	-1.837563	0.408921	-1.778861
H	-1.989296	0.429591	-2.860957
H	-2.113885	1.372589	-1.358646
H	-2.470348	-0.365968	-1.354979
N	0.483175	1.079157	-2.034245
H	1.455387	0.874509	-1.79841
H	0.374204	1.146693	-3.038432
N	-0.535994	-1.276208	0.569167
O	-1.728188	-1.285745	0.882666
O	0.228596	-2.226494	0.645069
C	-0.51782	1.124956	0.761043
N	-0.938043	2.040701	1.364069
Cl	3.259366	0.0	0.0
