17

C	-0.375374	0.090097	-1.488803
C	0.0	0.0	0.0
F	0.100351	-1.084389	-2.099951
H	1.095078	0.0	0.0
C	-1.853521	0.183024	-1.79457
H	-2.36018	-0.718406	-1.454487
H	-1.988227	0.268298	-2.876969
H	-2.283566	1.060908	-1.312471
N	0.330145	1.230603	-1.961783
H	0.200465	1.316722	-2.963711
H	1.325263	1.120405	-1.764485
N	-0.450471	-1.238519	0.723848
O	-1.038443	-2.119831	0.102965
O	-0.169634	-1.275928	1.916363
C	-0.509588	1.145496	0.73786
N	-0.962312	2.058757	1.321051
Cl	3.199857	0.0	0.0
