15
Coordinates from ORCA-job run
  C   -0.38329207759479     -0.10991689738274     -0.47749065317605
  C   1.12272553039111     -0.10947171412139     -0.09989781257059
  H   -0.42302928450998     -0.34677427095325     -1.54610882306786
  H   1.52972415650526     -1.12259546959560     -0.20698949406282
  N   -0.87818078031816      1.24556929603696     -0.30951991360841
  H   -1.13361536885522      1.41694555681245      0.65654962301495
  H   -1.69476290380169      1.40544897889960     -0.88421881135298
  C   -1.13005527209991     -1.18246872586387      0.31114496340888
  H   -0.71364561409619     -2.17996628889755      0.14297064817031
  H   -1.09105738996250     -0.96912232289710      1.38334564339341
  H   -2.17941424879545     -1.19723187994352      0.00809570648985
  C   1.27750473162144      0.29821935919829      1.30116784387765
  N   1.33334677209908      0.60833758543819      2.43204311429256
  C   1.87830145224508      0.78378248463835     -0.98311078198455
  N   2.48545029717192      1.45824430863117     -1.72698125282435
