15
Coordinates from ORCA-job run
  C   -0.42015508031573     -0.06672941332776     -0.44168113369319
  C   1.09758691277128     -0.15584798481294     -0.13410283934742
  H   -0.51100915081191     -0.23849800546319     -1.52636635909530
  H   1.47735925009921     -1.12243368249511     -0.48861092430957
  N   -0.88311657778929      1.24202033136841     -0.01543998650179
  H   -1.89228266705928      1.25427539216467      0.05979250465305
  H   -0.60869134321981      1.96150969775064     -0.67412785804952
  C   -1.17489775742187     -1.15517334077690      0.30353766757648
  H   -1.12553122556705     -0.97805416269581      1.38000741258485
  H   -2.22533226165416     -1.15523808440757      0.00131243967426
  H   -0.76551116558882     -2.14454217398579      0.08643939519018
  C   1.34979579530894     -0.06263475489835      1.30763581693214
  N   1.53861025053033     -0.04037454541993      2.46560209878443
  C   1.81292521753070      0.90417898355902     -0.85273660199404
  N   2.33024980318746      1.75754174344063     -1.47126163240455
