15
Coordinates from ORCA-job run
  C   -0.46261508329984      0.15916924926636     -0.43824156508548
  C   1.00102047918900      0.54838920851003     -0.08916558291590
  H   -0.51814072121294      0.15865624755479     -1.53755227794228
  H   1.16502272343374      1.58513385848893     -0.40814036119753
  N   -1.31996390252343      1.15425894424848      0.18589033214125
  H   -2.25276913803826      0.78666081555318      0.32197399486064
  H   -1.39320706290941      1.98661605462106     -0.38621214360807
  C   -0.80223328732793     -1.22801571872708      0.07864173451343
  H   -0.78297225581498     -1.23806500198172      1.17085915697384
  H   -1.80418638622506     -1.51250146375861     -0.25266335814566
  H   -0.10146410559829     -1.97636313785636     -0.29596703076116
  C   1.95512857599040     -0.30428538238268     -0.80612614355722
  N   2.67650225826177     -1.00226337827473     -1.41486057662139
  C   1.22955190926765      0.47907501581897      1.35771411331431
  N   1.41032599680758      0.40353468891936      2.51484970803121
