14

C	0.0	0.0	0.0
C	-0.372348	0.310523	-1.466847
Br	1.960971	0.0	0.0
H	-0.005554	1.320073	-1.687331
H	-0.271508	-1.032379	0.237005
H	0.200082	-0.373573	-2.102503
C	-0.60433	0.942159	1.012112
H	-1.691728	0.813449	0.969311
H	-0.354561	1.9807	0.776234
H	-0.267351	0.716171	2.024928
N	-1.762088	0.22859	-1.842944
H	-2.167638	-0.668641	-1.607824
H	-2.349029	0.889678	-1.347908
Br	-4.56363	0.0	0.0
