15
Coordinates from ORCA-job run
  C   -0.64976993175295     -0.44588480022555     -0.01145554210033
  C   0.72331613308054     -0.15313170447582     -0.65758387610581
  Cl  -1.42142475765922     -1.66979091843814     -1.07167717264346
  H   0.56122100703588      0.15651833113072     -1.69163101662728
  C   -1.52337444069615      0.80192612527824      0.04183924042608
  H   -1.59555967141953      1.25104822346563     -0.95024639569004
  H   -2.52117413406709      0.52537810060445      0.38293486250272
  H   -1.10590084498258      1.53026785692302      0.73993768509402
  C   -0.48962313841447     -1.02683614199738      1.32021445483096
  N   -0.40116813240477     -1.47208144508136      2.40436441612637
  C   1.63458427342812     -1.28609735669858     -0.58814026603790
  N   2.37103785118495     -2.20040535119618     -0.55322200133461
  N   1.34078318300104      1.03961339719715      0.04029131388865
  O   1.82783259360414      0.84073184820936      1.14677620588803
  O   1.24922001006208      2.10974383530443     -0.55240190821740
