15
Coordinates from ORCA-job run
  C   -0.54429906236506     -0.19483550388309      0.36040356926438
  C   0.80876571568121      0.18186114082110     -0.28574187299317
  Cl  -0.74010728743621     -1.96995485893096      0.31509980651762
  H   0.96851653088133      1.25572239985715     -0.14842730040597
  C   -1.69041705633199      0.45993540406727     -0.40835423998660
  H   -2.63476425924965      0.21444535659492      0.07787537281077
  H   -1.71346049468943      0.08982914106611     -1.43388388735839
  H   -1.56655155313830      1.54605722477656     -0.41109253523675
  C   -0.57453320664275      0.24931140361666      1.75462300035195
  N   -0.67840297339561      0.64003672868255      2.85822794136853
  C   0.84221500039497     -0.15908432908415     -1.70029030742847
  N   0.83833436946139     -0.38351265872515     -2.85309542184510
  N   1.95948525568253     -0.48753692746000      0.44147508369075
  O   2.26511564974293      0.03799743921181      1.50589853505485
  O   2.46010337140463     -1.47827196061077     -0.07271774380441
