15
Coordinates from ORCA-job run
  C   -0.52163362356941     -0.25343011487664      0.35856526879405
  C   0.78383783134465      0.27441851797565     -0.27963831993334
  Cl  -0.49611559102162     -2.04001909142518      0.34994539640188
  H   0.80908612540560      1.36209363299859     -0.16168132840174
  C   -1.72872156459165      0.23866134758955     -0.43767202386683
  H   -1.69063605730629     -0.15107741018574     -1.45533088351434
  H   -1.74080788292860      1.33135367380098     -0.46159989191409
  H   -2.64207257900784     -0.11342749528394      0.04198417528631
  C   -0.62551049353460      0.21134654363422      1.74246937160440
  N   -0.78816258610289      0.61034900344900      2.83590063805157
  C   0.87829353797904     -0.08526985056016     -1.68681112655690
  N   0.91942575935108     -0.32703117698080     -2.83541986090923
  N   1.99794392136338     -0.23541591257612      0.47312950218725
  O   2.22156723997683      0.34110026043814      1.53154696907803
  O   2.62450596264233     -1.16465192799758     -0.01738788630699
