15
Coordinates from ORCA-job run
  C   -0.67518681089011     -0.41572597777317     -0.15207816610355
  C   0.84710021747478     -0.30436223682224     -0.42745361547977
  Cl  -1.50718862371521     -0.44280154623890     -1.73644777356536
  H   1.16214170005864     -1.14679173426215     -1.04663918469758
  C   -1.25023075008906      0.69836522670627      0.71331651471845
  H   -1.14375537708228      1.66020286582537      0.21600133488580
  H   -0.73314928402924      0.73000738878403      1.67443009582738
  H   -2.30832630443396      0.49798560970164      0.88461781173211
  C   -0.87374961098361     -1.71525523548659      0.49277616852029
  N   -1.01995041733463     -2.75011500090269      1.03098305665495
  C   1.59764650493820     -0.25877506421720      0.82048980021776
  N   2.18852836860129     -0.24075295464677      1.83575453902352
  N   1.16484245044892      0.93390752955198     -1.23825236435648
  O   1.48484153930269      0.74324932336282     -2.40492621800287
  O   1.06743639773361      2.01086180641762     -0.66057199937463
