15
Coordinates from ORCA-job run
  C   -0.65363700794371     -0.44033554322756     -0.00402063280815
  C   0.70963302651306     -0.15243945670192     -0.67319073754109
  Cl  -1.45653497142146     -1.64489294902820     -1.06284515915284
  H   0.52947715713000      0.17029444291988     -1.70025577596486
  C   -1.51383660426568      0.81510527881015      0.07974117409532
  H   -2.50889761768960      0.54445448921144      0.43325936946545
  H   -1.07817374072856      1.52942958286449      0.78094126003241
  H   -1.59674732647941      1.27830895046029     -0.90482496632550
  C   -0.47446266244713     -1.03745193906283      1.31795166465674
  N   -0.37212000447042     -1.49623322912669      2.39525514728114
  C   1.61185925591889     -1.29388605380429     -0.63375968325848
  N   2.34048653615625     -2.21511982788154     -0.62431802296978
  N   1.35051685577458      1.02695143016521      0.02585332161381
  O   1.85597103131948      0.81112855260646      1.12088713874444
  O   1.25646607263372      2.10468627179512     -0.55267409786862
