15
Coordinates from ORCA-job run
  C   -0.51356552439790     -0.19958391054919      0.40084621368312
  C   0.78085561674003      0.21430505905143     -0.33694497350855
  Cl  -0.56651532027327     -1.98025667895627      0.53477425327308
  H   0.85639382696867      1.30572349561077     -0.31127507812078
  C   -1.73533306322170      0.28557218972172     -0.37686257573522
  H   -1.76448477492122     -0.18471637335701     -1.36034443765339
  H   -2.63872749511914      0.01663862491553      0.17083577750256
  H   -1.70062336172290      1.37239375762402     -0.48882323754263
  C   -0.52934662501451      0.37668867946033      1.74605675051301
  N   -0.62469285847891      0.86594683963509      2.81043957289084
  C   0.79095334993196     -0.26262078294560     -1.71199958050876
  N   0.76451487222731     -0.60057942805828     -2.83652447219889
  N   2.00700526685213     -0.28751277111740      0.40051746343622
  O   2.30616483858913      0.36352598323759      1.39529276537487
  O   2.56740125184030     -1.28352468427275     -0.03598844140549
