15
Coordinates from ORCA-job run
  C   -0.53762775826467     -0.21683214639256      0.35759235131705
  C   0.80339104253468      0.20616546158437     -0.28551464839577
  Cl  -0.70207438144684     -1.99247458528260      0.25297831750982
  H   0.94412063528727      1.27760992298320     -0.11334649228234
  C   -1.70115754919954      0.44297028919747     -0.38005832028381
  H   -1.59682176434815      1.53060923722021     -0.34697720573738
  H   -2.63699704156398      0.16426520804485      0.10472016217765
  H   -1.72581698133802      0.10737214315821     -1.41733410522435
  C   -0.56474542923840      0.17869074329823      1.76649619564629
  N   -0.66573042819051      0.52791705054240      2.88413138192980
  C   0.83057695343071     -0.08769222912415     -1.71072114843439
  N   0.81857355275112     -0.27500538666579     -2.87007396534477
  N   1.97184115439597     -0.46502162308673      0.41008908492542
  O   2.27677378616985      0.03085559399761      1.48894026296689
  O   2.48569420902049     -1.42942967947472     -0.13992187077010
