15

C	-0.415302	0.003549	-1.462497
C	0.0	0.0	0.0
Cl	-2.197173	-0.20675	-1.661133
H	1.095304	0.0	0.0
H	0.04924	-0.845605	-1.962385
C	-0.028639	1.244902	-2.122956
N	0.244777	2.240903	-2.6814
N	-0.383321	-1.332996	0.568115
O	-0.820167	-1.371244	1.717037
O	-0.197562	-2.318566	-0.143239
C	-0.536178	1.141088	0.829045
H	-0.199724	2.080777	0.386377
H	-1.626123	1.132083	0.885684
H	-0.128681	1.078618	1.836285
Cl	3.223756	0.0	0.0
