15

C	-0.418025	-0.003327	-1.461727
C	0.0	0.0	0.0
Cl	-2.200946	-0.214901	-1.654863
H	1.095236	0.0	0.0
H	0.04493	-0.85511	-1.958787
C	-0.034245	1.234881	-2.129155
N	0.234703	2.227748	-2.695311
N	-0.38118	-1.33023	0.57636
O	-0.805908	-1.362784	1.73006
O	-0.204818	-2.318878	-0.133139
C	-0.535387	1.144903	0.824427
H	-0.12542	1.087833	1.830967
H	-1.625136	1.135267	0.883454
H	-0.200741	2.08252	0.376239
Cl	3.22242	0.0	0.0
