16
Coordinates from ORCA-job run
  C   -0.53568337562731     -0.64417095655952      0.14145874185035
  C   0.63875133646461      0.12950999693404     -0.47027137221934
  Br  -0.58729837476996     -2.44060029778920     -0.64693354547334
  H   0.61028951256493     -0.00925560899807     -1.56027226519358
  C   -0.43004633195661     -0.75260004100303      1.59250084367619
  N   -0.43846200698898     -0.79671403527400      2.76666742549735
  C   -1.84818453183909      0.05541758544358     -0.21960842730123
  H   -2.69103442066966     -0.54952077158313      0.11409724875832
  H   -1.92179455030440      0.18410693003428     -1.30238622728756
  H   -1.89684395871153      1.02341044344715      0.28223746661324
  N   1.99083427868593     -0.42456984240521     -0.06423560036841
  O   2.04778985773174     -1.40541419525533      0.66443410173546
  O   2.94757329125172      0.18555146037215     -0.53569411120211
  N   0.62275981456382      1.50130971907542     -0.01839442112560
  H   -0.04526028871690      2.03415283934408     -0.56131017943499
  H   1.53760974832167      1.90738677421677     -0.18228967852474
