16
Coordinates from ORCA-job run
  C   -0.53477428967180     -0.39428935441200      0.32615255845381
  C   0.71649617873761      0.48072770020816      0.00169842445587
  Br  -0.05787063848562     -2.29808464985003      0.33947300726724
  H   0.38044152886562      1.51981117361792      0.04462670628002
  C   -0.90695498141759     -0.03978365182497      1.69351706176428
  N   -1.18883888077431      0.30750414979452      2.78105321265158
  C   -1.70779208491653     -0.18014875022097     -0.62444966441163
  H   -2.57686785761419     -0.73448468009365     -0.26900017674698
  H   -1.95421289193816      0.88388604289373     -0.66980353888694
  H   -1.45543179490948     -0.52346298380459     -1.62696390990485
  N   1.08567766917888      0.25493445715104     -1.44268292818351
  O   1.91235450086656     -0.61868067896053     -1.67678706216307
  O   0.50393693524558      0.95244699059022     -2.27202156117066
  N   1.87784418928620      0.31832159508621      0.80110692362302
  H   1.75220025931408      0.72318285336716      1.71879394751314
  H   2.15479215823315     -0.65188021354222      0.87428699945868
