16
Coordinates from ORCA-job run
  C   -0.58316994232323     -0.61586248350927     -0.10025990773312
  C   0.78771376864183      0.00138944956782     -0.44626270666424
  Br  -1.25020138481923     -1.37648637532939     -1.80173339867221
  H   1.40201647290823     -0.76455135855395     -0.93110406511106
  C   -0.37830987920304     -1.74085833456608      0.80653229252836
  N   -0.20590531144890     -2.62625341914555      1.56074323555760
  C   -1.63467243580964      0.34790476363435      0.43584243917590
  H   -1.77765679942470      1.17282823156446     -0.26005815762715
  H   -1.30203793947799      0.74916118488853      1.39151397880785
  H   -2.57733110636355     -0.18439146159223      0.56713317806023
  N   1.56243005500275      0.30130030574576      0.82574765119827
  O   1.00261095116182      0.93026652507625      1.71575375390195
  O   2.72683786062715     -0.09326956169617      0.83693868664950
  N   0.64401118842197      1.24226653003655     -1.15228899748319
  H   1.54764136869101      1.54872116285758     -1.49532731103647
  H   0.03802313341552      1.10783484102134     -1.95317067155223
