16
Coordinates from ORCA-job run
  C   -0.61067129587509     -0.59048227840079     -0.09205101451723
  C   0.76762861971087     -0.01629092677486     -0.48060922254013
  Br  -1.38019438047121     -1.27581656397434     -1.78205082374711
  H   1.33192220606051     -0.79204076468143     -1.00864249461123
  C   -0.41161737786726     -1.74777122735650      0.77446897783476
  N   -0.24019924282320     -2.65920824930813      1.49724297638136
  C   -1.59804091920034      0.39809684415186      0.51613617467359
  H   -1.21035872191800      0.75546568484031      1.46860055138014
  H   -2.55626811452474     -0.09897787730268      0.67102463675451
  H   -1.73368105307251      1.24977639242716     -0.14835209023001
  N   1.60325366870159      0.21985989049479      0.76643558085143
  O   1.11460370557071      0.87310881760080      1.68052169645696
  O   2.73986532295651     -0.24829963378845      0.73465420953507
  N   0.64256048180660      1.24669211128092     -1.14921962791080
  H   1.54271529795618      1.52980227391552     -1.52029406851029
  H   0.00048180298938      1.15608550687582     -1.92786546180102
