16
Coordinates from ORCA-job run
  C   -0.49004399527713     -0.59689570588547      0.10210073607301
  C   0.67813218948963      0.21579330060505     -0.50992492113335
  Br  -0.40818339661257     -2.44578665932709     -0.54348617410018
  H   0.54054067733165      0.24924635743081     -1.59148370028336
  C   -0.42175058955242     -0.60946886521099      1.56011517968256
  N   -0.43925285994700     -0.54186221319671      2.73372350003897
  C   -1.82155096735930      0.00852776583829     -0.34166449472160
  H   -1.88410285534119      0.00895699264800     -1.43176373590221
  H   -2.65055598363815     -0.57604415405331      0.05707440341682
  H   -1.90833732886538      1.03062899437153      0.03362438331787
  N   1.98020802787555     -0.51092257179272     -0.29644208140930
  O   2.33873628649061     -0.62388371636937      0.87207778509592
  O   2.58338958657808     -0.89850988804877     -1.29065206337560
  N   0.85335552105972      1.53123746087392      0.01321806850133
  H   0.21741332088543      2.20195770540551     -0.39035824997674
  H   0.83100236688248      1.55802519671133      1.02484136477586
