16
Coordinates from ORCA-job run
  C   -0.59726000801842     -0.59740510169923     -0.11797075159177
  C   0.77451230493244      0.01357003833847     -0.47148363631277
  Br  -1.33539642233567     -1.24190146585630     -1.83861898572699
  H   1.36038117569085     -0.73578218329651     -1.01381920231394
  C   -0.38821914278255     -1.77916078473233      0.71248976002791
  N   -0.21309431223493     -2.71180565587315      1.40667903282161
  C   -1.60912005450834      0.35348742218249      0.50929604872480
  H   -1.75403739258809      1.22203176581329     -0.13087983008119
  H   -2.55912441842721     -0.16592309261120      0.63935954643700
  H   -1.23753025270486      0.68943678565848      1.47589673377827
  N   1.58780897965024      0.22640748291289      0.79466302072754
  O   1.08137474734837      0.86047165878488      1.71251959718025
  O   2.72469387626168     -0.24210703373254      0.77577567677007
  N   0.63328755444320      1.29300741844805     -1.10430074349947
  H   1.53175533108550      1.60354001863532     -1.45678189212176
  H   0.00196803418777      1.21313272702733     -1.89282437481957
