16
Coordinates from ORCA-job run
  C   -0.52794673980435     -0.39138864274087      0.33753442426408
  C   0.70972704486696      0.49290043183961     -0.01273681927598
  Br  -0.01906874345688     -2.28552609776915      0.41562483127359
  H   0.35560436656507      1.52683199416666     -0.00774073613208
  C   -0.91117336670232      0.00186543578706      1.69124693526567
  N   -1.21792084742999      0.37558808932920      2.76319123295341
  C   -1.70177244036134     -0.22916468031365     -0.62228958683484
  H   -1.44143626215848     -0.60351405039861     -1.61151333987725
  H   -1.96446743116196      0.82854660688740     -0.70571331363078
  H   -2.56297899097009     -0.78421421089443     -0.24942843940068
  N   1.08897869942074      0.22319933340014     -1.44714121955968
  O   1.93424973504108     -0.64086177814948     -1.64751985369124
  O   0.49572440005835      0.87829356927921     -2.30247266676787
  N   1.86990829041678      0.37796803295156      0.79656929653290
  H   2.16164535987194     -0.58446956078915      0.90599886892596
  H   1.73392692580443      0.81394552741454      1.69839038595479
