16
Coordinates from ORCA-job run
  C   -0.55644429858574     -0.58688265963244      0.13210881558063
  C   0.57761491847861      0.22875958345765     -0.51737723853950
  Br  -0.45317656906439     -2.44780721231887     -0.47238737498065
  H   0.41486175553924      0.25940624395934     -1.59570777634728
  C   -0.44209694487355     -0.57321609332019      1.58763102030880
  N   -0.38593811837772     -0.49004227738182      2.75903117885608
  C   -1.90644439046029     -0.00928842295107     -0.29061759459604
  H   -2.00339775518504     -0.06130076146316     -1.37677683233324
  H   -2.71538457166449     -0.58276506924802      0.16245068700431
  H   -1.96509344862919      1.03054984202922      0.03200163539251
  N   1.90929310680565     -0.49613002670709     -0.35819841773528
  O   2.35533214764886     -0.55920546590949      0.78468639652412
  O   2.44458836735506     -0.92135774768412     -1.37760090083247
  N   0.60306692713178      1.53709990497881      0.03940817416410
  H   1.18626734262794      2.15962980732740     -0.50510130984482
  H   0.93595153125326      1.51355035486388      0.99744953737874
