16
Coordinates from ORCA-job run
  C   -0.55502717216869     -0.62857059548124     -0.09252160199523
  C   0.82560064286210     -0.05407299243481     -0.54634679840695
  Br  -1.39815124020350     -1.31157369170963     -1.73849232728942
  H   1.38678051347123     -0.85771289439817     -1.02318792290798
  C   -0.35889590679947     -1.77391858772857      0.78896457497596
  N   -0.20741235845654     -2.67622325072066      1.52807588209819
  C   -1.48936138817390      0.39155956159555      0.54417371774405
  H   -1.04678957937185      0.78105741247956      1.46241191833064
  H   -1.67443058875118      1.21562534814251     -0.14558771027648
  H   -2.44357918727025     -0.08022462296244      0.77946276035690
  N   1.59712443767130      0.28503929578473      0.70619660931405
  O   2.40401924695146     -0.54585440479212      1.10977044279898
  O   1.33648857273295      1.36560643798653      1.23123743591358
  N   0.82907505982428      1.10579932265573     -1.37130032564333
  H   0.45627890258773      0.90496429111903     -2.28856123772924
  H   0.33928004509431      1.87949937046403     -0.94329541728371
