16
Coordinates from ORCA-job run
  C   -0.54634641787649     -0.61735004647782     -0.18023671086011
  C   0.88181797498833     -0.04345765192721     -0.45161697774907
  Br  -1.20296586635858     -1.22393469175065     -1.93722332245732
  H   1.48654707716205     -0.83521327214957     -0.89380320901813
  C   -0.46088669461845     -1.79871442327965      0.67081093228440
  N   -0.40290760434463     -2.73064757336335      1.38605736037714
  C   -1.53832662900899      0.38874620993358      0.38785001733834
  H   -1.63652500573233      1.24233088577473     -0.28353192505853
  H   -2.51713584228225     -0.07952257129175      0.49340949961178
  H   -1.20010693777333      0.73490737951814      1.36579409730144
  N   1.50920211207219      0.23656319503344      0.89246128042521
  O   1.19989189851420      1.29904425539720      1.42783171190226
  O   2.25862532442662     -0.61954718170028      1.35061641878064
  N   0.98861057829395      1.14773536338815     -1.22348798339574
  H   0.46140157676380      1.91055949291464     -0.82115235175744
  H   0.71810445577389      0.98850062998036     -2.18377883772483
