16
Coordinates from ORCA-job run
  C   -0.50652761457045     -0.57966376590827      0.11151626787250
  C   0.67591930334827      0.19276357546465     -0.52396193275453
  Br  -0.50055682484414     -2.43038574640053     -0.53555786361052
  H   0.52037177657268      0.22726142951954     -1.60306658282786
  C   -0.41104609192060     -0.59729933471721      1.56784564091895
  N   -0.41076737111021     -0.53482755567987      2.74201932810034
  C   -1.82542957583183      0.07050958907424     -0.30577433960786
  H   -1.91016421853826      0.07200079460693     -1.39436889098055
  H   -2.66552956821111     -0.48496170019070      0.11088953821585
  H   -1.86963796576433      1.09527956771271      0.06961710644524
  N   1.95716806825214     -0.57562818851616     -0.33095558235260
  O   2.52149101793141     -0.99913455392755     -1.33316021263238
  O   2.33844998136973     -0.68597175068748      0.83048219356430
  N   0.90328686703174      1.50336863923368     -0.00859270589056
  H   0.90268678465736      1.53328420689700      1.00311854220135
  H   0.28028543162761      2.19240479351903     -0.40105050666164
