16
Coordinates from ORCA-job run
  C   -0.53242464495786     -0.63645833391567     -0.15646478924089
  C   0.86023027594513     -0.01180950516587     -0.49250384759903
  Br  -1.24856078796031     -1.26372484343353     -1.88246680939491
  H   1.47126691478372     -0.78068484187695     -0.96533758778905
  C   -0.36508389062636     -1.81482112428821      0.68651548566319
  N   -0.23732795767544     -2.74368082820168      1.39668454176730
  C   -1.53165637025753      0.33318363509954      0.46030425011554
  H   -2.48726568789372     -0.16955332425752      0.61045392388097
  H   -1.16020227102813      0.69014213224716      1.42218415321262
  H   -1.69145706987413      1.18338691270851     -0.20349550692401
  N   1.53997632857354      0.28822589839631      0.82165688109354
  O   1.21732537026083      1.33741161859160      1.37507220113249
  O   2.34121814274259     -0.54055994436713      1.24055206072671
  N   0.88841751669403      1.18356139881114     -1.26460146671816
  H   0.35264582171301      1.92637838104575     -0.83702437757876
  H   0.58189830956065      1.01600276860655     -2.21252911234758
