16
Coordinates from ORCA-job run
  C   -0.51061053426376     -0.38367317920690      0.37411975243599
  C   0.63078395173887      0.58423849100235     -0.07015267311064
  Br  0.23514481520357     -2.10072729010768      0.96412354574560
  H   0.14212456285519      1.51983054559765     -0.35355394212882
  C   -1.11087423432756      0.24466701878246      1.54820640545551
  N   -1.58321749500813      0.80847239805314      2.46586696912804
  C   -1.56331872823024     -0.63931641079127     -0.69915476874771
  H   -2.38318510401756     -1.22393478815758     -0.28100957477875
  H   -1.95227396654550      0.31371116404760     -1.06686023727808
  H   -1.13052576468630     -1.18589791501463     -1.53606794732814
  N   1.22352176118900      0.05550984760938     -1.35183325169590
  O   0.66227245185383      0.39047234269049     -2.39376813570444
  O   2.19623070258212     -0.68288115532670     -1.25325272114841
  N   1.68292582952871      0.84938890878482      0.84476321522414
  H   1.37396314446014      1.45146655946535      1.59571192793518
  H   2.08803860766762     -0.00132653742847      1.21286143599640
