16
Coordinates from ORCA-job run
  C   -0.54881561147745     -0.58216517057130      0.16360428086729
  C   0.57121810113201      0.20886540826470     -0.53710565208368
  Br  -0.44693928392827     -2.46537152396185     -0.36817887176199
  H   0.39393668213022      0.19123450561827     -1.61343403345570
  C   -0.41332155256273     -0.51092050321412      1.61586235831124
  N   -0.37703648870124     -0.39608005711998      2.78537800002547
  C   -1.90804972176294     -0.02681191545819     -0.25896174775745
  H   -1.96643024841594      1.02460159087661      0.02354272459971
  H   -2.02223584783103     -0.12171283900819     -1.34056984254803
  H   -2.70672030439280     -0.58530764886140      0.22960335312586
  N   1.90829029772639     -0.50183351945187     -0.36339284634849
  O   2.44011219132645     -0.95704548089244     -1.37159987252176
  O   2.36291795296423     -0.52256492353386      0.77773370266321
  N   0.59809091645301      1.54079190770039     -0.03926460551399
  H   1.17059276650441      2.14139870454824     -0.61862260313196
  H   0.94339015083572      1.56192146506499      0.91440565553031
