16
Coordinates from ORCA-job run
  C   -0.47098920282998     -0.66803931555192     -0.21035846026007
  C   0.90284894137970      0.04981207230961     -0.40932662194756
  Br  -0.98011813898457     -1.31870660890062     -1.99990679091213
  H   1.60612402924849     -0.67225725422666     -0.82427971271436
  C   -0.30826200225095     -1.84374675679785      0.63724745059756
  N   -0.19513208211153     -2.77078461664136      1.35225242253238
  C   -1.58438585364468      0.22781574876244      0.31607158208022
  H   -1.73611801258170      1.07483525927786     -0.35364933151145
  H   -2.51528648200277     -0.33677597607774      0.37211330487193
  H   -1.32877123728014      0.59505203447895      1.31129470089876
  N   1.43213666390477      0.38003904343132      0.96533240039165
  O   2.23441406353647     -0.40503806609623      1.45982366090819
  O   0.99609269830952      1.40434648392920      1.48641641482905
  N   0.92543301501646      1.25243704410255     -1.17068117430195
  H   0.30642278020809      1.95532042097967     -0.79046656152820
  H   0.71559082008283      1.07469048702081     -2.14288328393398
