12
Coordinates from ORCA-job run
  C   0.63769943522947     -0.23366702039616     -0.13348167275524
  C   -0.51272600379120     -0.14091453613693      0.54668533116384
  H   -0.60050255134476     -0.76450580144194      1.43289060920714
  C   0.94381583817084      0.50156692567054     -1.31834696479521
  N   1.12929989070617      1.13971792891901     -2.28842618816626
  N   1.70659380757208     -1.15539210291055      0.32395886697760
  O   2.70041553930757     -1.22368599655680     -0.39307109889867
  O   1.51865265175447     -1.77135686060807      1.36394744171021
  C   -1.65101896328617      0.74482389619114      0.17509381731349
  H   -1.45182717715086      1.32376483721927     -0.72669050354774
  H   -1.86835201002671      1.43282230636288      0.99712387246059
  H   -2.55205045714090      0.14482642368761      0.01831648933024
