12
Coordinates from ORCA-job run
  C   0.66235906335199     -0.18376445173030     -0.07917234136031
  C   -0.65247000906439     -0.38610047530230      0.07821915344278
  H   -0.97802262362794     -1.42243032543780      0.12264172997478
  C   1.28475650727417      1.09834629411421     -0.16121021447777
  N   1.73106386691587      2.18458775505517     -0.22204337462366
  N   1.59076482953085     -1.33769382715511     -0.18010400770090
  O   2.77925606327145     -1.06130179235962     -0.31091398324436
  O   1.10869520571653     -2.46059689595578     -0.12575484840296
  C   -1.67158869360742      0.69339632619228      0.19498762581841
  H   -2.41546841732722      0.58975563941365     -0.60013287497335
  H   -1.23235446873451      1.68943803120825      0.13930273722380
  H   -2.20799132369938      0.59536372195735      1.14318039832353
