12
Coordinates from ORCA-job run
  C   0.72865623810804      0.19656372287799     -0.29721546855408
  C   -0.55773714220663      0.58269451355981     -0.27414614638664
  H   -0.76733029401305      1.49584888013391     -0.82784838821158
  C   1.75504044232578      0.93106996497317     -0.96703191346622
  N   2.56916229082645      1.55303401297697     -1.54352023444816
  N   1.21310699332018     -1.00100681871213      0.41589422956679
  O   2.35844701447369     -0.94620972052301      0.85342522190328
  O   0.43686486313255     -1.94596399149159      0.52031556266495
  C   -1.70631620522334     -0.08342092880896      0.40949413279127
  H   -2.13759102526847     -0.84500408205173     -0.24730681718103
  H   -2.48134664994009      0.65127879591919      0.62956293121593
  H   -1.41095652553509     -0.58888434885364      1.32737689010547
