12
Coordinates from ORCA-job run
  C   0.63918245695852     -0.23557512988549     -0.11757942765312
  C   -0.65098577082100     -0.31695177606998      0.23413709818472
  H   -1.00071302774236     -1.29967773533554      0.53939418632862
  C   1.29944603460697      0.96021204482917     -0.53232987448346
  N   1.78847484316114      1.98321441537251     -0.84413730572861
  N   1.49781939734232     -1.44650769143606     -0.08627409427933
  O   2.64952020098811     -1.29806177201494     -0.48324034462392
  O   1.00026802376853     -2.48663997337002      0.32163288272238
  C   -1.60739948790452      0.82446901448901      0.23637843192861
  H   -1.13655090064176      1.76346238931841     -0.05487674724033
  H   -2.43489767845449      0.61584186591699     -0.44800863340428
  H   -2.04416409126144      0.93521434818595      1.23390382824871
