12
Coordinates from ORCA-job run
  C   0.67262860802097      0.03648783754365     -0.45186295107987
  C   -0.48950860171580      0.66518906763630     -0.20960206707743
  H   -0.64560350730651      1.57135731521237     -0.79162649295635
  C   1.64809254100567      0.52169363812784     -1.37623860808402
  N   2.41905771124158      0.94287141683335     -2.15733149698505
  N   1.07455304784338     -1.19364418165936      0.25681962624203
  O   0.18170248416903     -1.96334680650314      0.59830575106875
  O   2.27746642432355     -1.33969019435830      0.45166527567670
  C   -1.56762481133251      0.26991078877811      0.74551887768907
  H   -2.13659914595726      1.15045894687664      1.04509850273331
  H   -2.25526543563941     -0.42872663325663      0.25922434572915
  H   -1.17989931465268     -0.23256119523083      1.63002923704371
