12
Coordinates from ORCA-job run
  C   0.73886394971210      0.16982271883522     -0.27616960343854
  C   -0.39818662777747      0.71166820518195      0.19043219254875
  H   -0.37738280973819      1.79727314092700      0.27191032955454
  C   1.89374302179060      0.94787369901094     -0.59970171590224
  N   2.83299361475859      1.60472547749304     -0.86029171944719
  N   0.94114334508046     -1.28384394325627     -0.43816490598150
  O   2.07864316043356     -1.69399226344166     -0.22565786200746
  O   -0.03012479565172     -1.96532533632700     -0.75265908748610
  C   -1.66505496098485      0.04028835012793      0.60118280129026
  H   -1.57622398637255     -1.04023768370341      0.66992284820318
  H   -1.99843188536205      0.44643518307130      1.55927899149741
  H   -2.44098202588849      0.26431245208095     -0.13808226883112
