12
Coordinates from ORCA-job run
  C   0.71977035215082      0.19605673522554     -0.31864773037770
  C   -0.59312210208930      0.47163427265607     -0.38887395277086
  H   -0.86220701065712      1.21403747874531     -1.13770492065720
  C   1.69358597705879      0.80034940899511     -1.17196817155503
  N   2.46715006546246      1.32903121491330     -1.88185746203276
  N   1.27485147656595     -0.80202869804105      0.61598888916743
  O   2.26565917773236     -1.41482443549432      0.22983680117910
  O   0.70231180202935     -0.94538191777509      1.69209128778486
  C   -1.70082778062206     -0.11102280098672      0.42652515237670
  H   -2.63756627451446     -0.04837749080580     -0.12776202861559
  H   -1.51264343645775     -1.14535675281534      0.70939796412101
  H   -1.81596224665905      0.45788298538299      1.35397417138003
