19

C	-0.373682	-0.005072	-1.494097
C	0.0	0.0	0.0
Cl	-2.176936	-0.178039	-1.679601
H	1.092214	0.0	0.0
C	0.059647	1.263479	-2.2073
H	-0.119573	1.157233	-3.28033
H	-0.483191	2.137562	-1.849128
H	1.127182	1.415274	-2.023647
C	0.278284	-1.223807	-2.129147
H	1.360777	-1.153692	-1.980351
H	0.051505	-1.252753	-3.197557
H	-0.084707	-2.14624	-1.673886
N	-0.445566	-1.099296	0.790275
H	-1.343423	-1.459801	0.49938
H	0.262515	-1.818274	0.806907
N	-0.4903	1.278687	0.630301
O	-1.583963	1.25072	1.193136
O	0.214051	2.280042	0.506207
Br	3.496239	0.0	0.0
