19

C	-0.533956	-0.025786	-1.445462
C	0.0	0.0	0.0
Cl	-0.177641	1.550661	-2.247959
H	1.090933	0.0	0.0
C	0.242782	-1.103244	-2.187478
H	1.314833	-0.908286	-2.112206
H	0.030407	-2.07128	-1.73005
H	-0.056337	-1.120426	-3.238734
C	-2.03603	-0.244216	-1.525925
H	-2.583034	0.550677	-1.017435
H	-2.343157	-0.265015	-2.573972
H	-2.28878	-1.203721	-1.069084
N	-0.438519	-1.176202	0.69848
H	0.240202	-1.394203	1.418339
H	-1.34217	-1.009645	1.12475
N	-0.471196	1.256609	0.711977
O	0.271818	2.227933	0.746065
O	-1.603831	1.216809	1.212491
Br	3.536891	0.0	0.0
