19

C	-0.406327	-0.00082	-1.476825
C	0.0	0.0	0.0
Cl	-2.226841	-0.033391	-1.593442
H	1.093049	0.0	0.0
C	0.099629	1.209537	-2.241963
H	1.177922	1.29347	-2.078447
H	-0.374381	2.13333	-1.91597
H	-0.101489	1.068105	-3.30673
C	0.134512	-1.280639	-2.093929
H	-0.272473	-2.153081	-1.586815
H	1.222725	-1.279889	-1.973316
H	-0.117302	-1.314703	-3.156695
N	-0.472321	-1.140985	0.705306
H	0.098568	-1.278752	1.528767
H	-1.435421	-1.007725	0.98511
N	-0.434876	1.302231	0.668027
O	0.181579	2.325325	0.382901
O	-1.380603	1.252211	1.458522
Br	3.48372	0.0	0.0
