19

C	-0.489249	-0.11694	-1.46004
C	0.0	0.0	0.0
Cl	0.075618	1.336527	-2.368496
H	1.09424	0.0	0.0
C	0.200766	-1.327847	-2.07555
H	-0.015563	-1.374897	-3.145361
H	1.281054	-1.255903	-1.924657
H	-0.167705	-2.244641	-1.606576
C	-2.00074	-0.177799	-1.628455
H	-2.481296	0.727244	-1.260161
H	-2.237033	-0.297445	-2.688454
H	-2.420159	-1.033531	-1.090814
N	-0.398118	-1.073996	0.863793
H	0.328936	-1.774064	0.89352
H	-1.298191	-1.47477	0.648631
N	-0.52147	1.27738	0.60368
O	0.223708	2.247152	0.67632
O	-1.698283	1.2567	0.97984
Br	3.523036	0.0	0.0
