19

C	-0.466075	0.273112	-1.455599
C	0.0	0.0	0.0
Cl	-0.064727	-1.229816	-2.382824
H	1.095304	0.0	0.0
C	-1.964237	0.490165	-1.593328
H	-2.225221	0.561931	-2.651412
H	-2.261577	1.415719	-1.095968
H	-2.537696	-0.331293	-1.158804
C	0.337733	1.405631	-2.075847
H	0.115582	1.475431	-3.143452
H	0.080638	2.353698	-1.597927
H	1.40569	1.224818	-1.929509
N	-0.453531	-1.187333	0.647173
H	-1.367803	-1.483687	0.339294
H	0.223262	-1.917369	0.47999
N	-0.479659	1.183519	0.809977
O	-1.57915	1.077884	1.359239
O	0.219873	2.193853	0.83109
Br	3.532015	0.0	0.0
