19

C	-0.350121	-0.031894	-1.499803
C	0.0	0.0	0.0
Cl	-2.15307	-0.177031	-1.716371
H	1.10183	0.0	0.0
C	0.124907	1.209379	-2.233891
H	1.191413	1.341078	-2.029954
H	-0.031868	1.080145	-3.307665
H	-0.40441	2.104073	-1.908689
C	0.291888	-1.276365	-2.095105
H	0.091287	-1.321667	-3.167775
H	-0.100292	-2.182852	-1.631906
H	1.371992	-1.223032	-1.922549
N	-0.455876	-1.083262	0.803892
H	0.244599	-1.809211	0.832502
H	-1.356273	-1.439174	0.514365
N	-0.493695	1.290714	0.600569
O	-1.586356	1.27176	1.165498
O	0.207943	2.290853	0.45418
Br	3.497204	0.0	0.0
