19

C	-0.562024	-0.033792	-1.431635
C	0.0	0.0	0.0
Cl	0.214461	1.210813	-2.474454
H	1.100352	0.0	0.0
C	-0.167781	-1.375951	-2.036703
H	-0.451303	-1.397713	-3.091244
H	0.913088	-1.506513	-1.962241
H	-0.675155	-2.183385	-1.510932
C	-2.064052	0.173914	-1.457712
H	-2.447828	0.015501	-2.468359
H	-2.526119	-0.545738	-0.779304
H	-2.321529	1.187036	-1.149512
N	-0.465678	-1.189848	0.71443
H	-0.633304	-0.908481	1.676218
H	0.328377	-1.826046	0.741979
N	-0.43621	1.21614	0.771387
O	-0.492856	2.28732	0.177976
O	-0.681003	1.084495	1.97302
Br	3.441461	0.0	0.0
