19

C	-0.409649	0.02887	-1.476672
C	0.0	0.0	0.0
Cl	-2.229196	-0.019801	-1.590831
H	1.091929	0.0	0.0
C	0.080792	1.261105	-2.216023
H	-0.122102	1.139686	-3.283031
H	-0.403991	2.17164	-1.869618
H	1.158216	1.354779	-2.053736
C	0.143461	-1.230961	-2.123788
H	-0.110472	-1.242594	-3.186779
H	1.231718	-1.222136	-2.005134
H	-0.253821	-2.118949	-1.63709
N	-0.470327	-1.157595	0.679269
H	-1.438759	-1.037632	0.948606
H	0.090074	-1.302988	1.509504
N	-0.440799	1.28584	0.694546
O	-1.385946	1.214734	1.484289
O	0.165269	2.318819	0.426955
Br	3.47721	0.0	0.0
