12

C	0.0	0.0	0.0
C	-0.474843	0.151341	-1.466377
Br	1.934258	0.0	0.0
H	0.402151	0.208637	-2.121009
H	-0.339562	-0.954543	0.383399
H	-0.350882	0.799519	0.6399
C	-1.166763	1.449966	-1.65045
N	-1.600141	2.497822	-1.960236
N	-1.263945	-1.009601	-1.849604
H	-2.079947	-0.876094	-1.200824
H	-1.576522	-0.873389	-2.806167
F	-2.602878	0.0	0.0
