12

C	0.0	0.0	0.0
C	-0.488175	0.087377	-1.464232
Br	1.936328	0.0	0.0
H	0.38528	0.123641	-2.12375
H	-0.339355	-0.936716	0.425779
H	-0.346098	0.826513	0.608891
C	-1.174589	1.382095	-1.692281
N	-1.545808	2.453056	-2.005958
N	-1.270359	-1.095231	-1.785348
H	-2.094207	-0.926041	-1.156293
H	-1.564887	-1.027446	-2.754822
F	-2.638743	0.0	0.0
