12

C	0.0	0.0	0.0
C	-0.635435	-0.306307	-1.373435
Br	1.93258	0.0	0.0
H	-1.436198	-1.020216	-1.146233
H	-0.317415	-0.733191	0.734504
H	-0.334123	0.985566	0.306968
C	0.273232	-0.89298	-2.36319
N	0.91467	-1.416297	-3.197353
N	-1.249055	0.935249	-1.867733
H	-1.618534	0.744139	-2.794982
H	-2.068647	0.9207	-1.218382
F	-2.787191	0.0	0.0
