15

C	-0.383067	-0.010838	-1.467364
C	0.0	0.0	0.0
Cl	-2.172969	-0.079088	-1.663631
H	1.095283	0.0	0.0
H	-0.000632	-0.939536	-1.888171
C	0.19261	1.196501	-2.177972
H	1.27242	1.212681	-2.005985
H	-0.246285	2.119403	-1.794065
H	-0.007555	1.133263	-3.248879
N	-0.413825	-1.268341	0.687574
O	-0.794338	-1.194964	1.851986
O	-0.288997	-2.302588	0.040182
C	-0.515517	1.155262	0.715037
N	-0.900401	2.127774	1.24928
Cl	3.171987	0.0	0.0
