15

C	-0.383632	-0.00614	-1.467254
C	0.0	0.0	0.0
Cl	-2.173074	-0.068996	-1.663862
H	1.095286	0.0	0.0
H	-0.003197	-0.934368	-1.890852
C	0.194636	1.202107	-2.173988
H	-0.239846	2.125047	-1.784753
H	1.275224	1.213733	-2.005587
H	-0.010021	1.144506	-3.2448
N	-0.414056	-1.269666	0.684754
O	-0.784019	-1.200381	1.852427
O	-0.298477	-2.301565	0.032131
C	-0.514918	1.153245	0.719266
N	-0.897819	2.119552	1.266025
Cl	3.171261	0.0	0.0
