12
Coordinates from ORCA-job run
  C   0.78920329992292      0.60531733720947     -0.14926732996025
  C   -0.14264913587784     -0.60043136932087     -0.03098822399005
  Br  0.95884737051686      1.56037057015165      1.55192496507933
  H   0.25436505534906     -1.27360391693603      0.73360483001344
  H   0.38351651330142      1.33939325948872     -0.84964106837252
  H   -0.08881393554785     -1.13203710381762     -0.98792698808045
  C   2.12134140305536      0.21488017839012     -0.59406440092482
  N   3.18150054566238     -0.10750735288972     -0.98391189900930
  C   -1.58592694899328     -0.21977042516183      0.27202685429436
  H   -1.98152774023306      0.45843873911481     -0.48864824021553
  H   -1.67476923815447      0.26686545798793      1.24372687210535
  H   -2.21508718900149     -1.11191537421662      0.28316462906045
