12
Coordinates from ORCA-job run
  C   0.81351713116481      0.59479304103143     -0.00521217601009
  C   -0.16705066689812     -0.56510906577702     -0.17710454844006
  Br  1.04133353358978      1.07876000201885      1.87878483115471
  H   -0.14154096091833     -0.84193132278444     -1.23717465948786
  H   0.43135692998046      1.49805028577291     -0.48704163281970
  H   0.20648630629392     -1.42303102758716      0.38834759480029
  C   2.12251323963529      0.27774029748587     -0.56277397571228
  N   3.15664463820748     -0.00835697218309     -1.04109596315571
  C   -1.59089138609525     -0.21576859334006      0.23540073218097
  H   -1.65180666559435      0.02131182302576      1.29788924354924
  H   -1.96422158399287      0.64237973764515     -0.32959573918199
  H   -2.25634051537282     -1.05883820530820      0.03957629312247
