12
Coordinates from ORCA-job run
  C   0.88144746782486      0.74005300520659     -0.12010523062591
  C   -0.57965364101999      0.41188923023926     -0.42873453546737
  Br  1.09785461269933      1.42963657838672      1.70070263560153
  H   -0.62576327032071      0.17674256788043     -1.49870892554908
  H   1.23719933308535      1.54509703786542     -0.76591652720596
  H   -1.16427838060835      1.32278940318284     -0.27244239021011
  C   1.75051043914028     -0.41812737537830     -0.29264462541811
  N   2.44271391033018     -1.35063005468564     -0.46959307491481
  C   -1.14684710252108     -0.74352050443225      0.38463626560820
  H   -2.18264434825603     -0.93099262252496      0.09506694520900
  H   -1.13079070830894     -0.52146617913795      1.45242231371199
  H   -0.57974831204489     -1.66147108660215      0.21531714926064
