18

C	-0.467881	-0.04072	-1.466089
C	0.0	0.0	0.0
Br	-0.023431	1.656986	-2.39382
H	1.099557	0.0	0.0
C	0.237686	-1.16483	-2.214597
H	-0.028411	-1.162106	-3.273811
H	-0.055078	-2.110188	-1.755577
H	1.31459	-1.021585	-2.084373
C	-1.924532	-0.160499	-1.538976
N	-3.095904	-0.27278	-1.553031
N	-0.38786	-1.294782	0.579006
H	0.435468	-1.670356	1.040358
H	-1.118239	-1.174122	1.271308
C	-0.525276	1.171797	0.807927
H	-0.221518	2.128938	0.383305
H	-1.620385	1.151605	0.886776
H	-0.099748	1.104639	1.813478
H	2.893305	0.0	0.0
