18

C	-0.278432	0.029703	-1.499435
C	0.0	0.0	0.0
Br	-2.267678	0.262245	-1.902243
H	1.09927	0.0	0.0
C	0.501256	1.120821	-2.20961
H	0.416593	1.032319	-3.294751
H	1.547706	0.998558	-1.885646
H	0.144004	2.104307	-1.905367
C	0.029512	-1.273066	-2.087168
N	0.284285	-2.319747	-2.558373
N	-0.457404	-1.197395	0.685219
H	-1.374789	-1.477781	0.352438
H	0.198118	-1.94784	0.497001
C	-0.463778	1.241137	0.738848
H	-0.094522	2.160682	0.277987
H	-0.052855	1.182493	1.748908
H	-1.556186	1.286744	0.805826
H	2.817028	0.0	0.0
