18

C	-0.476519	-0.0179	-1.468406
C	0.0	0.0	0.0
Br	0.200513	-1.6494	-2.369663
H	1.095443	0.0	0.0
C	-1.996056	-0.015467	-1.645473
H	-2.409518	0.906878	-1.230186
H	-2.440109	-0.870135	-1.13111
H	-2.260605	-0.077007	-2.702593
C	0.06658	1.115036	-2.219668
N	0.385811	2.057779	-2.846258
N	-0.385922	-1.172507	0.772817
H	0.346053	-1.865566	0.661927
H	-1.263088	-1.57628	0.468935
C	-0.476323	1.267635	0.698757
H	-0.25651	2.168506	0.118246
H	0.074766	1.331955	1.639314
H	-1.547078	1.238032	0.931792
H	2.856348	0.0	0.0
