18

C	-0.280466	0.029578	-1.499473
C	0.0	0.0	0.0
Br	-2.271258	0.263644	-1.898877
H	1.099235	0.0	0.0
C	0.500032	1.118584	-2.211155
H	0.418875	1.025459	-3.295572
H	1.545369	0.997996	-1.883737
H	0.140615	2.103403	-1.911871
C	0.024504	-1.275484	-2.08431
N	0.265844	-2.327335	-2.551644
N	-0.467382	-1.18909	0.689942
H	-1.408024	-1.430349	0.393494
H	0.149946	-1.962269	0.465911
C	-0.454291	1.247313	0.734284
H	-0.055622	2.158739	0.283038
H	-1.546422	1.317737	0.780574
H	-0.063586	1.178072	1.751366
H	2.81827	0.0	0.0
