18

C	-0.465717	-0.044177	-1.466801
C	0.0	0.0	0.0
Br	-0.040354	1.656703	-2.395017
H	1.099598	0.0	0.0
C	0.250733	-1.161978	-2.215144
H	1.325779	-1.010133	-2.085104
H	-0.033758	-2.108772	-1.755657
H	-0.016022	-1.162435	-3.27414
C	-1.921283	-0.179279	-1.539519
N	-3.091165	-0.304309	-1.555358
N	-0.389476	-1.292764	0.580382
H	0.424333	-1.660879	1.064133
H	-1.140019	-1.174887	1.250053
C	-0.524058	1.175398	0.803622
H	-1.620111	1.165563	0.870133
H	-0.110884	1.102779	1.813704
H	-0.206347	2.130358	0.38405
H	2.896732	0.0	0.0
