18

C	-0.366692	-0.046772	-1.505231
C	0.0	0.0	0.0
Br	0.039648	1.678956	-2.39629
H	1.096746	0.0	0.0
C	0.455086	-1.117794	-2.219812
H	1.506765	-0.941868	-1.968044
H	0.298101	-1.080565	-3.299329
H	0.161084	-2.104663	-1.854969
C	-1.803964	-0.252143	-1.689534
N	-2.956686	-0.475787	-1.775038
N	-0.3739	-1.252956	0.656843
H	0.357982	-1.936525	0.507438
H	-1.262739	-1.622865	0.337898
C	-0.589972	1.170911	0.759037
H	-0.272709	1.074687	1.798798
H	-1.687076	1.158172	0.732435
H	-0.235434	2.127263	0.373564
H	2.924494	0.0	0.0
