18

C	-0.531784	0.013087	-1.438466
C	0.0	0.0	0.0
Br	0.166391	-1.575913	-2.408436
H	1.100779	0.0	0.0
C	-2.053267	-0.044217	-1.533428
H	-2.396666	-0.897268	-0.949477
H	-2.476583	0.874373	-1.117045
H	-2.375423	-0.138806	-2.572244
C	-0.041873	1.176642	-2.176943
N	0.233189	2.145698	-2.783645
N	-0.508247	-1.206996	0.677608
H	0.175556	-1.938595	0.494977
H	-0.437741	-1.027986	1.674638
C	-0.452532	1.239048	0.757767
H	0.129584	1.292595	1.683824
H	-0.240505	2.152788	0.197908
H	-1.518581	1.20633	1.010264
H	2.884535	0.0	0.0
