18

C	-0.409303	-0.025529	-1.495302
C	0.0	0.0	0.0
Br	0.132516	1.647783	-2.408036
H	1.096757	0.0	0.0
C	0.284459	-1.172869	-2.223971
H	1.353912	-1.099153	-2.004105
H	0.10519	-1.121459	-3.299504
H	-0.099154	-2.125741	-1.852457
C	-1.862953	-0.099447	-1.636298
N	-3.031135	-0.219825	-1.715526
N	-0.410947	-1.228998	0.671782
H	-1.36559	-1.49613	0.449113
H	0.225051	-1.981885	0.436741
C	-0.542286	1.190232	0.767681
H	-0.197449	2.135901	0.348689
H	-1.639719	1.191116	0.795617
H	-0.172679	1.110185	1.791503
H	2.938377	0.0	0.0
