15

C	-0.544357	0.012875	-1.414626
C	0.0	0.0	0.0
Br	0.058376	-1.68881	-2.294898
H	1.087907	0.0	0.0
H	0.020369	0.773079	-1.950953
N	-1.932296	0.267784	-1.491624
H	-2.22901	0.390292	-2.449559
H	-2.455189	-0.477631	-1.052028
N	-0.504644	-1.118406	0.847586
O	-1.591568	-1.625509	0.55875
O	0.191504	-1.431082	1.804854
N	-0.443876	1.27753	0.660327
O	-1.102078	1.213586	1.693772
O	-0.096314	2.299188	0.083472
Cl	3.197941	0.0	0.0
