15

C	-0.585306	0.009273	-1.403066
C	0.0	0.0	0.0
Br	0.282637	-1.328929	-2.520691
H	1.088718	0.0	0.0
H	-0.287505	0.960826	-1.852174
N	-2.004452	-0.264304	-1.390051
H	-2.460784	0.490158	-0.888572
H	-2.350148	-0.275668	-2.341541
N	-0.536084	-1.155453	0.78309
O	0.006802	-2.233344	0.583294
O	-1.499753	-0.951382	1.51862
N	-0.408321	1.235728	0.750929
O	0.080831	1.367337	1.863881
O	-1.181094	2.032978	0.210014
Cl	3.197027	0.0	0.0
