15

C	-0.312983	-0.013895	-1.479397
C	0.0	0.0	0.0
Br	-2.239754	-0.061491	-1.916864
H	1.094954	0.0	0.0
H	0.024517	-0.991483	-1.832517
N	0.328698	1.116846	-2.084646
H	1.288003	1.1499	-1.737566
H	0.359014	0.994744	-3.090751
N	-0.520064	-1.222264	0.670839
O	-0.155933	-2.284326	0.176004
O	-1.27284	-1.094522	1.631122
N	-0.448844	1.193618	0.772026
O	0.124041	1.351841	1.844916
O	-1.327381	1.914975	0.310119
Cl	3.168213	0.0	0.0
