12
Coordinates from ORCA-job run
  C   0.73864627956983     -0.05775807360308      0.64055380856834
  C   -0.39570456010824      0.34681930100701     -0.02326897530072
  H   1.24303076177047      0.57201483822488      1.35707790800498
  N   1.37913155790000     -1.29765158520985      0.42580683499317
  O   0.87348472694360     -2.13632682485092     -0.34650345117302
  O   2.43787601270678     -1.49350883060834      1.02848932436915
  N   -0.90376821298374      1.60102881116492      0.23501476612915
  H   -1.60534102542541      1.94852935170437     -0.39702308552368
  H   -0.23575805440085      2.29409955126778      0.52646464336024
  N   -1.14624124278384     -0.44718321004562     -0.83078445915195
  H   -0.70504171045675     -1.32840757459305     -1.05855728319039
  H   -1.68131453273186     -0.00165575445811     -1.55727003108525
