12
Coordinates from ORCA-job run
  C   0.42558951698066     -0.64199663596210      0.56952772362623
  C   -0.50067565401955      0.08284939272155     -0.13182862253951
  H   0.16992534878843     -1.53423486099025      1.12071206692078
  N   1.81925116159461     -0.37452065580638      0.54998412200452
  O   2.55200264275866     -1.19595777557614      1.10564303456282
  O   2.24458368709426      0.65622723290274     -0.00176634440917
  N   -0.28031714965481      1.27973670279587     -0.74501964500885
  H   -0.81968070012321      1.43266752918980     -1.58253513564079
  H   0.69583511469958      1.53866286727497     -0.78895441238975
  N   -1.80167823972568     -0.37721053850765     -0.25103656465109
  H   -2.49905722299628      0.34209288504777     -0.12772141838457
  H   -2.00477850539668     -1.20731614309019      0.28299519590939
