12
Coordinates from ORCA-job run
  C   0.84960026377064      0.01829148961706      0.44165713079728
  C   -0.37640260166946      0.35969869860823     -0.06368906817590
  H   1.50385271923715      0.73496062308977      0.91448581602758
  N   1.43668735105123     -1.26561577448301      0.29479464470462
  O   2.60522994668624     -1.38964281007106      0.66831684108597
  O   0.76969381260789     -2.20112025050812     -0.18220724784247
  N   -0.77713625188174      1.68506727774974     -0.08640516679322
  H   -0.14550245994967      2.32463330362473      0.36900378951995
  H   -1.73711310374945      1.82362631059133      0.19297901574634
  N   -1.30600727933749     -0.50613952843523     -0.55797615836853
  H   -0.95615847146853     -1.44628288401319     -0.68298249829727
  H   -1.86874392529683     -0.13847645577026     -1.30897709840435
