12
Coordinates from ORCA-job run
  C   0.84046808310952      0.11393573626094      0.44543032355872
  C   -0.39017284504672      0.33105233232406     -0.11453400816665
  H   1.45472746006958      0.91523736602840      0.82727249482583
  N   1.48502242159545     -1.15017894106459      0.47426585394123
  O   2.65143474346285     -1.17154355744522      0.87346339775153
  O   0.86723510139757     -2.16895789964720      0.11651172564020
  N   -1.27207751442677     -0.63267003930869     -0.50282370294653
  H   -1.83966841750107     -0.39199489952775     -1.30008860206253
  H   -0.88045628375001     -1.56455771207577     -0.49951784610152
  N   -0.84724090824224      1.62287077354345     -0.31465679919908
  H   -0.25217579430873      2.34367666730861      0.06185511668290
  H   -1.81709604635943      1.75313017360374     -0.06717795392411
