12
Coordinates from ORCA-job run
  C   0.50615708867464     -0.70580404430294      0.40392942145767
  C   -0.51466173430499      0.09166015996756     -0.04006896538563
  H   0.33505362996462     -1.66932129684608      0.85956770475419
  N   1.88124157918296     -0.41569999988180      0.20516861853282
  O   2.68698334494238     -1.29366678472645      0.52188177924212
  O   2.22088683585236      0.68772224812713     -0.25821190908855
  N   -1.82017233490256     -0.36976874724670     -0.01886367695930
  H   -1.94297172394583     -1.26884483953805      0.41924607779178
  H   -2.48721475428421      0.31434408105828      0.30642135054683
  N   -0.38723554468483      1.36482005237022     -0.50923142848601
  H   0.57138660234661      1.64429938785760     -0.66654379630008
  H   -1.04845298884115      1.62125978316124     -1.22529517610585
