12
Coordinates from ORCA-job run
  C   0.87671940140396      0.11857944368172      0.36721409450001
  C   -0.41370463317521      0.31929741550889     -0.04451087612994
  H   1.49036390294707      0.91237621744532      0.76538269528338
  N   1.57461875967938     -1.10798854225760      0.21554407955426
  O   2.77484375669799     -1.10438282946370      0.49800308347384
  O   0.96880883676353     -2.12122194833935     -0.17688149809137
  N   -1.28821265654865     -0.65118121363722     -0.43379395611309
  H   -1.94284741446618     -0.36980177011870     -1.14659201956375
  H   -0.85726981644551     -1.55713830670653     -0.55780249495479
  N   -0.94569133710756      1.59755473505073     -0.07449759545902
  H   -1.88980190406140      1.65181417405290      0.27843350207834
  H   -0.34782689568743      2.31209262478353      0.30950098542213
