12
Coordinates from ORCA-job run
  C   0.83418078454766      0.02738556304412      0.47011823286218
  C   -0.38172369194100      0.35265177498598     -0.06917515428373
  H   1.45591212230880      0.74739971436117      0.98027127677040
  N   1.45485458390180     -1.23964393824855      0.31517614093689
  O   0.82435412649059     -2.17925347360658     -0.20218441835692
  O   2.61296171238505     -1.34667930607092      0.72489905927637
  N   -0.81154839137363      1.66945283127407     -0.07747518411801
  H   -1.78229597174055      1.77993164946466      0.17628767183920
  H   -0.20902476226045      2.31209336543734      0.41191352057564
  N   -1.27398021190652     -0.52190775006386     -0.61320421829300
  H   -0.90081845701480     -1.45200116648426     -0.74546254839945
  H   -1.82387184339695     -0.14942926409318     -1.37116437880956
