12
Coordinates from ORCA-job run
  C   0.83927787725494      0.00578904608933      0.51180942383850
  C   -0.41436303068146      0.31876305726867      0.04304861645206
  H   1.41732525781145      0.69136199220340      1.11225608693439
  N   1.53203070164697     -1.18050949382978      0.18002921069129
  O   2.70759597489010     -1.26338388339629      0.54605165259482
  O   0.95052369256822     -2.08939158166704     -0.44433258695148
  N   -1.25337523509022     -0.55195471289652     -0.58628356479299
  H   -1.86211140890754     -0.16095526183192     -1.28691552498591
  H   -0.80962086587500     -1.43044731683980     -0.82177478204597
  N   -0.93504127584109      1.55735466723904      0.31003066836668
  H   -1.86451372418607      1.77484354705509     -0.00053568554096
  H   -0.30672796359030      2.32952994060582      0.43561648543957
