12
Coordinates from ORCA-job run
  C   0.48645371848264     -0.79528033526173      0.21949928468181
  C   -0.51038241146111      0.12015176056856      0.01183301060932
  H   0.28655330163425     -1.82521718021205      0.47352701624192
  N   1.86344046226989     -0.52973787555986     -0.00079526046831
  O   2.63472024089037     -1.48874054827620      0.07494694359342
  O   2.23907255546261      0.63079261880372     -0.24483419843648
  N   -0.33761015061091      1.45655508319881     -0.19246922423347
  H   0.62540612353633      1.72143510495763     -0.34792079980725
  H   -1.01989115332224      1.88373254206190     -0.79887689381361
  N   -1.83697191755523     -0.27880625222302      0.01686114772582
  H   -2.44629361129307      0.34937418423417      0.52001315713469
  H   -1.98449715803351     -1.24325910229192      0.26921581677214
