12
Coordinates from ORCA-job run
  C   0.78131348184712      0.03695683329163      0.55290504616049
  C   -0.38716531128170      0.34105211825641     -0.09322121053998
  H   1.21282395860467      0.67867920598896      1.30602678656473
  N   1.47563726613172     -1.19116776060540      0.39610282624902
  O   2.42923402936528     -1.39205590280431      1.15157232441594
  O   1.11770271649081     -1.99790093632225     -0.48063694638983
  N   -1.12563375101459      1.44944957977577      0.28622801216515
  H   -0.68810201263292      2.02773754629530      0.98593640509486
  H   -1.48194436922766      1.98518724665904     -0.49152765513862
  N   -0.92698570373280     -0.35018009731408     -1.13650168487419
  H   -0.47444257170692     -1.23690978526123     -1.31176644728139
  H   -1.93443773284301     -0.35184804795984     -1.16611745642618
