12
Coordinates from ORCA-job run
  C   0.51507712233168     -0.74825287141204      0.30349853964645
  C   -0.51322892617607      0.06962052371651     -0.08232013308593
  H   0.35301054645946     -1.73775642357887      0.70320919034089
  N   1.87778101145600     -0.35182165010533      0.32236518637220
  O   2.21150545078818      0.74371606146648     -0.16346548694538
  O   2.68034598348316     -1.14163876854117      0.82491537587088
  N   -1.82626927564216     -0.30715011006033      0.14450642773514
  H   -2.44262415530723     -0.12272965576230     -0.63319258531713
  H   -1.94122371787569     -1.23585271420398      0.51815181377951
  N   -0.38474431082265      1.27096230552356     -0.71315868718250
  H   0.56576939880557      1.61403999184231     -0.73946962981905
  H   -1.09539912750026      1.94786331111516     -0.48404001139508
