12
Coordinates from ORCA-job run
  C   0.47181182372958     -0.77659349687844      0.30345749370838
  C   -0.51024301925912      0.10789953206503     -0.05448472856493
  H   0.26310729198135     -1.80093019514237      0.57249711923841
  N   1.85977295967325     -0.48484189191543      0.24342064410139
  O   2.23924648299463      0.67477432789557      0.00092242487971
  O   2.63502922781446     -1.42089112376663      0.45096908799827
  N   -0.33969371450074      1.44014496883954     -0.28571527624652
  H   -0.95260211775549      1.83030388888508     -0.98419180787943
  H   0.62969668039093      1.72203838928102     -0.33522741626710
  N   -1.81960157214331     -0.32203268601822     -0.19389551419125
  H   -1.97796876247166     -1.28001673661243      0.07586714240692
  H   -2.49755528045387      0.30914502336728      0.20738083081615
