12
Coordinates from ORCA-job run
  C   0.76205947272049     -0.01591509929454      0.58000217215601
  C   -0.40485865961922      0.32993424211380     -0.04753552975801
  H   1.23867746135204      0.61850383637122      1.31181528629297
  N   1.52444903833728     -1.16826912917939      0.25525498588402
  O   1.06523479120095     -2.01304751281200     -0.53398747189290
  O   2.62719284495205     -1.27667916961581      0.79618202435918
  N   -1.12833608506810     -0.46630021987508     -0.88436652143727
  H   -0.64671759427229     -1.31332463346155     -1.15342286051515
  H   -1.61223393796934      0.02230263520292     -1.62118220708500
  N   -0.96344724492290      1.58018138148013      0.15882713021287
  H   -1.96497560154687      1.56138931425246      0.28303386663761
  H   -0.49804448516409      2.14022435481784      0.85537912514568
