12
Coordinates from ORCA-job run
  C   0.89207960266354      0.05901157926509      0.40371293312248
  C   -0.39099831406444      0.35183685059181      0.00491390607023
  H   1.56417663688367      0.81279043218274      0.78389375708228
  N   1.47121586860755     -1.22596598462554      0.31863193030304
  O   2.66434868813270     -1.32405717986345      0.61759052379227
  O   0.78136540829372     -2.19943903003380     -0.04490116637787
  N   -1.32740115322624     -0.57181778058887     -0.33715790599895
  H   -2.04025108847471     -0.29160616638840     -0.98999951262688
  H   -0.95706746784266     -1.50780408461506     -0.43733464055203
  N   -0.82370301908870      1.65635073414825      0.07075301787243
  H   -0.12235535927751      2.36778578326141     -0.04084003703632
  H   -1.71140980260691      1.87291484666584     -0.34926280565070
