12
Coordinates from ORCA-job run
  C   0.83407763854780      0.09174026909394      0.44813761303803
  C   -0.40005549253489      0.32613658233350     -0.13038017280071
  H   1.43105819065372      0.89387255905062      0.85292549876475
  N   1.47188747533366     -1.16095150081643      0.45600428515476
  O   0.85785613529036     -2.17540269414784      0.06060186659798
  O   2.62823801791228     -1.20762937704474      0.88137105181273
  N   -0.84581394855778      1.62889636799064     -0.23152501070397
  H   -0.24175878172609      2.29845768182546      0.21273119258266
  H   -1.81652305788694      1.77447324503761     -0.01075584649885
  N   -1.22146903758341     -0.60486126010971     -0.60425131780030
  H   -0.81661524034215     -1.52750682266550     -0.62635971995423
  H   -1.88088189910658     -0.33822505054754     -1.30849944019284
