12
Coordinates from ORCA-job run
  C   0.90992277761618      0.10517844465262      0.33979114970806
  C   -0.33214450613194      0.35912476311486     -0.19430117866695
  H   1.55943288566423      0.89301906542749      0.68895751249513
  N   1.44726862691754     -1.18879823918023      0.50883505072986
  O   2.55216655809850     -1.27137651876400      1.05207979603061
  O   0.80637815108885     -2.18615035449490      0.12073280853276
  N   -1.13705417310417     -0.57686334916803     -0.75678814579821
  H   -2.12459409580553     -0.39174397624634     -0.80046125664547
  H   -0.84345555619642     -1.52982812217298     -0.59008178402666
  N   -0.75611497070877      1.66720202517843     -0.29873795664768
  H   -0.33953534388116      2.30855434994016      0.35523451578126
  H   -1.74427035355732      1.81168191171291     -0.42626051149272
