12
Coordinates from ORCA-job run
  C   0.93301969949827      0.09643513790164      0.19365620895714
  C   -0.38105383672948      0.34665484342292     -0.09857915209995
  H   1.64138132500602      0.88218640612726      0.40825043739988
  N   1.47204423897265     -1.20575809980111      0.36327033105525
  O   0.77939291459469     -2.20301916560966      0.09270867888792
  O   2.63323577693179     -1.27893782866218      0.77141816714463
  N   -1.29977996674934     -0.57625622731167     -0.50048769831518
  H   -2.24354238987380     -0.39478463042187     -0.19699188286195
  H   -0.97939541493549     -1.53104599521631     -0.41429632862663
  N   -0.88103159566269      1.63561898401250     -0.01551446502459
  H   -0.19097227908739      2.34330227433894      0.18068805463996
  H   -1.48529847196523      1.88660430121954     -0.78412235115648
