12
Coordinates from ORCA-job run
  C   0.84773195035984      0.08641692302952      0.43786300962342
  C   -0.38721883324236      0.34004276013425     -0.09661605266996
  H   1.47792665262430      0.86443619839760      0.84129556245611
  N   1.47573494075927     -1.18621785752396      0.41064547639474
  O   0.83974801572328     -2.18280386875563      0.02349832991467
  O   2.64696326616507     -1.23748695693937      0.79265046972480
  N   -0.82974533993912      1.64429521876972     -0.24236534825234
  H   -1.79400297027718      1.77771220137468      0.02457062377513
  H   -0.21937556740438      2.34275402834086      0.15139269402962
  N   -1.28728753371558     -0.59694922837528     -0.50813950789181
  H   -0.90865551097773     -1.53346193458781     -0.54476883288662
  H   -1.86181907007541     -0.31873748386458     -1.28802642421775
