12
Coordinates from ORCA-job run
  C   0.88996732254016      0.10615782384769      0.33872840008313
  C   -0.37584218182535      0.34267839680011     -0.12694795219996
  H   1.52368994362012      0.89049659387457      0.72398610941423
  N   1.45084754601418     -1.18970293853487      0.48246660294037
  O   0.84949570404970     -2.17902386219433      0.02729877953100
  O   2.53913851094038     -1.26481699967753      1.05714827279902
  N   -1.18538941106361     -0.56812495046425     -0.73730083412078
  H   -2.17040361980499     -0.44150537582093     -0.56577303717831
  H   -0.84108674811352     -1.51688471433144     -0.68152668815710
  N   -0.93585276710158      1.60433349066147     -0.01528328201444
  H   -0.31229903939572      2.31239588950419      0.33864968720023
  H   -1.43126525985976      1.90299664633533     -0.84244605829738
