12
Coordinates from ORCA-job run
  C   0.47685540330882     -0.72913660323253      0.39855993453576
  C   -0.50675242596768      0.07543885260360     -0.11163397899718
  H   0.26472571159661     -1.66330491062898      0.89610943337536
  N   1.84994296672448     -0.37182289782729      0.43896073227938
  O   2.24104093039490      0.65324327807453     -0.14747628410069
  O   2.60290151990604     -1.12373789031321      1.06195165452403
  N   -1.84024859093744     -0.23548852217023      0.09634968007408
  H   -2.00013426866636     -1.11816225950846      0.55548670600103
  H   -2.41723429739267     -0.11552289914380     -0.72314551118015
  N   -0.31220860728591      1.19986592388145     -0.85680266463642
  H   0.64977880406994      1.50952012132579     -0.87885741278810
  H   -1.00766714575075      1.91810780693915     -0.72950228908711
