12
Coordinates from ORCA-job run
  C   0.49793117735509     -0.75612293569671      0.31387609953717
  C   -0.51339133139240      0.08902165577147     -0.05777754271146
  H   0.32482527234726     -1.78703220137373      0.58311095516904
  N   1.87452751111135     -0.41473678079761      0.25866638691188
  O   2.21302408412997      0.75713395551920      0.01465786199418
  O   2.68212459012792     -1.32152031801277      0.47289135502936
  N   -0.39056841593149      1.42576905139398     -0.29403215123216
  H   -1.00965380277959      1.78949859431621     -1.00127323985863
  H   0.56849613834931      1.74239146641081     -0.33570231705862
  N   -1.80423514952923     -0.38961770489010     -0.20449265420742
  H   -1.93062481977370     -1.35255435706221      0.06401557877728
  H   -2.51045525401450      0.21776957442146      0.18405966764939
