12
Coordinates from ORCA-job run
  C   0.93581744105151      0.05760532161506      0.25907817615821
  C   -0.38811859468791      0.35175796882344      0.02880747657781
  H   1.66062440599914      0.81376332340876      0.51836752134957
  N   1.47740263432945     -1.24406992582829      0.18820593085724
  O   2.68258998945881     -1.36524266284278      0.42429983194780
  O   0.74419555475819     -2.20742832885727     -0.11169087632717
  N   -1.35150754467265     -0.56747735080733     -0.21357061392192
  H   -2.22482132444678     -0.26528889627222     -0.60818915701563
  H   -1.01596450519486     -1.49617344027403     -0.42506831898245
  N   -0.81858722915730      1.65693100055897      0.17716584265410
  H   -1.61684680474073      1.91984084978481     -0.37944419096365
  H   -0.08478402269687      2.34578214069088      0.14103837766610
