12
Coordinates from ORCA-job run
  C   0.61706418360472     -0.53510434510063      0.50204342315064
  C   -0.52173980640620     -0.02113395042323     -0.05922015389777
  H   0.59235989571286     -1.31458145514814      1.24845833244436
  N   1.91454418572871     -0.00456182116377      0.28575314509482
  O   2.82536655567226     -0.45223731204230      0.98524586673525
  O   2.08818434988127      0.86665139577606     -0.58547466692371
  N   -1.76565344005483     -0.42644228930668      0.38997373235056
  H   -1.75314401312183     -1.16528113535382      1.07395543942065
  H   -2.42091840813189     -0.59365483701202     -0.35880723290372
  N   -0.56196432356176      0.86677576272539     -1.09081748884860
  H   -1.34486816753739      1.49946598661710     -1.08035856841483
  H   0.33276898821408      1.27910400043204     -1.31075182820765
