12
Coordinates from ORCA-job run
  C   0.82473878449908      0.02676311908979      0.48626487822302
  C   -0.39504574771388      0.34128755319591     -0.05052139656519
  H   1.32290542523868      0.65667070201472      1.20753645180465
  N   1.50843314617904     -1.19245007693843      0.23911421250729
  O   1.07405920129557     -1.98455900658204     -0.61599788155779
  O   2.52920605643889     -1.40156806081484      0.89836010905452
  N   -1.02202418822682     -0.32999317260716     -1.05765653133664
  H   -0.58538624067477     -1.21163148465032     -1.28960861971989
  H   -2.02831297251744     -0.33365161171267     -1.00139788922379
  N   -1.10058397222237      1.43841489408973      0.41511574065903
  H   -0.60507546180469      2.00340782912019      1.08651902665235
  H   -1.52291403049130      1.98930931579510     -0.31772810049755
