12
Coordinates from ORCA-job run
  C   0.74876295619689     -0.01710489329220      0.66499731029412
  C   -0.38836726526652      0.34845590274241      0.02069385095784
  H   1.20841595885398      0.58259344713699      1.43538779620165
  N   1.42261219277254     -1.26087145209394      0.40810987028716
  O   1.32406852672907     -1.78968004977444     -0.70746226947341
  O   2.05302167752411     -1.74401015856744      1.34981950408955
  N   -0.93984836408969      1.59676319142795      0.26467681435339
  H   -1.88353017109862      1.70747766528118     -0.06878746526792
  H   -0.34647839841624      2.39750844502278      0.13061906419905
  N   -1.14748406974662     -0.44906515012489     -0.82143396287158
  H   -1.31088842810114     -0.00886125411131     -1.71641460105945
  H   -0.74028461535775     -1.36220569364706     -0.96020591171040
