12
Coordinates from ORCA-job run
  C   0.47301234685059     -0.50480191137286      0.64514155395881
  C   -0.54906775905651      0.05850250439487     -0.05264395689656
  H   0.32505067474612     -1.16088548693509      1.49094873326469
  N   1.86166302994603     -0.27654374709870      0.36417663447951
  O   2.65073950187952     -0.60540037276226      1.25239086215173
  O   2.20568365679245      0.21259361910964     -0.71858146928980
  N   -0.44115744778505      1.01608692638248     -1.07611502246969
  H   -0.58145469705337      0.58047940345345     -1.98009159200733
  H   0.48119785289042      1.42863173079894     -1.06703018762916
  N   -1.85376981402267     -0.29867809672475      0.17534200539259
  H   -2.51755346748425      0.43930480533772      0.00177888508387
  H   -2.05334387770330     -0.89028937458343      0.96568355396135
