12
Coordinates from ORCA-job run
  C   0.82159623379397      0.01721739349218      0.49242334481808
  C   -0.38006573807068      0.35402124235562     -0.07116122177332
  H   1.42831543921722      0.72571546383216      1.03568639159221
  N   1.44734988186025     -1.24594543615278      0.32663415383933
  O   2.59393153855503     -1.36108276110244      0.76535359455329
  O   0.83319403203638     -2.17350614125056     -0.23011656456904
  N   -0.81120780334481      1.67006881286711     -0.06059991788501
  H   -0.22325991849421      2.30239383968170      0.45893409241467
  H   -1.78899476925126      1.77491702910065      0.16691654377027
  N   -1.25663499522120     -0.50865377485358     -0.65856091841517
  H   -1.78421806310212     -0.12027476868631     -1.42443548629849
  H   -0.87800583797856     -1.43487089928375     -0.80207401204682
