12
Coordinates from ORCA-job run
  C   0.51692132572289     -0.57371383351485      0.56686794534653
  C   -0.51598933429382      0.07201508742194     -0.05857242819606
  H   0.36063504623519     -1.38876001197415      1.25714671843843
  N   1.88730406896079     -0.32671975475873      0.29177574106288
  O   2.70605964594374     -1.08318564829299      0.81882201752122
  O   2.21045107845911      0.62423128029092     -0.44225345620263
  N   -0.40717070649466      1.18391007408636     -0.83925190953494
  H   0.54714348966912      1.42426198432774     -1.07023428518357
  H   -1.07458907461203      1.23965465865810     -1.59237157083322
  N   -1.81537364450345     -0.38375040656941      0.08926129758692
  H   -2.48987157746562      0.35309548259943      0.23393669013309
  H   -1.92452031762127     -1.14203891227434      0.74387323986136
