18
Coordinates from ORCA-job run
  C   0.67468838623401     -0.43187343877883      0.11709915643437
  C   -0.68481413277434      0.20380424618922      0.45921023378504
  Cl  0.81605091719749     -1.83503964024753      1.34608558366424
  H   -0.69208581120511      0.42162481198206      1.52681503339769
  N   0.71392474159723     -0.87871882485411     -1.21850987006003
  H   1.63043274933712     -1.22528696260590     -1.47015844224199
  H   0.01996706570500     -1.58489760359166     -1.42210438145982
  C   1.85071120054017      0.48299037488995      0.40488202409165
  H   1.79264072595954      0.89097204701983      1.41300118001266
  H   1.86259925212962      1.30352981074069     -0.31403600113496
  H   2.78082847419996     -0.08144402365027      0.31289809961579
  C   -1.90002503505672     -0.59966043633314      0.04492484262652
  H   -1.95850250966860     -0.68271960810047     -1.03944075089858
  H   -1.86330220636950     -1.59091409839894      0.49719884768520
  H   -2.80738561881128     -0.09913758873451      0.38811740833032
  N   -0.73916175220282      1.56236491074672     -0.19166732450856
  O   -0.35989071550607      2.51143052202786      0.49562076778591
  O   -1.13567573130571      1.63497550169904     -1.35093640712545
