18
Coordinates from ORCA-job run
  C   0.62045292751176     -0.53741139046796      0.20771433942066
  C   -0.70912580624269      0.20211995757562      0.45265593159187
  Cl  0.66405229940837     -1.85952748711200      1.44363685133178
  H   -0.76161224592168      0.46555591559703      1.50894476937795
  N   0.61542637303841     -1.16710010078851     -1.08694747519134
  H   0.45366909938024     -0.46114994871670     -1.79760921712087
  H   1.50949491782934     -1.61247661670721     -1.25826435313930
  C   1.81749642683711      0.36388333102300      0.49050386028864
  H   2.73556730666182     -0.22498848167481      0.44451440890596
  H   1.87585949179558      1.14882734729845     -0.26813099449803
  H   1.75256867464169      0.82652171172709      1.47762539540821
  C   -1.94981983744029     -0.53996288105102     -0.00196954844476
  H   -1.92534679095638     -0.71557324682336     -1.07499688543372
  H   -2.84078414268552      0.03827193660940      0.25344638509553
  H   -1.99827257253740     -1.50317717234773      0.50519910469206
  N   -0.64187310543657      1.52691520798797     -0.25253268847957
  O   -0.62870613470523      2.54087652610136      0.44089226653255
  O   -0.58804688117857      1.50839539176938     -1.48368215033762
