18
Coordinates from ORCA-job run
  C   0.78396626012674     -0.22304066106898      0.23606539919983
  C   -0.73916057724247      0.04012416184957      0.06283850423305
  Cl  1.49262794406487      1.21024792154736      1.07197959585223
  H   -1.17140053495293     -0.91307633731470     -0.25716532956924
  N   1.12258587683721     -1.38235117326874      1.01654616402138
  H   0.58327847585314     -1.41762969210843      1.87324187508921
  H   0.92716749016460     -2.22115672094053      0.48158164261633
  C   1.44683648483958     -0.35247410163097     -1.12581938602576
  H   0.96110040266328     -1.14346532455933     -1.70757531174630
  H   2.49157732978792     -0.62038662150164     -0.96711445802613
  H   1.40359903248383      0.57799810248670     -1.68836435310532
  C   -1.11783204257568      1.15676912959307     -0.88658439904970
  H   -2.19347646542348      1.33293572406679     -0.84876634807130
  H   -0.85671813559064      0.87679944929215     -1.90752360218582
  H   -0.61283716366417      2.08479282921448     -0.62323859973190
  N   -1.35861346962823      0.27827677885298      1.41237722440711
  O   -1.69524906641524      1.42027196691689      1.70716419853871
  O   -1.46545184132831     -0.70563543142668      2.14835718355363
