18
Coordinates from ORCA-job run
  C   0.75018112206018     -0.12117297541143      0.23516180728976
  C   -0.75541626935436      0.06600003298686     -0.02214852389361
  Cl  1.51671858194357      1.44270362489046      0.69585478597122
  H   -1.11683848877975     -0.88025072917022     -0.43484487910702
  N   0.91033401161480     -1.00704349665225      1.36169918167097
  H   1.88883021309752     -1.22717209038866      1.50158323380841
  H   0.38538966558039     -1.86408682218157      1.22667683494062
  C   1.43945456074530     -0.58931437350739     -1.04402018003074
  H   1.01019331045308     -1.54488900689351     -1.36034407462118
  H   2.50230491407363     -0.73704999224969     -0.84249006633434
  H   1.34994308698680      0.13253958621702     -1.85651950938207
  C   -1.15033487945904      1.22593400645843     -0.91169240843940
  H   -0.66709265041311      1.14354164253506     -1.88584457976307
  H   -2.23116184682554      1.21551321555589     -1.06708162332189
  H   -0.87317744374621      2.17186705238779     -0.45213406463774
  N   -1.47472160908592      0.17058051830164      1.29217596419363
  O   -1.97410286808748     -0.86603852208142      1.72742788636686
  O   -1.51250341080384      1.26933832920299      1.83454021528961
