18
Coordinates from ORCA-job run
  C   0.62141249242767     -0.47020958203790      0.43984688690853
  C   -0.81409404774203      0.09165690546178      0.42525740494776
  Cl  1.15243720172211     -0.63831156587986      2.15091627599988
  H   -1.38295991774869     -0.48965091004359      1.15638892249847
  N   0.50924387950453     -1.83019277224340     -0.09299188154170
  H   1.10448661658676     -2.45381900319727      0.43593458779244
  H   0.82668270363049     -1.84289653177604     -1.05592273544874
  C   1.64169798386421      0.37066108644236     -0.31110510312377
  H   1.33627051610385      0.46949930785725     -1.35731781815824
  H   2.60842686914931     -0.13530689945787     -0.28078296490358
  H   1.74974564162912      1.36122302932535      0.12414042981095
  C   -1.47718854414029      0.00083070522510     -0.94103060066879
  H   -2.52327521845109      0.28795369964661     -0.86199153567709
  H   -1.42032881599345     -1.02527196503855     -1.29762348971585
  H   -0.99959962760472      0.67078127429318     -1.65992099545893
  N   -0.93103971931189      1.52346137939167      0.91139454742197
  O   -2.01282998936292      2.06952851355267      0.70777007152409
  O   0.01091197573701      2.03906332847851      1.50603799779261
