18
Coordinates from ORCA-job run
  C   0.68128206964279     -0.42970768063278      0.08045964380355
  C   -0.62873110987999      0.25402668506766      0.51144666827339
  Cl  0.95105071647857     -1.71972438859837      1.40819598280500
  H   -0.51657001314037      0.56362329628107      1.55014152146191
  N   0.57033424008975     -0.99498421301810     -1.20542090025775
  H   1.45158344916317     -1.37734818487626     -1.52269080958156
  H   -0.14562812285121     -1.70589333116088     -1.26651721972021
  C   1.88632364312510      0.48963470825480      0.15301023145256
  H   1.82200353517543      1.24173693368457     -0.63469726270115
  H   2.79781915506388     -0.09443141220586      0.01078534731622
  H   1.94257400812911      0.98726378354527      1.12013030000894
  C   -1.88612058832620     -0.56491323264483      0.30591872328224
  H   -2.74804485906361     -0.02297518036035      0.69953516814808
  H   -1.80422973544847     -1.51232387803706      0.83910112926513
  H   -2.06374612855253     -0.74356294848840     -0.75362984791816
  N   -0.74838547622272      1.55110042708092     -0.24678794540639
  O   -0.29109457879330      2.55130932543020      0.30740352306177
  O   -1.27042020458939      1.52716929067840     -1.35738425329356
