18
Coordinates from ORCA-job run
  C   0.74622431820443     -0.46896531167564      0.14266075375109
  C   -0.58374643984439      0.22735405076029      0.54448235271001
  Cl  1.04653562090788     -1.65504709010699      1.46895765278380
  H   -0.49214717159361      0.59560555159236      1.56637802985230
  N   0.73483357937053     -1.21233772558853     -1.08933637718906
  H   0.05091585145374     -1.95863230086139     -1.05904348820065
  H   0.50012251399934     -0.58784665048499     -1.85357091665845
  C   1.89746041128189      0.52108314042185      0.12342549158797
  H   1.78561848629128      1.21039410944734     -0.71801716335064
  H   2.82844653189434     -0.02942020478083     -0.00505509313070
  H   1.93815692557908      1.09958282687234      1.04753919412855
  C   -1.83003372787672     -0.61440147938624      0.36365419514544
  H   -1.97892954498789     -0.86368723019332     -0.68637376804312
  H   -1.74553224241053     -1.53103637866715      0.94822597216225
  H   -2.70672375170827     -0.06519798693029      0.71316920037047
  N   -0.70957186259842      1.46701416088125     -0.28852653534783
  O   -0.88673977853757      1.31497694998283     -1.49880018513298
  O   -0.59588971942512      2.55056156871710      0.28023068456153
