18
Coordinates from ORCA-job run
  C   0.76095289305323     -0.09464702172662      0.21064497423008
  C   -0.75725756527164      0.04889712407929      0.00290863528413
  Cl  1.50802955931107      1.50282217789170      0.57552870726021
  H   -1.11131471157893     -0.92047278227834     -0.35933528330014
  N   0.98307613528599     -0.92770748257945      1.36715440386006
  H   0.48179968863721     -1.80523375630507      1.28183539605142
  H   1.97198612002024     -1.11338549668727      1.48232267034654
  C   1.41243276843604     -0.60345061227993     -1.07288953938946
  H   2.48556341613990     -0.71785208754263     -0.90756512498556
  H   0.99465751117295     -1.58162128045072     -1.33000194403175
  H   1.27369214362675      0.07899768405532     -1.91213396753046
  C   -1.21185151295782      1.16429155490955     -0.91462086323299
  H   -0.75965997980484      1.05783999056924     -1.90127399666074
  H   -0.94387176266916      2.13325373900576     -0.49976381184479
  H   -2.29670747114912      1.12146857490634     -1.03185570910588
  N   -1.42961921293421      0.18953812288785      1.33866797257575
  O   -1.89013004498427     -0.83925796425557      1.83134906077344
  O   -1.46977797433336      1.30751951580056      1.84002841970014
