18
Coordinates from ORCA-job run
  C   0.78150611523284     -0.18411388495036      0.27508503278555
  C   -0.74152441881501      0.01544858041346      0.03179079614984
  Cl  1.40509564327795      1.30510210630860      1.07953217812000
  H   -1.12569319808384     -0.96434962498851     -0.26859696859842
  N   1.12926646056177     -1.29906861249939      1.11427209250980
  H   0.56005576283507     -1.31902295256068      1.95191152485028
  H   0.98063992981477     -2.16466044793263      0.60761302314412
  C   1.50265615457557     -0.34235024825028     -1.05385583427468
  H   1.06944382425681     -1.17336531597770     -1.62105637234089
  H   1.44865908866253      0.56302715353139     -1.65510985364049
  H   2.54908189333541     -0.56451332830902     -0.84389589942172
  C   -1.12110075347546      1.08140817028227     -0.97391293652328
  H   -0.81027667594236      0.77328087442484     -1.97257705936695
  H   -2.20297023106904      1.21913394911808     -0.98403229077415
  H   -0.66010895310603      2.03658294598428     -0.72757864580706
  N   -1.42402503352364      0.27972251596208      1.34565322623353
  O   -1.52877943604578     -0.68059000169853      2.11250619445611
  O   -1.80992617249155      1.41932812114211      1.58425179249841
