18
Coordinates from ORCA-job run
  C   0.67747595772198     -0.42951247553957      0.32042630115523
  C   -0.79150759852133      0.01925947709984      0.40917936831742
  Cl  1.37293907791481     -0.26691544759785      2.02163096261340
  H   -1.31102939700771     -0.67580952886558      1.07225093762624
  N   0.65818614017962     -1.78921914602238     -0.10956478223020
  H   1.59945545372350     -2.12546033851706     -0.27303345232917
  H   0.22078672930390     -2.38767165542603      0.58162978887135
  C   1.56354366168663      0.38805601514547     -0.59854568527222
  H   1.56965475870836      1.43615227247728     -0.31167391708897
  H   1.21221455418469      0.29256977383158     -1.62732903008415
  H   2.58472992759152      0.00463061822172     -0.54170149350141
  C   -1.47620674999363      0.11240291394262     -0.94299715878276
  H   -1.04596010865666      0.91725948572168     -1.53802438906173
  H   -1.36236168823537     -0.83299468520088     -1.47163722096718
  H   -2.53989342353560      0.31829095667650     -0.80388236875896
  N   -0.93222698228723      1.34067647052915      1.10297345309088
  O   -1.53678247714842      1.35010976865853      2.17192482849671
  O   -0.46301783562906      2.32717552486499      0.53837385790552
