18
Coordinates from ORCA-job run
  C   0.68110723910524     -0.42817790565208      0.31430274463038
  C   -0.78746756946337      0.01871803048743      0.41622980628581
  Cl  1.39135377082762     -0.26321499244888      2.00904564717250
  H   -1.29986771190577     -0.67731700745214      1.08379937189180
  N   0.65988824977563     -1.78837236726911     -0.11415574491335
  H   0.22819764795025     -2.38654932106874      0.58085678475712
  H   1.60008631400249     -2.12411605742895     -0.28455862730233
  C   1.55789013805318      0.38985580072129     -0.61315026957349
  H   1.19765196423321      0.29249837074449     -1.63867350486456
  H   1.56468429894778      1.43817176019036     -0.32719765167242
  H   2.58007508598065      0.00792532807178     -0.56507630651071
  C   -1.48459812948716      0.11026421336911     -0.92977373817564
  H   -1.37391737932483     -0.83515214240302     -1.45903505324133
  H   -1.06153633427157      0.91576710550947     -1.52903347783709
  H   -2.54745244166523      0.31377796043436     -0.78096015686008
  N   -0.92411057506919      1.33985742317853      1.11084296037490
  O   -1.52192623509176      1.34913667452492      2.18368029543041
  O   -0.46005833259719      2.32692712649120      0.54285692040806
