18
Coordinates from ORCA-job run
  C   0.75268154355817     -0.40330643913532      0.39910506313297
  C   -0.73749780881269      0.00721145740344      0.45430526812275
  Cl  1.37645749594747     -0.23942465960569      2.08586919188873
  H   -1.23053505519985     -0.65917432563397      1.16530349356839
  N   0.90305486013497     -1.78936518401081      0.03392487234139
  H   0.27763372418312     -2.39244243054897      0.55463093378717
  H   0.76811758861682     -1.92122973821740     -0.96009615245481
  C   1.62365994422407      0.43684719903945     -0.51490905155988
  H   2.64183709748128      0.05212475861485     -0.45572853460856
  H   1.27864356355546      0.35696758430546     -1.54952324413350
  H   1.61030341370311      1.48450929898183     -0.22613729514327
  C   -1.43573834823107     -0.01238833509626     -0.89463577065813
  H   -2.49494144799296      0.21929114034841     -0.76319715131631
  H   -1.00647869736697      0.72765176863716     -1.56887697451628
  H   -1.36537785230278     -1.00252045158359     -1.34624834344462
  N   -0.93104035348557      1.37045264007736      1.05053775075153
  O   -1.49583297385093      1.43264534465034      2.13957680160508
  O   -0.53394669416166      2.33315037177371      0.39509914263736
