15

C	0.0	0.0	0.0
C	-0.485907	-0.147357	-1.443592
F	1.381273	0.0	0.0
H	-1.578783	-0.043707	-1.39909
H	-0.295848	0.989497	0.372748
N	-0.485469	-1.091148	0.789422
H	-1.505104	-1.064876	0.694962
H	-0.282839	-0.893514	1.763614
C	-0.100153	-1.497494	-2.052632
H	-0.548066	-2.29745	-1.4653
H	-0.45936	-1.563652	-3.082099
H	0.98491	-1.62376	-2.045485
C	0.05397	0.949897	-2.247472
N	0.500309	1.811829	-2.909073
Cl	-3.566596	0.0	0.0
