15

C	0.0	0.0	0.0
C	-0.389974	0.079123	-1.501361
F	1.391398	0.0	0.0
H	0.576353	0.040758	-2.016646
H	-0.287247	0.935379	0.496919
N	-0.477941	-1.183554	0.631485
H	-0.315896	-1.106976	1.629608
H	-1.492624	-1.191801	0.497423
C	-1.080322	1.392638	-1.876734
H	-1.23638	1.443957	-2.957141
H	-0.441812	2.230527	-1.580653
H	-2.042356	1.452927	-1.369715
C	-1.116406	-1.088378	-2.014581
N	-1.60044	-1.991258	-2.588271
Cl	-3.562096	0.0	0.0
