15

C	0.0	0.0	0.0
C	-0.479467	-0.110046	-1.448442
F	1.396245	0.0	0.0
H	-1.570325	0.013198	-1.412015
H	-0.285094	0.982734	0.397281
N	-0.481457	-1.108336	0.763453
H	-0.279871	-0.932557	1.741988
H	-1.501404	-1.086374	0.668445
C	-0.118066	-1.456254	-2.079969
H	-0.450825	-1.487392	-3.119832
H	0.961277	-1.615519	-2.046434
H	-0.605725	-2.256245	-1.526035
C	0.088674	0.989377	-2.229474
N	0.551218	1.851686	-2.879092
Cl	-3.56289	0.0	0.0
