15

C	-0.249052	0.05502	-1.504972
C	0.0	0.0	0.0
Br	-0.168338	-1.921593	-2.279917
H	1.09524	0.0	0.0
H	-0.309935	0.986057	0.368753
C	-1.610408	0.420227	-1.903155
N	-2.707696	0.756251	-2.161535
N	0.71894	0.874894	-2.069682
H	1.64574	0.685586	-1.652496
H	0.728359	0.882766	-3.080094
C	-0.647571	-1.107848	0.801571
H	-0.483742	-0.91615	1.865978
H	-1.727542	-1.17187	0.629635
H	-0.201297	-2.072648	0.562943
H	2.931512	0.0	0.0
