15

C	-0.548566	-0.02519	-1.409462
C	0.0	0.0	0.0
Br	0.249191	1.563085	-2.412106
H	1.091808	0.0	0.0
H	-0.32957	0.942639	0.457015
C	-0.114573	-1.197454	-2.175286
N	0.185631	-2.171287	-2.76037
N	-1.977017	0.032958	-1.444398
H	-2.284133	0.835122	-0.906649
H	-2.314619	0.128112	-2.395549
C	-0.469417	-1.202822	0.813611
H	-0.007827	-1.145614	1.803529
H	-0.1186	-2.130171	0.35325
H	-1.555519	-1.257121	0.922758
H	2.917443	0.0	0.0
