15

C	-0.189969	-0.12808	-1.501532
C	0.0	0.0	0.0
Br	-2.06934	-0.719971	-2.011092
H	1.097497	0.0	0.0
H	-0.397653	0.945434	0.378944
C	-0.056434	1.192033	-2.134151
N	0.053055	2.25804	-2.617445
N	0.743262	-1.037794	-2.132001
H	1.665426	-0.765077	-1.74018
H	0.558123	-1.968988	-1.768671
C	-0.469333	-1.185278	0.82311
H	-0.092709	-2.124248	0.407738
H	-0.057831	-1.09909	1.833226
H	-1.559179	-1.249781	0.88623
H	2.850504	0.0	0.0
