15

C	-0.24678	0.266644	-1.483247
C	0.0	0.0	0.0
Br	-0.158532	-1.580942	-2.530341
H	1.093027	0.0	0.0
H	-0.310377	0.924415	0.503771
C	-1.610546	0.677816	-1.825292
N	-2.71314	1.039359	-2.019572
N	0.721012	1.159882	-1.924342
H	1.644885	0.911257	-1.534671
H	0.737403	1.301466	-2.925444
C	-0.648175	-1.209511	0.635351
H	-1.727417	-1.248098	0.454462
H	-0.486955	-1.171069	1.716328
H	-0.201808	-2.130707	0.264282
H	2.932582	0.0	0.0
