15

C	-0.484231	0.013242	-1.473849
C	0.0	0.0	0.0
Br	0.329066	-1.409335	-2.503652
H	1.093576	0.0	0.0
C	-1.934292	-0.091523	-1.555758
N	-3.106502	-0.184943	-1.531215
N	-0.08081	1.334966	-2.146801
O	0.973987	1.827811	-1.780755
O	-0.832445	1.751868	-3.023733
C	-0.480283	-1.245948	0.607783
N	-0.898949	-2.223077	1.107764
N	-0.453867	1.13367	0.764977
H	-1.438655	1.335139	0.652055
H	0.120016	1.940579	0.566663
Br	3.404043	0.0	0.0
