16

C	0.0	0.0	0.0
C	-0.56145	0.141582	-1.396084
F	1.369039	0.0	0.0
H	-0.129123	1.036126	-1.856433
H	-1.640933	0.292603	-1.286327
N	-0.31286	1.277176	0.798485
O	-0.955899	2.172851	0.264414
O	0.16053	1.325567	1.930464
C	-0.53664	-1.17367	0.768099
H	-0.091862	-1.181918	1.763573
H	-0.27139	-2.079752	0.225272
H	-1.62588	-1.08958	0.836497
N	-0.281833	-1.082473	-2.152341
H	0.440788	-0.919232	-2.839668
H	-1.125956	-1.375235	-2.622953
Cl	-3.901901	0.0	0.0
