16

C	0.0	0.0	0.0
C	-0.546394	0.220956	-1.401483
F	1.36908	0.0	0.0
H	-0.280431	-0.686396	-1.956483
H	-1.637556	0.243421	-1.307292
N	-0.311456	1.202499	0.901579
O	0.239216	2.26152	0.586971
O	-1.020531	1.04379	1.887493
C	-0.52954	-1.252778	0.635287
H	-0.226732	-2.102525	0.019489
H	-1.61936	-1.189927	0.673226
H	-0.12531	-1.37	1.641422
N	-0.062888	1.379456	-2.13653
H	-0.519856	2.206552	-1.775334
H	0.925526	1.496923	-1.949534
Cl	-3.855332	0.0	0.0
