16

C	0.0	0.0	0.0
C	-0.518068	-0.2274	-1.412725
F	1.369192	0.0	0.0
H	-1.573124	0.054078	-1.420407
H	0.034464	0.440973	-2.075215
N	-0.317706	1.446693	0.404646
O	-0.522465	1.689305	1.589109
O	-0.244872	2.290182	-0.485895
C	-0.518419	-0.945356	1.040818
H	-1.609864	-0.879929	1.057076
H	-0.207705	-1.957432	0.776658
H	-0.109438	-0.687635	2.016356
N	-0.396446	-1.600838	-1.885382
H	0.508309	-1.983465	-1.637716
H	-1.114465	-2.164839	-1.448077
Cl	-3.774958	0.0	0.0
