16

C	0.0	0.0	0.0
C	-0.378826	0.126938	-1.485358
F	1.377946	0.0	0.0
H	-0.092785	-0.840867	-1.917605
H	0.309574	0.870516	-1.892835
N	-0.319934	1.294148	0.751783
O	-0.325383	1.243237	1.978528
O	-0.447917	2.319692	0.088856
C	-0.580691	-1.167911	0.732448
H	-0.204315	-1.208382	1.75311
H	-1.671161	-1.073797	0.745295
H	-0.304258	-2.081799	0.2018
N	-1.719189	0.462687	-1.882696
H	-1.921333	1.418191	-1.623033
H	-2.441123	-0.089284	-1.424055
Cl	-4.311751	0.0	0.0
