16

C	0.0	0.0	0.0
C	-0.386605	0.268108	-1.45762
F	1.377682	0.0	0.0
H	0.209169	1.129883	-1.768215
H	0.004012	-0.599434	-2.00309
N	-0.321743	1.211993	0.880386
O	-0.216068	1.053406	2.09365
O	-0.569928	2.279245	0.324803
C	-0.589213	-1.229219	0.617564
H	-0.339248	-2.090395	-0.005816
H	-0.200636	-1.376589	1.623965
H	-1.677684	-1.114902	0.656739
N	-1.760102	0.486699	-1.814307
H	-2.125407	1.298135	-1.335721
H	-2.377078	-0.263021	-1.523199
Cl	-4.358928	0.0	0.0
