15

C	-0.474698	0.133279	-1.441449
C	0.0	0.0	0.0
Cl	-0.346738	-1.470412	-2.280377
H	1.095015	0.0	0.0
H	-1.545701	0.370419	-1.481332
H	-0.353034	-0.945633	0.419682
C	0.33637	1.151005	-2.223615
H	0.187416	2.145169	-1.795186
H	1.396101	0.903174	-2.149884
H	0.03398	1.18196	-3.272734
C	-0.493746	1.161773	0.861268
H	-1.588158	1.231265	0.870236
H	-0.091387	2.116653	0.515689
H	-0.152257	1.028557	1.890615
Cl	3.620152	0.0	0.0
