15

C	-0.522675	-0.007845	-1.427799
C	0.0	0.0	0.0
Cl	-0.065866	1.506199	-2.300786
H	1.093903	0.0	0.0
H	-0.010025	-0.801487	-1.975803
H	-0.298859	-0.966294	0.431192
C	-2.028153	-0.177883	-1.545469
H	-2.551563	0.673205	-1.106201
H	-2.337491	-1.087042	-1.019922
H	-2.332478	-0.257954	-2.591399
C	-0.521114	1.13066	0.879119
H	-0.25499	2.101265	0.457246
H	-0.054105	1.06503	1.864263
H	-1.606781	1.098159	1.016899
Cl	3.643431	0.0	0.0
