15

C	0.0	0.0	0.0
C	-0.593956	-0.207841	-1.385647
Cl	1.781043	0.0	0.0
H	-1.680861	-0.323143	-1.204002
H	-0.332808	0.982718	0.337075
C	-0.409102	-0.983227	1.008658
N	-0.63216	-1.763855	1.856589
N	-0.137954	-1.49147	-2.00411
O	0.229449	-2.395858	-1.25922
O	-0.229468	-1.588418	-3.228212
C	-0.352572	0.961888	-2.315524
H	-0.752147	1.863344	-1.846315
H	0.710491	1.099485	-2.52617
H	-0.882618	0.802095	-3.251748
Cl	-3.466146	0.0	0.0
