15

C	0.0	0.0	0.0
C	-0.404592	-0.273632	-1.476251
Cl	1.783883	0.0	0.0
H	0.511058	-0.175258	-2.066708
H	-0.356873	0.978874	0.308378
C	-0.432977	-1.035243	0.932653
N	-0.599339	-1.906535	1.703352
N	-1.199529	0.87831	-2.047811
O	-0.969669	1.994582	-1.594951
O	-1.867663	0.646004	-3.046678
C	-1.001017	-1.631322	-1.773719
H	-0.287403	-2.400253	-1.464276
H	-1.938999	-1.748106	-1.235289
H	-1.174655	-1.7233	-2.845629
Cl	-3.162406	0.0	0.0
