15

C	0.0	0.0	0.0
C	-0.410925	-0.275927	-1.469244
Cl	1.783956	0.0	0.0
H	0.498813	-0.170488	-2.068152
H	-0.357169	0.97868	0.309046
C	-0.419184	-1.030372	0.945433
N	-0.594761	-1.849422	1.7688
N	-1.21891	0.87005	-2.031745
O	-1.906178	0.625935	-3.015489
O	-0.983639	1.990882	-1.591012
C	-1.001516	-1.637938	-1.755882
H	-1.94624	-1.74829	-1.22587
H	-0.286968	-2.398101	-1.425621
H	-1.159969	-1.749938	-2.827805
Cl	-3.200189	0.0	0.0
