16

C	-0.441697	-0.049696	-1.455588
C	0.0	0.0	0.0
F	0.067256	1.039502	-2.141659
H	1.102068	0.0	0.0
C	0.029267	-1.271939	-2.138446
N	0.367621	-2.245722	-2.700502
C	-1.91699	0.002808	-1.580801
N	-3.088614	0.006833	-1.667008
C	-0.521319	-1.191595	0.77967
H	-1.614587	-1.181171	0.886084
H	-0.222186	-2.135035	0.316907
H	-0.069478	-1.166782	1.77442
N	-0.487472	1.280856	0.530801
H	0.335593	1.855513	0.672506
H	-0.916007	1.134873	1.435563
F	2.603226	0.0	0.0
