16

C	-0.447849	-0.00201	-1.443885
C	0.0	0.0	0.0
F	-1.853366	0.005466	-1.56283
H	1.095795	0.0	0.0
C	0.041877	1.199057	-2.142971
N	0.393908	2.153644	-2.727621
C	0.020262	-1.201266	-2.165073
N	0.360982	-2.162512	-2.747427
C	-0.498353	-1.226411	0.746499
H	-0.066125	-1.205153	1.748749
H	-0.163514	-2.151312	0.270237
H	-1.59168	-1.250016	0.830838
N	-0.423885	1.271717	0.583976
H	0.365589	1.630331	1.108878
H	-1.207138	1.150187	1.213957
F	2.586781	0.0	0.0
