16

C	-0.446631	-0.030639	-1.457108
C	0.0	0.0	0.0
F	0.077423	1.050803	-2.140418
H	1.102084	0.0	0.0
C	-0.003314	-1.260223	-2.146117
N	0.298737	-2.254768	-2.692762
C	-1.922001	0.050351	-1.568775
N	-3.095705	0.067825	-1.624037
C	-0.503409	-1.21058	0.763482
H	-0.187784	-2.14522	0.293483
H	-1.597747	-1.221327	0.86819
H	-0.055654	-1.185384	1.760146
N	-0.469791	1.27055	0.554328
H	0.351004	1.768288	0.876658
H	-1.079252	1.115264	1.348152
F	2.598816	0.0	0.0
