16

C	-0.453137	-0.053832	-1.45481
C	0.0	0.0	0.0
F	0.081603	1.004518	-2.164527
H	1.102074	0.0	0.0
C	-0.035062	-1.304672	-2.122762
N	0.255454	-2.307833	-2.660285
C	-1.928391	0.048431	-1.557729
N	-3.100507	0.109323	-1.614871
C	-0.502011	-1.198127	0.785353
H	-0.179404	-2.140585	0.335845
H	-1.597006	-1.212392	0.885614
H	-0.059699	-1.149758	1.783664
N	-0.462338	1.280824	0.533404
H	0.35638	1.766926	0.878789
H	-1.108058	1.145817	1.301165
F	2.600371	0.0	0.0
