16

C	-0.484796	0.243276	-1.408153
C	0.0	0.0	0.0
F	-1.892625	0.201467	-1.495382
H	1.106928	0.0	0.0
C	-0.079645	1.576542	-1.890124
N	0.197032	2.626908	-2.335615
C	0.012534	-0.78209	-2.346767
N	0.34915	-1.620568	-3.096802
C	-0.465067	-1.348986	0.526871
H	0.021776	-1.513609	1.490681
H	-0.160699	-2.166472	-0.131486
H	-1.552793	-1.395418	0.664195
N	-0.42446	1.13736	0.812971
H	-1.213575	0.901936	1.40296
H	0.360926	1.391594	1.39945
F	2.585931	0.0	0.0
