16

C	-0.490353	0.054187	-1.426992
C	0.0	0.0	0.0
F	-1.894483	-0.06488	-1.508763
H	1.10923	0.0	0.0
C	-0.149943	1.340291	-2.06346
N	0.073056	2.343417	-2.630377
C	0.061762	-1.045691	-2.242782
N	0.43938	-1.939133	-2.904434
C	-0.460089	-1.271558	0.695452
H	-1.546197	-1.297221	0.849793
H	-0.166034	-2.165203	0.138259
H	0.03915	-1.317668	1.666287
N	-0.428752	1.229676	0.663452
H	0.370322	1.587226	1.172849
H	-1.187703	1.062017	1.312243
F	2.585765	0.0	0.0
