16

C	-0.363752	0.184743	-1.459439
C	0.0	0.0	0.0
F	-1.744368	0.457486	-1.629014
H	1.106056	0.0	0.0
C	0.350078	1.345479	-2.024268
N	0.844603	2.301609	-2.492412
C	-0.087877	-1.006906	-2.280489
N	0.069689	-1.963434	-2.943484
C	-0.593164	-1.269053	0.581192
H	-0.279464	-1.324731	1.624311
H	-1.689808	-1.270877	0.551033
H	-0.220755	-2.158696	0.066533
N	-0.389189	1.178554	0.772495
H	-1.20791	1.640371	0.394934
H	0.392988	1.822349	0.767962
F	2.586777	0.0	0.0
