16

C	-0.327006	-0.131408	-1.476063
C	0.0	0.0	0.0
F	-1.717289	-0.223399	-1.716943
H	1.10535	0.0	0.0
C	0.129424	1.065602	-2.20633
N	0.433988	2.045575	-2.776304
C	0.289728	-1.329012	-2.072343
N	0.743959	-2.295889	-2.559314
C	-0.528778	-1.183325	0.790088
H	-0.166432	-1.074135	1.813065
H	-0.14767	-2.129671	0.396496
H	-1.624563	-1.219501	0.810936
N	-0.473903	1.260797	0.552763
H	-1.361695	1.546812	0.15474
H	0.218668	1.97558	0.366013
F	2.586938	0.0	0.0
