14

C	-0.529713	0.005052	-1.426135
C	0.0	0.0	0.0
Cl	-0.216578	-1.515248	-2.264393
H	1.091815	0.0	0.0
H	-0.320548	0.936753	0.470333
N	-2.106147	0.132978	-1.286644
O	-2.831193	-0.843062	-1.412186
O	-2.478014	1.271489	-1.005372
N	0.001128	1.078554	-2.149396
H	0.038073	1.930219	-1.610901
H	-0.439108	1.215153	-3.047776
C	-0.531007	-1.105575	0.785251
N	-0.974114	-1.974802	1.438123
Cl	3.298469	0.0	0.0
