14

C	-0.298089	-0.077396	-1.485993
C	0.0	0.0	0.0
Cl	-2.044044	-0.331353	-1.862875
H	1.096654	0.0	0.0
H	-0.382404	0.921567	0.433305
N	-0.045605	1.353261	-2.09534
O	-0.344909	2.332038	-1.423758
O	0.399721	1.373596	-3.236694
N	0.485967	-1.058829	-2.090046
H	1.443455	-0.997562	-1.740606
H	0.465338	-0.987044	-3.098222
C	-0.508443	-1.162014	0.709035
N	-0.923516	-2.07785	1.314629
Cl	3.266748	0.0	0.0
