16

C	0.0	0.0	0.0
C	-0.524783	-0.07324	-1.446756
Cl	1.798159	0.0	0.0
H	-1.592955	-0.315754	-1.35945
N	-0.488868	1.200865	0.605106
H	-1.499362	1.221105	0.422349
H	-0.36921	1.12102	1.609716
C	-0.341881	-1.210304	0.781109
N	-0.524155	-2.079606	1.551815
N	0.126571	-1.280777	-2.143519
O	0.801196	-1.060007	-3.149373
O	-0.091733	-2.38992	-1.666467
N	-0.332546	1.136661	-2.138667
H	0.64637	1.317678	-2.309296
H	-0.834688	1.126821	-3.013643
Cl	-3.504433	0.0	0.0
