16

C	0.0	0.0	0.0
C	-0.52145	0.110439	-1.44496
Cl	1.797639	0.0	0.0
H	-1.592278	-0.129096	-1.392136
N	-0.489353	1.113534	0.751712
H	-0.36731	0.911323	1.739035
H	-1.500158	1.154516	0.573676
C	-0.340496	-1.302293	0.616521
N	-0.532573	-2.271072	1.254393
N	0.119341	-1.011169	-2.280403
O	-0.164307	-2.166475	-1.978942
O	0.854258	-0.679463	-3.20995
N	-0.310131	1.392799	-1.983951
H	0.673715	1.582443	-2.119875
H	-0.802353	1.494369	-2.859857
Cl	-3.500733	0.0	0.0
