16

C	0.0	0.0	0.0
C	-0.402512	0.023091	-1.495532
Cl	1.85129	0.0	0.0
H	0.095451	-0.80748	-1.99689
N	-0.609401	0.999838	0.743
H	-0.452556	1.933239	0.396424
H	-0.569058	0.896641	1.743603
C	-0.354929	-1.32439	0.524458
N	-0.569203	-2.402121	0.938879
N	0.264583	1.246624	-2.155413
O	0.823164	1.054925	-3.231194
O	0.131144	2.343098	-1.613767
N	-1.778187	0.0673	-1.731706
H	-2.405501	0.315777	-0.957315
H	-2.140077	-0.756906	-2.183368
Cl	-4.400489	0.0	0.0
