16

C	0.0	0.0	0.0
C	-0.467864	-0.021089	-1.474798
Cl	1.825793	0.0	0.0
H	-1.551024	-0.191429	-1.414754
N	-0.491226	1.137958	0.702239
H	-1.496974	0.969478	0.828623
H	-0.397834	1.929133	0.071494
C	-0.362173	-1.221026	0.734398
N	-0.542182	-2.178155	1.390313
N	0.123243	-1.214596	-2.211675
O	0.919104	-0.993597	-3.126377
O	-0.235149	-2.326989	-1.839313
N	-0.166278	1.215665	-2.105401
H	0.777679	1.203333	-2.470871
H	-0.813361	1.387454	-2.861882
Cl	-3.465643	0.0	0.0
