15

C	-0.404148	-0.070972	-1.475293
C	0.0	0.0	0.0
Br	-2.380098	-0.321482	-1.607786
H	1.096158	0.0	0.0
H	-0.368051	0.936789	0.434209
C	-0.143789	1.201436	-2.143635
N	0.054884	2.226366	-2.683778
C	0.289401	-1.224735	-2.177997
H	-0.000136	-1.286239	-3.228182
H	0.027896	-2.145517	-1.658257
H	1.368291	-1.062103	-2.088294
N	-0.427081	-1.201814	0.705169
H	0.305467	-1.468266	1.350011
H	-1.277296	-1.03623	1.22566
Cl	3.427322	0.0	0.0
