15

C	-0.580281	0.012199	-1.416564
C	0.0	0.0	0.0
Br	0.047112	1.626226	-2.366382
H	1.095713	0.0	0.0
H	-0.342311	-0.939088	0.453168
C	-0.109958	-1.140989	-2.18051
N	0.161978	-2.108858	-2.789347
C	-2.105681	0.033146	-1.416337
H	-2.496707	0.076619	-2.433952
H	-2.44075	0.894054	-0.840879
H	-2.468658	-0.880083	-0.933518
N	-0.55081	1.121796	0.775369
H	-0.42045	0.896757	1.755283
H	0.051701	1.920113	0.600703
Cl	3.482492	0.0	0.0
