15

C	-0.435975	0.013763	-1.473764
C	0.0	0.0	0.0
Br	-0.032709	-1.716376	-2.305651
H	1.09308	0.0	0.0
H	-0.313087	0.974753	0.402049
C	-1.882717	0.196674	-1.579071
N	-3.041124	0.391788	-1.611079
C	0.32667	1.09921	-2.223526
H	0.069854	1.105449	-3.283754
H	0.08523	2.075674	-1.790931
H	1.395131	0.915456	-2.092449
N	-0.553263	-1.111835	0.752342
H	-1.244657	-0.797012	1.418452
H	0.192981	-1.575261	1.252228
Cl	3.478789	0.0	0.0
