15

C	-0.351357	-0.032918	-1.498611
C	0.0	0.0	0.0
Br	-2.300735	-0.416629	-1.717456
H	1.096327	0.0	0.0
H	-0.335477	-0.950699	0.426976
C	-0.157357	1.281658	-2.104302
N	-0.00026	2.343378	-2.584011
C	0.452274	-1.104823	-2.217148
H	1.513379	-0.885092	-2.057111
H	0.221352	-1.134377	-3.283315
H	0.231175	-2.077814	-1.773705
N	-0.511934	1.106839	0.773368
H	-1.491496	1.270319	0.572199
H	0.011968	1.94476	0.556262
Cl	3.456703	0.0	0.0
