19

C	0.0	0.0	0.0
C	-0.224714	-0.10821	-1.540312
Cl	1.861452	0.0	0.0
H	0.349962	-0.973195	-1.873947
N	-0.519685	1.154601	0.562641
H	-0.818725	1.103137	1.518621
H	-0.175085	2.035355	0.230561
C	-0.619968	-1.208317	0.659337
H	-0.305876	-2.135644	0.176305
H	-0.328993	-1.248463	1.713883
H	-1.711024	-1.038985	0.562743
N	0.44631	1.015394	-2.276255
O	0.287321	2.171684	-1.88577
O	1.072836	0.716386	-3.292491
C	-1.673074	-0.170806	-2.01088
H	-1.761499	0.319424	-2.98537
H	-2.394357	0.219043	-1.247721
H	-1.949364	-1.220195	-2.142279
F	-3.403081	0.0	0.0
