19

C	0.0	0.0	0.0
C	-0.186746	-0.002259	-1.57292
Cl	1.850098	0.0	0.0
H	0.439957	-0.806424	-1.95916
N	-0.59822	1.037408	0.747904
H	-1.621029	0.804599	0.651608
H	-0.437256	1.923496	0.284042
C	-0.475094	-1.336719	0.532986
H	-0.152117	-1.430625	1.571639
H	-1.57032	-1.288196	0.478075
H	-0.071121	-2.169348	-0.048024
N	0.43787	1.216944	-2.186066
O	1.258802	1.045852	-3.088333
O	0.056871	2.324288	-1.80278
C	-1.575123	-0.108418	-2.178105
H	-2.271855	0.600328	-1.74209
H	-1.470333	-0.003004	-3.265131
H	-1.997325	-1.084599	-1.950095
F	-2.99734	0.0	0.0
