19

C	0.0	0.0	0.0
C	-0.518687	-0.069126	-1.463413
Cl	1.79553	0.0	0.0
H	-1.610251	-0.121882	-1.291942
N	-0.55033	1.145166	0.672533
H	-0.341261	1.987222	0.14737
H	-1.57614	0.943638	0.589175
C	-0.442588	-1.23067	0.781109
H	-0.005816	-2.147148	0.38433
H	-0.124491	-1.095281	1.816547
H	-1.533961	-1.243806	0.709501
N	-0.126224	-1.347793	-2.129676
O	0.912989	-1.374142	-2.796325
O	-0.868011	-2.321161	-1.979986
C	-0.101116	1.086932	-2.349937
H	-0.524243	0.960704	-3.349782
H	-0.492747	2.021603	-1.944672
H	0.983977	1.151377	-2.439514
F	-2.903831	0.0	0.0
