19

C	0.0	0.0	0.0
C	-0.262679	0.044638	-1.558901
Cl	1.827121	0.0	0.0
H	0.586086	-0.44868	-2.027626
N	-0.58587	1.12877	0.643862
H	-1.608821	0.963368	0.460853
H	-0.444621	1.012427	1.645198
C	-0.460432	-1.339691	0.55353
H	-0.064802	-2.186363	-0.015133
H	-1.55607	-1.289562	0.510707
H	-0.122714	-1.431151	1.591142
N	-0.124684	1.464887	-2.033346
O	-1.11075	2.192445	-1.978316
O	0.974429	1.806644	-2.480988
C	-1.543125	-0.534005	-2.130881
H	-1.520722	-1.617771	-1.995973
H	-1.559521	-0.328198	-3.205943
H	-2.415318	-0.153974	-1.590915
F	-3.026383	0.0	0.0
