19

C	0.0	0.0	0.0
C	-0.524313	-0.132989	-1.457377
Cl	1.795562	0.0	0.0
H	-1.596563	-0.331528	-1.275608
N	-0.539703	1.176588	0.623652
H	-1.566967	0.986965	0.546599
H	-0.308509	1.997448	0.07387
C	-0.432697	-1.191464	0.846345
H	-1.524785	-1.192698	0.806115
H	-0.083151	-1.013469	1.864831
H	-0.021091	-2.127579	0.473381
N	0.062972	-1.313879	-2.153112
O	-0.403073	-2.42599	-1.890418
O	0.984456	-1.130216	-2.954354
C	-0.327552	1.104076	-2.309073
H	-0.575024	0.887228	-3.350024
H	0.701979	1.46685	-2.274202
H	-1.012443	1.877029	-1.959663
F	-2.891377	0.0	0.0
