19

C	0.0	0.0	0.0
C	-0.222757	-0.112096	-1.540804
Cl	1.862586	0.0	0.0
H	0.354022	-0.976505	-1.872701
N	-0.520279	1.15508	0.559819
H	-0.175378	2.036532	0.229367
H	-0.827666	1.103886	1.513209
C	-0.61869	-1.207692	0.661335
H	-1.709899	-1.040196	0.563838
H	-0.302856	-2.135589	0.180668
H	-0.329352	-1.244579	1.716097
N	0.444494	1.012164	-2.2787
O	1.072048	0.714165	-3.294687
O	0.281771	2.168422	-1.889373
C	-1.67121	-0.180641	-2.011314
H	-2.393665	0.213855	-1.252117
H	-1.761354	0.298311	-2.990598
H	-1.94641	-1.231016	-2.132698
F	-3.401206	0.0	0.0
