19

C	0.0	0.0	0.0
C	-0.270537	-0.001511	-1.55931
Cl	1.816044	0.0	0.0
H	0.433126	0.724085	-1.973834
N	-0.524187	1.103362	0.720351
H	-0.356165	1.952365	0.193749
H	-1.555329	0.883835	0.656859
C	-0.41738	-1.29909	0.678361
H	-1.507136	-1.34488	0.582598
H	-0.126212	-1.222506	1.727393
H	0.081032	-2.162884	0.232736
N	-1.580922	0.598379	-2.027534
O	-2.356985	-0.097933	-2.671288
O	-1.678263	1.819373	-1.90039
C	-0.089308	-1.349662	-2.224789
H	-0.153411	-1.244187	-3.309807
H	0.890129	-1.758354	-1.968391
H	-0.877542	-2.031598	-1.907169
F	-2.764283	0.0	0.0
