16

C	-0.493409	-0.114384	-1.433482
C	0.0	0.0	0.0
F	-1.80395	-0.529014	-1.452495
H	1.08757	0.0	0.0
H	-0.413754	0.876516	0.492478
N	-0.531306	1.328439	-1.952205
O	0.446586	1.727813	-2.575883
O	-1.530556	1.983566	-1.666938
C	0.344439	-0.962013	-2.346337
H	1.385397	-0.646788	-2.279078
H	-0.017236	-0.875573	-3.372582
H	0.268957	-1.992933	-2.007873
N	-0.451593	-1.165408	0.801169
O	-0.267603	-2.289202	0.338213
O	-0.955167	-0.928501	1.898006
Cl	3.282243	0.0	0.0
