16

C	-0.557113	-0.01848	-1.40898
C	0.0	0.0	0.0
F	0.112723	0.81975	-2.231756
H	1.089414	0.0	0.0
H	-0.362714	-0.858715	0.558242
N	-0.319748	-1.43865	-1.944964
O	0.253594	-1.554616	-3.017195
O	-0.797533	-2.349839	-1.272362
C	-2.044228	0.233468	-1.540154
H	-2.249828	1.26613	-1.262516
H	-2.340385	0.083338	-2.580485
H	-2.604511	-0.447321	-0.899844
N	-0.449071	1.199161	0.747897
O	-0.715439	1.043859	1.939116
O	-0.489206	2.275649	0.152143
Cl	3.267861	0.0	0.0
