16

C	-0.466635	-0.168079	-1.429838
C	0.0	0.0	0.0
F	-0.251699	-1.433836	-1.871061
H	1.088176	0.0	0.0
H	-0.381965	0.940543	0.391522
N	-1.983987	0.042998	-1.472801
O	-2.365991	1.184735	-1.232207
O	-2.700128	-0.919243	-1.718605
C	0.209575	0.817475	-2.34719
H	-0.030206	1.838479	-2.056342
H	1.286933	0.657947	-2.260639
H	-0.116999	0.641102	-3.374602
N	-0.555073	-1.076395	0.856536
O	-0.008222	-2.173849	0.830416
O	-1.55827	-0.792859	1.52072
Cl	3.315672	0.0	0.0
