16

C	-0.434743	-0.034572	-1.444825
C	0.0	0.0	0.0
F	-0.270717	-1.286549	-1.954854
H	1.089323	0.0	0.0
H	-0.365561	0.908132	0.479344
N	-1.914935	0.307035	-1.596992
O	-2.283531	1.323215	-1.013813
O	-2.599329	-0.391177	-2.329911
C	0.3528	0.954289	-2.271436
H	1.413915	0.723516	-2.152947
H	0.055253	0.860309	-3.317998
H	0.168031	1.971289	-1.924443
N	-0.568139	-1.138671	0.765335
O	0.109586	-1.623733	1.662772
O	-1.717244	-1.481964	0.473586
Cl	3.349394	0.0	0.0
