16

C	-0.495953	-0.178891	-1.418972
C	0.0	0.0	0.0
F	-1.834378	-0.498094	-1.409862
H	1.089293	0.0	0.0
H	-0.365202	-0.850852	0.574413
N	-0.387536	1.120453	-2.21325
O	0.730231	1.407114	-2.618913
O	-1.413989	1.767864	-2.373764
C	0.294374	-1.253618	-2.121643
H	0.133298	-2.199109	-1.597708
H	-0.049233	-1.355496	-3.153524
H	1.356437	-1.007464	-2.08816
N	-0.548157	1.207486	0.65967
O	-1.288625	1.037209	1.630511
O	-0.223753	2.299117	0.199728
Cl	3.306671	0.0	0.0
