14
Coordinates from ORCA-job run
  C   1.19650557330136     -0.24130911033506      0.21365780126248
  C   -0.14174307202908      0.45209665788231     -0.10319602058148
  Br  1.12082580446564     -1.36734062784094      1.80424491665866
  H   0.04207871770096      0.96128666224156     -1.06503582769035
  H   1.95324059034261      0.51485592262110      0.43820942584904
  C   1.64847117011557     -1.04187215894327     -0.91760856075317
  N   1.97749098621934     -1.66025524129467     -1.86080712649797
  N   -0.45036745250175      1.37511634948389      0.97650476487969
  H   -1.43031356446931      1.62616246994813      0.95246049412785
  H   0.08963465000588      2.22775259982495      0.89139459896625
  C   -1.28228710599640     -0.53210671425651     -0.29611389694682
  H   -2.16367160387170     -0.00464948941315     -0.67031976282018
  H   -1.53671291571080     -1.00336863226425      0.65405443415286
  H   -1.02315177757232     -1.30736868765410     -1.01944524060687
