14
Coordinates from ORCA-job run
  C   1.20950338522508     -0.20703101416539      0.16949108725478
  C   -0.15847256679556      0.44703677156782     -0.10000595266733
  Br  1.22460454306901     -1.32777075697186      1.76552074620176
  H   -0.02571403833503      0.95470949989052     -1.07101763034303
  H   1.95230000448684      0.57103141447053      0.36363745707102
  C   1.64196742536134     -0.99937613258867     -0.97502141603101
  N   1.95353432068337     -1.61269067852242     -1.92756567683829
  N   -0.45143722303593      1.36818296860037      0.98567006791132
  H   0.06339189418478      2.23366189675173      0.87675107317761
  H   -1.43773105492624      1.59454894935028      0.99533414525160
  C   -1.27790073131613     -0.56938641680782     -0.24359551415451
  H   -2.18650590056571     -0.06921049419735     -0.58909076095909
  H   -1.48435495673432     -1.03912024654508      0.71890136699843
  H   -1.02418510130150     -1.34358576083264     -0.97000899287326
