14
Coordinates from ORCA-job run
  C   0.86600407307293     -0.72077052326232      0.05443112039767
  C   -0.27062548731892      0.25699060235426     -0.33565468244644
  Br  0.92426571551413     -2.30198329273474     -1.09738114808982
  H   -0.13598393977048      0.49686084422441     -1.39571026489583
  H   0.69950132637728     -1.09612227714374      1.06839909762401
  C   2.16213232301981     -0.05779589040953     -0.00768096622058
  N   3.17634380599611      0.53298054908890     -0.06477097456330
  N   -0.19788260166707      1.49962781389225      0.41145979334681
  H   -0.31380291318639      1.33701286774184      1.40512233491560
  H   0.67972029231887      1.98212206625138      0.26059433554960
  C   -1.63750608898367     -0.37306074598029     -0.12153135326999
  H   -1.77935493606777     -0.62371929798840      0.93525611595148
  H   -1.76761810895008     -1.28088081068662     -0.70959808664025
  H   -2.40519346035473      0.34773809465261     -0.40393532165897
