14
Coordinates from ORCA-job run
  C   0.96676454437662     -0.68300207608580      0.10065277267089
  C   -0.28108942716862      0.13294976962999     -0.27849408421139
  Br  0.93877202203158     -2.47562265072532     -0.67711377037833
  H   -0.35791490977489      0.12506364958460     -1.37611760725816
  H   0.99600190514380     -0.80867639577154      1.18494067841673
  C   2.17902301678903     -0.00750172787801     -0.34430105746463
  N   3.12170336905294      0.58086524461688     -0.72586146857643
  N   -0.06573207301209      1.45945072037201      0.28995883017044
  H   -0.94365634172556      1.95970777757229      0.35210097313357
  H   0.56424606648815      2.00463398106028     -0.28675759533092
  C   -1.53967624955387     -0.46769797962033      0.32470429349059
  H   -1.69386391224221     -1.49618260059000      0.00061664858312
  H   -1.47395379417443     -0.43928663031981      1.41566761911855
  H   -2.41262421623046      0.11529891815477      0.01900376763597
