14
Coordinates from ORCA-job run
  C   1.19955999850396     -0.08547087815627     -0.29546357252162
  C   -0.17958685892765      0.55235275811367     -0.10592302616112
  Br  2.61011979754172      1.06107879598403      0.43929350258981
  H   -0.13026666799659      1.53166182435465     -0.60874827551845
  H   1.43271362219590     -0.16225724623940     -1.35994363660075
  C   1.28447413244592     -1.40477724588079      0.31618162043403
  N   1.33649719996303     -2.48883819960155      0.76507883362872
  N   -0.47517893673833      0.63213606434111      1.31372373271604
  H   -1.44131413676065      0.90178033730450      1.45133254146329
  H   0.10978352867481      1.32603851426290      1.76339899195043
  C   -1.23249002743333     -0.30830662394782     -0.79277771159916
  H   -1.30930279028442     -1.27789396363618     -0.29675056125944
  H   -0.99762605904113     -0.46115712760088     -1.84880431782372
  H   -2.20738280214324      0.18365299070203     -0.73759812129803
