14
Coordinates from ORCA-job run
  C   0.93238962133434     -0.60753279725098      0.17847015725586
  C   -0.31633494607958      0.12656187968305     -0.37006212155954
  Br  1.06413819752662     -2.45002103926955     -0.46814858120483
  H   -0.27850895085974      0.05106588434698     -1.46197943116786
  H   0.87154028391742     -0.67709368587908      1.26855150494820
  C   2.15267470009398      0.09817864032376     -0.19067561399568
  N   3.10482123335440      0.71194211208804     -0.50310383189425
  N   -0.31283637717259      1.53665545078294     -0.02419195069119
  H   -0.34907743134521      1.66729441618166      0.98014334608257
  H   0.50414376288178      2.01390063879442     -0.38544324696091
  C   -1.59867122030650     -0.50845438836133      0.14358561737270
  H   -1.68149537633141     -1.55582758080854     -0.14463036994430
  H   -2.44962506910467      0.04086527008320     -0.25996573364493
  H   -1.64215842790882     -0.44753480071461      1.23645025540415
