14
Coordinates from ORCA-job run
  C   1.19243404670093     -0.10157067007555     -0.31647489069039
  C   -0.17919538106740      0.55007496391502     -0.11900477787155
  Br  2.62367653977391      1.05780785638764      0.35550503658108
  H   -0.13400898715606      1.51378020653902     -0.65153209557469
  H   1.40355442694198     -0.21138109395306     -1.38262950604829
  C   1.28244764202128     -1.40254978403124      0.33260060675994
  N   1.34092673339283     -2.47386094350096      0.81030671982144
  N   -0.44643683596463      0.67339338264800      1.30307683760695
  H   0.15380225517387      1.37391862699354      1.72129859871406
  H   -1.40703564887402      0.95688500034558      1.45131244341485
  C   -1.25001137115401     -0.32425900995098     -0.75925528404538
  H   -1.03683629255244     -0.51023327249021     -1.81457135436119
  H   -1.32231167714675     -1.27790935349359     -0.23260816908790
  H   -2.22100545008950      0.17490409066681     -0.70002416521893
