14
Coordinates from ORCA-job run
  C   1.17537057514009     -0.05829535948569     -0.27765641088516
  C   -0.22284326817476      0.60107468662520     -0.17996028915592
  Br  2.56558825031340      1.14545545493374      0.39070798894271
  H   -0.14636114178250      1.54641547450011     -0.72805157052137
  H   1.44059760045172     -0.25093644783922     -1.31994814231829
  C   1.21811510876428     -1.30144761288801      0.47872184769500
  N   1.18791586743115     -2.30373523800551      1.09147171067260
  N   -0.66781576582300      0.90364053096223      1.16182075113067
  H   -0.01687978016760      1.51915131310204      1.63362305887170
  H   -0.76080096563435      0.05482032046761      1.70876289119710
  C   -1.24473083592986     -0.29788939263880     -0.86587178876115
  H   -1.35353371113767     -1.24506369208240     -0.32976267677617
  H   -0.96125824973128     -0.51813181684114     -1.89788941814537
  H   -2.21236368371958      0.20494177918984     -0.86596795194634
