15
Coordinates from ORCA-job run
  C   -0.59596084524316      0.37561911954023     -0.57798349692559
  C   0.77904046735012      0.20732335792056      0.11946583202843
  Br  -0.50341536867580     -0.23092550608620     -2.40819210447072
  H   1.49744705165632      0.71487662299923     -0.53439349840578
  N   -1.61710929091574     -0.46956675384541      0.21460176847426
  O   -2.07029150283626      0.09477016678050      1.20272746744247
  O   -1.81137881587241     -1.61757619807451     -0.14620674066319
  C   -1.04038551832526      1.75993950192164     -0.56731692020621
  N   -1.35938559558272      2.89198265666599     -0.58408839423555
  C   1.19497466395059     -1.25384223883888      0.31369880109833
  H   1.14337479586314     -1.80030223588286     -0.62756466988517
  H   2.22251980235367     -1.27940331985991      0.67944477033997
  H   0.56041624733660     -1.74948140976354      1.04908178579733
  C   0.77513318749892      0.91110817020868      1.40503327957897
  N   0.82302072144199      1.44647806631448      2.44969212003245
