15
Coordinates from ORCA-job run
  C   -0.79487275650801      0.31457962421494     -0.10252428387524
  C   0.57161093558513     -0.33197883907720      0.21572952843153
  Br  -0.62272374741345      2.09677975334396     -0.79882818008719
  H   0.33379555597572     -1.34812103499916      0.55269455755411
  N   -1.48446362377464     -0.61793434210878     -1.14271073358621
  O   -1.75884452240318     -1.71861102552101     -0.68189061086232
  O   -1.64677283860720     -0.21895138959651     -2.27976198734698
  C   -1.63753904654651      0.32963013302475      1.08357364753537
  N   -2.28525245299597      0.34429863719950      2.06529808877721
  C   1.34235952619581      0.40128010477824      1.31441161807413
  H   1.61185366070297      1.40866748745873      0.99867255764097
  H   2.25753250545038     -0.14995146663863      1.53605662372150
  H   0.74291948534038      0.45580292403850      2.22506648704768
  C   1.35763371791818     -0.43848571927201     -1.01401379133485
  N   2.01276360108039     -0.52900484684530     -1.98477352168971
