15
Coordinates from ORCA-job run
  C   -0.65361868106018      0.33292374394509     -0.55054524659376
  C   0.77567296494374      0.20052250022564      0.03640967903491
  Br  -0.71715746783276     -0.38952548760388     -2.33932825939428
  H   1.43781489233008      0.64765562581153     -0.71371267045751
  N   -1.60162986558602     -0.45629461471980      0.38002214206793
  O   -1.84315698581075     -1.61794328785346      0.10160580446650
  O   -1.94738210893279      0.16583290784372      1.37683724069630
  C   -1.09751038162646      1.71664525548680     -0.58891000717471
  N   -1.41646519384745      2.84730081980951     -0.64775591697406
  C   1.19497902376314     -1.24857730166020      0.30213685210286
  H   1.05326648280646     -1.86290011695057     -0.58653289156019
  H   2.25106005612761     -1.26345261890226      0.57533763468882
  H   0.62508208789101     -1.67750255886215      1.12706382764823
  C   0.89283437743673      0.99676269900061      1.26095774963527
  N   1.04621079939764      1.60655243442944      2.25341406181366
