15
Coordinates from ORCA-job run
  C   -0.68878856819136      0.42229612417611     -0.42396406170926
  C   0.70748592649112     -0.20081757018116     -0.24741086659203
  Br  -0.95236444384859      1.06398524323357     -2.23028206658149
  H   0.79245096260507     -0.97908344103948     -1.01278084058391
  N   -1.71033625177272     -0.70551837710358     -0.18197256402759
  O   -2.57696450373352     -0.50248401935370      0.65633276333449
  O   -1.53652951036550     -1.71680781018306     -0.84450710623420
  C   -0.92842683763195      1.50162441248390      0.51856891475649
  N   -1.05686810701591      2.38298240089701      1.28689377295756
  C   0.87593875366466     -0.81049928425608      1.14939442975166
  H   1.88090094935586     -1.22519363329409      1.23996078212505
  H   0.16147401704406     -1.62006236925248      1.30687866249486
  H   0.74437962262375     -0.05466140905096      1.92581261754597
  C   1.72460053650858      0.81956509497241     -0.49551068005677
  N   2.56404745426645      1.62467463795158     -0.65841375718081
