15
Coordinates from ORCA-job run
  C   -0.55358458119136      0.24517682047127     -0.66400067261663
  C   0.77572603645477      0.22093935331729      0.13455340892945
  Br  -0.33487860129384     -0.63930661785008     -2.36571302381115
  H   1.52803214265107      0.63519541715344     -0.54632528107743
  N   -1.61206537935437     -0.48890193052971      0.18834838659927
  O   -1.76793616924178     -1.68343664804941      0.00206995000216
  O   -2.13473055911920      0.21281034162874      1.04553423674828
  C   -1.01645992882424      1.60308438432000     -0.89999280508934
  N   -1.34781169891939      2.71086016298584     -1.11607442949993
  C   1.19705120756652     -1.18141041590891      0.58372385562420
  H   2.19894670413897     -1.12527505473389      1.01190124835437
  H   1.21360869507344     -1.87053750859134     -0.26012837522428
  H   0.52251060747136     -1.56954232153621      1.34761123221706
  C   0.67993763373976      1.11831678275330      1.28923976370758
  N   0.65265389084829      1.81302723456968      2.23625250513639
