15
Coordinates from ORCA-job run
  C   -0.70111295323035      0.42117241240037     -0.40796125658487
  C   0.70056867744158     -0.19748594179065     -0.26152814598118
  Br  -1.00405436315878      1.06658424576288     -2.20693484225110
  H   0.77035967605561     -0.97574473312379     -1.02841348014628
  N   -1.71356326674746     -0.71138803888493     -0.14874625972717
  O   -2.56397396138629     -0.51420542063987      0.70732210981148
  O   -1.54954280534020     -1.72000717654070     -0.81781999430717
  C   -0.92641926853952      1.49679479711598      0.54222799002053
  N   -1.04596288056713      2.37324161398320      1.31762028603230
  C   0.90040226552936     -0.80719497053585      1.13106614678138
  H   0.19329132855540     -1.62064697227367      1.30176481742677
  H   1.90909428446792     -1.21678683147608      1.20122510581219
  H   0.78030456265304     -0.05289519083590      1.91089598157961
  C   1.70918033685460      0.82504499807439     -0.53315043424482
  N   2.54242836741223      1.63151720876461     -0.71956802422166
