15
Coordinates from ORCA-job run
  C   -0.68394794919112      0.44245500187661     -0.41378334182877
  C   0.70585639214359     -0.19959272229405     -0.25245242424941
  Br  -0.94031976085755      1.12968545875359     -2.20434889487732
  H   0.78217559817250     -0.96018847024813     -1.03624007122802
  N   -1.71767894775553     -0.67912514492204     -0.19826442578391
  O   -1.55630708216670     -1.67545779190720     -0.88593763073802
  O   -2.58144340071382     -0.48679092449914      0.64544876605071
  C   -0.91130168913842      1.50209214825642      0.55386094489645
  N   -1.03084779919270      2.36668952461727      1.34236663286338
  C   0.86676009921440     -0.84496548504687      1.12917736561411
  H   1.86965331000442     -1.26603453307300      1.21280076114960
  H   0.73552798721659     -0.10852286411752      1.92416698332289
  H   0.14821083854217     -1.65534823908691      1.26317190514616
  C   1.73296084284528      0.81641213889454     -0.47540420675195
  N   2.58070156087691      1.61669190279643     -0.61756236358592
