15
Coordinates from ORCA-job run
  C   -0.77169542873639      0.35394902376396     -0.12037877026169
  C   0.54764256065958     -0.36599475240584      0.23632092641507
  Br  -0.47863534646794      2.06895463739367     -0.93529479817625
  H   0.24115666671863     -1.33784211837025      0.64159619190844
  N   -1.53425486611497     -0.59387544491539     -1.09328274490816
  O   -1.88318188668453     -1.63887548876187     -0.55895143652191
  O   -1.67757440168513     -0.26039071705242     -2.25380620058737
  C   -1.60227491742917      0.50914026479609      1.06410283488283
  N   -2.24242738145172      0.63518834445381      2.04267325802146
  C   1.37716388070648      0.38205238506687      1.28097723688517
  H   0.79033423658152      0.53894380115258      2.18814229595374
  H   1.71419812015810      1.34480097600346      0.89770713557560
  H   2.25313269171281     -0.21673086308270      1.53573911773740
  C   1.31443620458898     -0.60952169894807     -0.98610048040558
  N   1.95297986744377     -0.80979834909390     -1.95144456651876
