15
Coordinates from ORCA-job run
  C   -0.76297268506132      0.36278406919580     -0.13831352900530
  C   0.53698433064786     -0.37492646498286      0.25231104605748
  Br  -0.42426811583136      2.04142760125123     -1.00933614955531
  H   0.20493997866593     -1.32464505966800      0.68868490008211
  N   -1.54023127433260     -0.60029186572631     -1.08347166955757
  O   -1.91946743825289     -1.61647390107562     -0.51534344080991
  O   -1.66407697051155     -0.30626491268727     -2.25682326438326
  C   -1.59644214711780      0.57831712494868      1.03460650790207
  N   -2.23525434076890      0.75868024965273      2.00558396284601
  C   1.37772469389819      0.38932159946528      1.27624101538511
  H   1.74409946077565      1.32747652026870      0.86047029631197
  H   2.23487675941836     -0.22285077444668      1.56102574016561
  H   0.78831281274958      0.59625437281628      2.17149707961450
  C   1.30630120030289     -0.67901633385253     -0.95475047885817
  N   1.94847373541796     -0.92779222515942     -1.90638201619534
