15
Coordinates from ORCA-job run
  C   -0.67977679311062      0.44372133172531     -0.41809559485066
  C   0.70602234827664     -0.20400072874867     -0.24806160243949
  Br  -0.92496636017227      1.12630561068362     -2.21241690022054
  H   0.78269857983607     -0.96799452919639     -1.02849280526741
  N   -1.71987884909091     -0.67188020321559     -0.20434288240829
  O   -1.55770809889891     -1.67278547878418     -0.88555867476068
  O   -2.58939310328497     -0.47131135093706      0.63150357107661
  C   -0.90649013352888      1.50768145342835      0.54491708864226
  N   -1.02175810973452      2.37523346812949      1.33078679864521
  C   0.85775233994324     -0.84460428886471      1.13683120025086
  H   1.85748991598535     -1.27205305219093      1.22588589448054
  H   0.72884552537145     -0.10382989705482      1.92818304473773
  H   0.13308084363053     -1.64929011647723      1.27168919828449
  C   1.73971967217491      0.80540045319359     -0.47072301631673
  N   2.59336222260287      1.59940732830923     -0.61310531985392
