15
Coordinates from ORCA-job run
  C   -0.72206851963659      0.46613309275834     -0.08285441146831
  C   0.50699906057971     -0.42964489492103      0.18757506475075
  Br  -0.23534144653096      2.26727364606430     -0.54063429560316
  H   0.09575289004946     -1.42732722748227      0.38263109912023
  N   -1.50085178927480     -0.20691925722180     -1.25296955454408
  O   -1.54326820975714      0.34945619490850     -2.33324883066123
  O   -1.96849552208302     -1.29579456571845     -0.94503167037664
  C   -1.60827010242739      0.47540914689121      1.07091048720989
  N   -2.29173323421384      0.47642775401120      2.02809555996262
  C   1.32870967512871      0.02661614093694      1.39445700895033
  H   1.76869372850309      1.00807226212084      1.22010278758517
  H   0.70089369066182      0.06483107085300      2.28664292648537
  H   2.13351318062912     -0.68928223589627      1.56865677094831
  C   1.32700151207520     -0.50756165286900     -1.02184765233129
  N   2.00946508629663     -0.57568947443552     -1.97548529002796
