15
Coordinates from ORCA-job run
  C   -0.62595045639210      0.24680380567818     -0.55894568128557
  C   0.78694891012605      0.16880959141517      0.06230647942016
  Br  -0.64480099189309     -0.65018140576994     -2.27515330159680
  H   1.44927731773988      0.54500231507439     -0.72668476871820
  N   -1.68980308033602     -0.40453385919238      0.36942274610620
  O   -2.70296424701735     -0.83487403109140     -0.15127609683650
  O   -1.42179943713570     -0.35988685370316      1.56248799790152
  C   -1.05849100880090      1.62386263347903     -0.74958704192576
  N   -1.39370686322548      2.74254046430655     -0.89384967594970
  C   1.23057447127669     -1.24624513841443      0.44609763218277
  H   1.13160004156644     -1.92307632774892     -0.40280181321834
  H   0.65133296470672     -1.62288555678209      1.28748583711480
  H   2.28119219696889     -1.21607878399821      0.73918023188363
  C   0.91663507203941      1.09311595907556      1.19197775634846
  N   1.09095511037656      1.83662718767165      2.08433969857334
