15
Coordinates from ORCA-job run
  C   -0.67707312593057      0.50533135190555     -0.13529740473010
  C   0.46061030146195     -0.46942337196727      0.24213848934018
  Br  -0.01994272634794      2.15653383170392     -0.86563687202615
  H   -0.04631210634704     -1.37610615183649      0.59361077124268
  N   -1.56167055483308     -0.24285136095665     -1.17594210798879
  O   -2.13134054157678     -1.21631575294537     -0.69943480429736
  O   -1.58164916899868      0.14893176645644     -2.32683704132681
  C   -1.51599374489590      0.78048147286990      1.02119984330663
  N   -2.16245648201911      0.99963718018181      1.97910447329560
  C   1.36966650851463      0.06744040836576      1.34863189125146
  H   1.90868616654379      0.95429990843507      1.01692508849887
  H   0.78244339996193      0.31198935406393      2.23567750288671
  H   2.09638560571271     -0.70095145235116      1.61677165018929
  C   1.22199851006170     -0.81570473838416     -0.95864733695744
  N   1.85564795869239     -1.10229244554129     -1.90526414268476
