15
Coordinates from ORCA-job run
  C   -0.72610261063711      0.19752313649433     -0.46157551200546
  C   0.75290547618267      0.02573699116316     -0.03493729003730
  Br  -1.27470835053554     -1.16163241674442     -1.73349583523847
  H   1.32526215865889      0.31950096994241     -0.92365880522688
  N   -1.68476191989082      0.08987487097130      0.73832949580334
  O   -1.41152684136680     -0.76497939848827      1.56703989683207
  O   -2.64886992744184      0.84055380033778      0.73394618657143
  C   -0.91282554345290      1.50583266007963     -1.07394927609389
  N   -0.98198049851366      2.55932918427373     -1.59250272032849
  C   1.22975069946151     -1.36297158816997      0.40243702413600
  H   0.75021262549563     -1.67944408057624      1.32398396757861
  H   1.03525567352369     -2.09588001650166     -0.37980918155702
  H   2.30854753220758     -1.31052548393042      0.56190055645527
  C   1.01639851332441      1.02589119739292      1.00497197427536
  N   1.22144301298428      1.81219017375571      1.85331951883545
