15
Coordinates from ORCA-job run
  C   -0.68403038286498      0.50455761338720     -0.11762667437065
  C   0.47102806873049     -0.46412250302607      0.22012180786030
  Br  -0.05637024908965      2.21874796367342     -0.71702758816474
  H   -0.01808812676729     -1.40677395320752      0.49353917622060
  N   -1.52450419207473     -0.19247013958798     -1.22856497902443
  O   -2.07891823463811     -1.21006990613540     -0.83338246773606
  O   -1.52904974899447      0.27729162374196     -2.35001300966088
  C   -1.55606381633954      0.67735090943843      1.03417416575277
  N   -2.22775500649579      0.81083501868030      1.99045988117970
  C   1.33712282451462      0.01698643241913      1.38526430197041
  H   0.72194262091923      0.18018658038091      2.27211739911672
  H   2.08013201579350     -0.74787252096997      1.61648823809283
  H   1.85691811712750      0.94045811424350      1.13173024724793
  C   1.27142850914820     -0.70309757244062     -0.98133629061060
  N   1.93620760103102     -0.90300766059729     -1.92894420787389
