15
Coordinates from ORCA-job run
  C   -0.69491867445094      0.44261441488162     -0.39955488190168
  C   0.70054562178996     -0.19286254041515     -0.26456027842152
  Br  -0.98291199137017      1.14191058805910     -2.18109218772765
  H   0.76838546972297     -0.94806197346604     -1.05426915048496
  N   -1.71921517699670     -0.68613362194873     -0.17699376883909
  O   -2.57257653141945     -0.50414094814893      0.67959769479711
  O   -1.56085657626277     -1.67806002929780     -0.87210298129537
  C   -0.91319268066559      1.49399283314982      0.57909250664939
  N   -1.02459181814039      2.35217708393251      1.37578845672791
  C   0.88683620459550     -0.84627636230894      1.11002410147893
  H   1.89224395247205     -1.26472742810880      1.17420877294188
  H   0.17302945740720     -1.65953900484235      1.25097098299113
  H   0.76677280035858     -0.11542957121969      1.91188032890951
  C   1.71913341630055      0.82940922707592     -0.49728376374439
  N   2.56031652665920      1.63512733265745     -0.64770583208119
