15
Coordinates from ORCA-job run
  C   -0.68593551942301      0.44288829627872     -0.41150679590143
  C   0.70787214571574     -0.19085315500968     -0.25253928461711
  Br  -0.94337915327300      1.14420753160644     -2.19646912008556
  H   0.79183338000930     -0.94373921673493     -1.04298898231516
  N   -1.71222958297730     -0.68793809064869     -0.20850323283429
  O   -2.58061626519091     -0.50861404771312      0.63342438212028
  O   -1.54050071084307     -1.67824959404644     -0.90261935222406
  C   -0.92282659045553      1.49204596491554      0.56521991446371
  N   -1.04827753344998      2.34755423354786      1.36266361115547
  C   0.87009369455510     -0.84748615853826      1.12358231885968
  H   0.73089573127240     -0.11937162387181      1.92470924578367
  H   1.87583883209482     -1.26157236286195      1.20674528524387
  H   0.15760545361191     -1.66446427385506      1.24821374705131
  C   1.72877997729285      0.83391017494909     -0.46411393701424
  N   2.57084614106067      1.64168232198230     -0.59781779968613
