15
Coordinates from ORCA-job run
  C   -0.68348298716320      0.45047280789190     -0.40736804348851
  C   0.70501936244898     -0.19600094667938     -0.25508443936844
  Br  -0.94054277394565      1.15997008686016     -2.18955164854769
  H   0.77879690237587     -0.94759215213930     -1.04779682395052
  N   -1.71902691363628     -0.67191134546266     -0.20520556825249
  O   -2.58241719443802     -0.48843867295519      0.64093325291944
  O   -1.55910109967703     -1.66043825809795     -0.90469879079454
  C   -0.90898718973325      1.49865547389390      0.57298784040050
  N   -1.02579065778252      2.35395136202616      1.37201120945363
  C   0.86607977541698     -0.85756712970896      1.11886719897709
  H   0.74202175217583     -0.12882867679976      1.92202432386984
  H   1.86647686055202     -1.28593390397640      1.19506434348689
  H   0.14261424709598     -1.66441579942963      1.24653613507363
  C   1.73473040253111      0.81946575884123     -0.46804796839689
  N   2.58460951377916      1.61861139573588     -0.60367102138196
