15
Coordinates from ORCA-job run
  C   -0.74408214123779      0.42720209393856     -0.08885299655011
  C   0.52001899344976     -0.41261496301642      0.19969357572799
  Br  -0.32640509505040      2.18809384944034     -0.73519930258344
  H   0.14529831366471     -1.39764693434058      0.50253425483287
  N   -1.56065619978357     -0.36850707963855     -1.14983129477662
  O   -1.99406754990491     -1.42824987632029     -0.71589479627337
  O   -1.65912743207602      0.07709670420362     -2.27696296303120
  C   -1.57212231449392      0.52768399606124      1.10346250652622
  N   -2.20669815261380      0.61147155456832      2.09018496666550
  C   1.38477992800362      0.16908429975632      1.31905435227355
  H   0.79941185097653      0.27242617002927      2.23452691380825
  H   1.78855975393772      1.14099304560708      1.03705579186246
  H   2.21669685742058     -0.50895747390183      1.51586895523346
  C   1.28433566807277     -0.58076149553326     -1.03660133106326
  N   1.92405751963473     -0.71931389085382     -2.01203863265230
