15
Coordinates from ORCA-job run
  C   -0.61636935189092      0.33623921282301     -0.58016979941042
  C   0.77915889379649      0.20256072718188      0.08325772008523
  Br  -0.58212346224396     -0.37622282949795     -2.37395341523064
  H   1.47862070870291      0.66613849704875     -0.62173266831992
  N   -1.61446960460443     -0.45713847585746      0.29146914188546
  O   -2.03449955550452      0.16553034509895      1.25899146240050
  O   -1.82368582957227     -1.62302260475936      0.00383249894587
  C   -1.05658199751868      1.72080074175659     -0.63648830458612
  N   -1.37155861583313      2.85168900537217     -0.71056057838516
  C   1.19580259535573     -1.24692135962896      0.35069941761794
  H   0.58331853691672     -1.69489774581076      1.13384054336251
  H   1.11223179543290     -1.84760020594744     -0.55454771499822
  H   2.23456504408698     -1.25607421911974      0.68421936338358
  C   0.81767314723278      0.98130313883135      1.32409686094644
  N   0.89891769564340      1.57761577250897      2.33304547230295
