15
Coordinates from ORCA-job run
  C   -0.68605452488693      0.44579508417217     -0.40880873444463
  C   0.70256852789450     -0.20060609427852     -0.25690871436236
  Br  -0.95139519692930      1.13827549719414     -2.19621266828578
  H   0.77243963650703     -0.95986977249819     -1.04261625506241
  N   -1.72189157258463     -0.67316782913516     -0.19029616855963
  O   -2.58233439190704     -0.47928611088065      0.65655965185069
  O   -1.56596880400891     -1.66933644248383     -0.87983334200522
  C   -0.90448478163768      1.50359748259908      0.56286700233127
  N   -1.01184555567543      2.36575909591122      1.35575874812552
  C   0.86940677452213     -0.84899368585016      1.12264856517723
  H   0.14763349834511     -1.65583840309096      1.26011447324716
  H   1.87076592919346     -1.27505345453155      1.19939628939404
  H   0.74693170200762     -0.11322461911025      1.91971710170246
  C   1.73203422886504      0.81205461750631     -0.48440346974319
  N   2.58119453029503      1.60989463447636     -0.63198247936515
