15
Coordinates from ORCA-job run
  C   -0.58318935602247      0.22240146971210     -0.60068111100431
  C   0.79486426758586      0.13116624681631      0.09239944684881
  Br  -0.56508769465734     -0.79443140458227     -2.24900461185905
  H   1.50714254934399      0.43199417101363     -0.68551006006217
  N   -1.71906132482199     -0.31513824515755      0.31498469768164
  O   -2.73660836271982     -0.70707988359838     -0.22683306515610
  O   -1.49565692463692     -0.22923625973447      1.51488041607300
  C   -0.94365677110012      1.59922516682888     -0.90808032335033
  N   -1.21977713060828      2.71793523826887     -1.14625518206559
  C   1.16623404819576     -1.27108214997250      0.58426244784631
  H   2.20046084844158     -1.25682372848238      0.93199177234755
  H   0.53030353405668     -1.57656079488037      1.41344405685842
  H   1.08821247083040     -1.99498621476993     -0.22713763014054
  C   0.90738765904535      1.12254349039646      1.16564269356220
  N   1.06743218706730      1.92007289814161      2.01289645242017
