15
Coordinates from ORCA-job run
  C   -0.74510834630534      0.39169178983023     -0.14631916760178
  C   0.51884431273629     -0.39696186301513      0.26229995505804
  Br  -0.32821650498347      2.03068700780995     -1.05841115666350
  H   0.14278944886303     -1.31802005777970      0.72377004560504
  N   -1.56830801282605     -0.55621932088713     -1.06782825068302
  O   -1.99923936071596     -1.53634580132337     -0.47397768949248
  O   -1.67355469593616     -0.28847313555462     -2.24936069414378
  C   -1.56621037592081      0.67519872595051      1.02094214311791
  N   -2.19512242646077      0.90608657912006      1.98771098894299
  C   1.39725575936212      0.35294334907669      1.26493193238601
  H   2.22093148956925     -0.29401176812561      1.57058872877226
  H   0.81855921581403      0.61739789015306      2.15183381510789
  H   1.81244380961616      1.25755233382865      0.82191672382898
  C   1.26970634527119     -0.76848713783554     -0.93748731943108
  N   1.89622934191649     -1.07203859124806     -1.88361005480349
