15
Coordinates from ORCA-job run
  C   -0.72278988055060      0.40721536637082     -0.06207018673890
  C   0.53859457881847     -0.44910772934606      0.13287106841639
  Br  -0.30115468294367      2.19052124568045     -0.68504482960841
  H   0.18298162707964     -1.46525567334818      0.33688874371467
  N   -1.67435080210739     -0.24131671152348     -1.10742195645542
  O   -1.32295130668603     -1.31819530171119     -1.56868075528826
  O   -2.70061741161658      0.37286553438907     -1.34231324482586
  C   -1.49098415076284      0.49754617551310      1.17110949110562
  N   -2.08713731817393      0.53473434461753      2.18465567041297
  C   1.39781360767932      0.03764326750848      1.30489286397355
  H   1.75944638945219      1.05103762690649      1.12958308806978
  H   2.25974142001294     -0.62301082893095      1.40997097149789
  H   0.82763322050851      0.01304799680210      2.23514245264000
  C   1.32436315208712     -0.49047101144630     -1.10090093899051
  N   2.01141155720286     -0.51825430148188     -2.05268243792352
