15
Coordinates from ORCA-job run
  C   -0.69325021730336      0.44805978066883     -0.39603628776661
  C   0.69514714960264     -0.20371348079241     -0.26796018147874
  Br  -0.98485267992648      1.14400800250580     -2.17823104685413
  H   0.74689670856897     -0.96462340517570     -1.05333616588728
  N   -1.73032891265356     -0.66738970454673     -0.16313499401648
  O   -1.58525854933752     -1.66589829410285     -0.85148126188278
  O   -2.58023917725446     -0.46843125235544      0.69288639142125
  C   -0.89321512031139      1.50510127926645      0.58035377939028
  N   -0.98995196623454      2.36663011372538      1.37533104263041
  C   0.88513796668910     -0.84978831191218      1.10946776445228
  H   0.79102308124829     -0.10970797585941      1.90616716983488
  H   1.88222438736045     -1.28908387320723      1.16468284027678
  H   0.15657797632241     -1.64659958311791      1.26715671340020
  C   1.72479828794833      0.80377917142373     -0.51619960909704
  N   2.57529106528112      1.59665753347968     -0.68166615442301
