15
Coordinates from ORCA-job run
  C   -0.70115700162273      0.44058775142342     -0.39367931239427
  C   0.69590703087180     -0.19431512250927     -0.27174848246137
  Br  -1.00896660997878      1.13094003993660     -2.17514438752246
  H   0.75563805753528     -0.95191003962608     -1.05993005221133
  N   -1.72195065090555     -0.68734682412928     -0.15357350978691
  O   -2.56239237401399     -0.50338676862112      0.71534803245466
  O   -1.57391064957519     -1.68090146449820     -0.84843500669496
  C   -0.90834911941223      1.49645678044957      0.58253286583657
  N   -1.01030587162864      2.35849918323437      1.37635738968627
  C   0.89795272061284     -0.84291031850170      1.10274618171106
  H   1.90379702524057     -1.26167975466638      1.15658952543880
  H   0.78796008721619     -0.10906692576123      1.90321679348149
  H   0.18553258271650     -1.65517797004686      1.25522354027394
  C   1.71132110537799      0.82772842119747     -0.51985281167726
  N   2.54992366756595      1.63348301211869     -0.68365076613422
