15
Coordinates from ORCA-job run
  C   -0.75930661569616      0.34448866373098     -0.04627382214148
  C   0.56817321153854     -0.41002999312266      0.13025083008431
  Br  -0.49618903276488      2.11273685066128     -0.78785447159728
  H   0.29640792472202     -1.43406671881646      0.40993776033547
  N   -1.71084631980295     -0.42821227097228     -1.00341851748299
  O   -1.30547288731570     -1.50314354034062     -1.42301921566469
  O   -2.78862157410136      0.09905812008221     -1.21826955750107
  C   -1.47180584304052      0.45373621550972      1.21844564629223
  N   -2.01794896370640      0.50678558159603      2.25905876114079
  C   1.44650218685876      0.20414005153322      1.22569507370879
  H   1.73439694561071      1.22375545134224      0.97005285749718
  H   0.92237403932920      0.20614126474785      2.18271405608364
  H   2.35248532022511     -0.39445178288759      1.32938742845577
  C   1.29456333930240     -0.47172903088663     -1.13856888359848
  N   1.93628826884124     -0.51020886217730     -2.12113794561218
