15
Coordinates from ORCA-job run
  C   -0.75956302282096      0.35317713871004     -0.02612221233925
  C   0.57121307950794     -0.40451907917186      0.10449404993075
  Br  -0.50307527332082      2.17435082225764     -0.62767451084053
  H   0.30368408502740     -1.44826646017145      0.30364430726183
  N   -1.69723696305711     -0.35081664315742     -1.04899004920569
  O   -1.28107336879357     -1.38886989659785     -1.54385119852544
  O   -2.77601130284902      0.18531726919657     -1.23448262016847
  C   -1.48484300210086      0.35912430134175      1.23616431394256
  N   -2.04339117362531      0.32760313266435      2.27104315876084
  C   1.43585822185351      0.12976051487491      1.25159492474429
  H   2.34626107014651     -0.46785281719025      1.31638979430192
  H   1.71692132741154      1.16848602352227      1.07796570637847
  H   0.90385285672596      0.05316332084484      2.20126877161999
  C   1.30877603557870     -0.36508659229489     -1.15867302404752
  N   1.95862743031610     -0.32357103482866     -2.13577141181376
