15
Coordinates from ORCA-job run
  C   -0.68867396910578      0.36142811518831     -0.49682423518486
  C   0.77480639988561      0.05334723028357     -0.08656114361121
  Br  -1.13106425346582     -0.53741825011717     -2.14674542180189
  H   1.37934277899098      0.30546324117368     -0.96525370385040
  N   -1.59917320393532     -0.14004526921228      0.64627915720930
  O   -2.04117274202147     -1.27345045988367      0.56967252315972
  O   -1.71166430659487      0.64998404924702      1.57544079299706
  C   -0.91253961372563      1.78781500761553     -0.66776457359747
  N   -1.05902773035808      2.94225447324548     -0.83950744990874
  C   1.00857999730403     -1.40934565840604      0.30302157325713
  H   2.07905721886492     -1.56747052635170      0.44222673488030
  H   0.65290962682344     -2.08057026065925     -0.47814985426848
  H   0.50481487705852     -1.65281395435250      1.23903509469828
  C   1.18414142861792      0.94240377287432      1.00425084370018
  N   1.55966349166154      1.61941848935470      1.88787966232108
