15
Coordinates from ORCA-job run
  C   -0.68761424344406      0.45144062383466     -0.40085322141176
  C   0.70098018964597     -0.19766920172444     -0.26077197798102
  Br  -0.95861842248618      1.16140967943170     -2.18071152981989
  H   0.76655941169896     -0.94982388159886     -1.05364606003546
  N   -1.72397539138472     -0.66837465237375     -0.18957059983482
  O   -2.58256246474036     -0.48041212040637      0.66051938385641
  O   -1.57033353823167     -1.65933786611190     -0.88696093825581
  C   -0.90215879813510      1.50029895685414      0.58132497368784
  N   -1.00845426801470      2.35672422314748      1.38060115718516
  C   0.87366864408332     -0.85886445984439      1.11176829727040
  H   0.76178945800829     -0.12939417183435      1.91597189398070
  H   1.87260273151892     -1.29232683489817      1.17753570900503
  H   0.14805851907591     -1.66234033710738      1.24775195574640
  C   1.73031830837037      0.81598792464887     -0.48423219171651
  N   2.57973986403506      1.61368211798276     -0.63072685167666
