15
Coordinates from ORCA-job run
  C   -0.70729787484108      0.43922016050349     -0.38613600129781
  C   0.69702287928752     -0.18186414965108     -0.27697596261824
  Br  -1.02904168533329      1.14860762090289     -2.15741132217425
  H   0.76264094938092     -0.92782859338103     -1.07561546068305
  N   -1.71540812338252     -0.70261048456474     -0.15667937205943
  O   -1.55762721217439     -1.68689043029994     -0.86260338510390
  O   -2.55714289539128     -0.53658099001698      0.71454300009887
  C   -0.92245872211760      1.48035382573006      0.60405036428494
  N   -1.03107624383049      2.33322414311618      1.40689483957855
  C   0.91024033949648     -0.84672035037629      1.08824360403663
  H   0.20633253370473     -1.66788666636923      1.23270372766403
  H   0.79618788179734     -0.12430593168546      1.89853867898617
  H   1.92025287209154     -1.25655240557239      1.13292681745376
  C   1.70019301096368      0.85513341399126     -0.51163861977343
  N   2.52818229034834      1.67470083767293     -0.66084090839311
