15
Coordinates from ORCA-job run
  C   -0.71414405354535      0.36812045319581     -0.46294930818593
  C   0.76729359100672      0.08947157969886     -0.09860976554721
  Br  -1.16391124918690     -0.46424827651605     -2.14549775376024
  H   1.34368860095333      0.40580130855502     -0.97550001928057
  N   -1.58260082165859     -0.21775480576016      0.67223092602080
  O   -1.70710106468283      0.52458812394373      1.63835750540725
  O   -1.98298860325440     -1.36274956729101      0.55233152374035
  C   -0.98690028543452      1.79291891003220     -0.55993556480415
  N   -1.17384446205877      2.94843408654866     -0.67581978515934
  C   1.05811085660386     -1.38179851211872      0.21200523575835
  H   0.58716290062897     -1.68726078283632      1.14693814899186
  H   0.70365792731090     -2.02575996333619     -0.59237559906830
  H   2.13647138374223     -1.51072489934695      0.31654769394158
  C   1.17105655952671      0.93746002041236      1.02651713602690
  N   1.54304872004861      1.58450232481876      1.93375962591866
