15
Coordinates from ORCA-job run
  C   -0.59463660522413      0.43715683842038     -0.54232891616909
  C   0.77249824454950      0.22647179744896      0.15926031532541
  Br  -0.45211491694106      0.04911954721324     -2.42778219971448
  H   1.48782715972942      0.82072952290924     -0.42069414302749
  N   -1.60369573064045     -0.52150740265216      0.12701160702202
  O   -1.76965312972573     -1.62002106861876     -0.37423632574475
  O   -2.07847527982529     -0.09203766026836      1.17130943219475
  C   -1.07857754426869      1.79875582064512     -0.38165735018951
  N   -1.42161998955950      2.91929659900914     -0.27916352996117
  C   1.22312174787213     -1.23666138246579      0.19739454679925
  H   1.20518635318962     -1.67393189851820     -0.80047573461707
  H   0.58726098906317     -1.82772447476547      0.85731513578392
  H   2.24341928277255     -1.27880165654380      0.58132828242709
  C   0.73016034469647      0.78492066605405      1.51351139956264
  N   0.75029907431200      1.21323475213241      2.60720748030848
