14

C	-0.383226	0.011326	-1.456401
C	0.0	0.0	0.0
Br	0.209256	-1.631484	-2.321716
H	1.09837	0.0	0.0
N	-1.922942	0.076632	-1.706143
O	-2.275264	0.392204	-2.834734
O	-2.645908	-0.208865	-0.763746
C	0.197244	1.153805	-2.151247
N	0.662065	2.076513	-2.713392
C	-0.440487	-1.176888	0.71955
N	-0.696214	-2.137719	1.348774
C	-0.431059	1.223794	0.644947
N	-0.734841	2.247641	1.140057
H	2.392858	0.0	0.0
