14

C	-0.44496	-0.015261	-1.398015
C	0.0	0.0	0.0
Br	0.808239	1.519065	-2.494902
H	1.095592	0.0	0.0
N	-0.091292	-1.257833	-2.087165
O	-0.672899	-1.496072	-3.15032
O	0.869226	-1.888975	-1.62717
C	-1.780532	0.374804	-1.70019
N	-2.903174	0.692673	-1.869929
C	-0.4636	-1.172014	0.709383
N	-0.823062	-2.101255	1.330064
C	-0.440961	1.211419	0.680818
N	-0.689874	2.205981	1.255294
H	2.258939	0.0	0.0
