14

C	-0.370246	0.015078	-1.459731
C	0.0	0.0	0.0
Br	0.235426	-1.624004	-2.323576
H	1.098345	0.0	0.0
N	-1.905318	0.074716	-1.726803
O	-2.246648	0.404401	-2.854695
O	-2.637759	-0.23049	-0.797573
C	0.215743	1.16056	-2.1456
N	0.676586	2.083862	-2.70983
C	-0.439773	-1.177933	0.716773
N	-0.687626	-2.141201	1.345454
C	-0.430466	1.223761	0.643609
N	-0.729633	2.250119	1.136375
H	2.392496	0.0	0.0
