17

C	0.0	0.0	0.0
C	-0.623973	-0.089464	-1.396411
Cl	1.751119	0.0	0.0
H	-1.725654	-0.026274	-1.231165
N	-0.397673	1.393723	0.559891
O	0.017222	1.649984	1.683476
O	-1.091432	2.117869	-0.140632
C	-0.511993	-1.020277	0.996642
H	-1.603664	-0.97198	1.02113
H	-0.192642	-2.01737	0.704735
H	-0.09131	-0.770816	1.969586
N	-0.350844	-1.445611	-2.012037
O	-0.898668	-2.405035	-1.483476
O	0.37277	-1.492006	-3.00313
C	-0.14012	0.934883	-2.31145
N	0.257977	1.735959	-3.072438
Cl	-3.646208	0.0	0.0
