17

C	0.0	0.0	0.0
C	-0.427995	-0.248699	-1.47917
Cl	1.762944	0.0	0.0
H	0.424221	-0.784694	-1.903256
N	-0.454827	1.329444	0.599325
O	-0.30471	1.425864	1.810091
O	-0.87176	2.195842	-0.152599
C	-0.46926	-1.136574	0.882191
H	-0.03459	-1.019641	1.87331
H	-1.560532	-1.107257	0.92621
H	-0.134607	-2.083119	0.452169
N	-0.480619	0.987553	-2.360655
O	0.583868	1.589111	-2.460854
O	-1.522952	1.245588	-2.939984
C	-1.564793	-1.13479	-1.739068
N	-2.093557	-2.080763	-2.201288
Cl	-3.448513	0.0	0.0
