17

C	0.0	0.0	0.0
C	-0.396319	0.10311	-1.508284
Cl	1.767888	0.0	0.0
H	0.425913	-0.409352	-2.014305
N	-0.433779	1.18044	0.86334
O	-0.539073	2.270368	0.318795
O	-0.548706	0.953231	2.059582
C	-0.500235	-1.297401	0.586637
H	-0.166301	-2.124078	-0.045522
H	-1.593511	-1.258023	0.62252
H	-0.089856	-1.422846	1.587592
N	-0.318579	1.497856	-2.109171
O	0.818925	1.935533	-2.255527
O	-1.356767	2.045194	-2.440314
C	-1.589365	-0.585818	-2.009079
N	-2.194675	-1.26907	-2.753501
Cl	-3.477272	0.0	0.0
