17

C	0.0	0.0	0.0
C	-0.43073	-0.020867	-1.497151
Cl	1.776232	0.0	0.0
H	0.417038	-0.492247	-2.000495
N	-0.444046	1.225644	0.793636
O	-0.272176	1.145054	2.003066
O	-0.878693	2.189818	0.183659
C	-0.465694	-1.256537	0.701789
H	-0.126892	-2.126742	0.134557
H	-0.032924	-1.28696	1.700464
H	-1.556935	-1.235836	0.746749
N	-0.476376	1.335026	-2.180534
O	0.589791	1.941207	-2.185146
O	-1.51435	1.681252	-2.718757
C	-1.576037	-0.847595	-1.890834
N	-2.090146	-1.70241	-2.518668
Cl	-3.436486	0.0	0.0
