14

C	-0.492653	-0.033668	-1.432345
C	0.0	0.0	0.0
Cl	-2.275109	0.138241	-1.543686
H	1.090839	0.0	0.0
H	-0.250698	-1.02098	-1.82674
C	0.133966	0.985193	-2.267899
N	0.581333	1.761591	-3.026792
N	-0.391299	-1.229959	0.751468
O	-0.107152	-1.235619	1.942065
O	-0.881531	-2.164114	0.118077
N	-0.512428	1.21487	0.698203
O	-0.012871	2.265377	0.310261
O	-1.401466	1.09473	1.533991
Br	3.258041	0.0	0.0
