14

C	-0.622376	-3.3e-05	-1.375187
C	0.0	0.0	0.0
Cl	0.038764	1.37392	-2.298757
H	1.087642	0.0	0.0
H	-1.70124	0.142514	-1.308477
C	-0.317361	-1.256253	-2.055141
N	-0.079585	-2.271905	-2.596452
N	-0.47182	-1.200003	0.767749
O	0.380742	-1.859263	1.35103
O	-1.683583	-1.427866	0.737547
N	-0.481001	1.160069	0.811578
O	0.291804	1.543956	1.687711
O	-1.557323	1.682046	0.508368
Br	2.753512	0.0	0.0
