18

C	-0.385506	0.001376	-1.500687
C	0.0	0.0	0.0
Cl	0.053133	1.585733	-2.169467
H	1.090581	0.0	0.0
C	0.324547	-1.081621	-2.274321
H	0.027201	-2.066833	-1.922618
H	1.395405	-0.951711	-2.101474
H	0.096421	-0.996821	-3.337365
N	-1.903003	-0.124875	-1.634866
O	-2.341994	-1.173608	-2.09784
O	-2.586869	0.809101	-1.225632
N	-0.502762	-1.321065	0.544125
O	-1.671434	-1.337828	0.933134
O	0.259744	-2.283421	0.538607
N	-0.471766	1.045342	0.832927
H	-1.360824	1.420685	0.536167
H	0.233094	1.766361	0.890212
Br	3.452535	0.0	0.0
