18

C	-0.610514	-0.007054	-1.411261
C	0.0	0.0	0.0
Cl	0.114322	-1.257009	-2.437051
H	1.087907	0.0	0.0
C	-2.115379	-0.131579	-1.43587
H	-2.476708	-0.039124	-2.45927
H	-2.408945	-1.102638	-1.037814
H	-2.563575	0.662788	-0.839448
N	-0.205471	1.342906	-2.021821
O	0.987796	1.594072	-2.045063
O	-1.108196	2.061944	-2.443735
N	-0.438404	-1.286604	0.684649
O	0.22704	-2.296099	0.494523
O	-1.462431	-1.235195	1.37442
N	-0.462336	1.160049	0.693685
H	-1.316713	0.964414	1.1996
H	0.25866	1.461506	1.336887
Br	3.477264	0.0	0.0
