18

C	-0.573712	0.07039	-1.416099
C	0.0	0.0	0.0
Cl	-2.35217	-0.033409	-1.332502
H	1.092387	0.0	0.0
C	-0.155631	1.362913	-2.086134
H	-0.478922	1.358185	-3.129684
H	-0.613036	2.195192	-1.556722
H	0.931266	1.445407	-2.028124
N	-0.048269	-1.07176	-2.298565
O	1.153821	-1.007677	-2.511969
O	-0.826965	-1.90058	-2.748919
N	-0.403522	-1.328294	0.632405
O	-0.100782	-2.344273	0.015887
O	-0.986349	-1.300828	1.715272
N	-0.423579	1.12164	0.764408
H	0.268841	1.304026	1.479428
H	-1.316325	0.943297	1.205893
Br	3.408873	0.0	0.0
