15

C	-0.652349	-0.022936	-1.360568
C	0.0	0.0	0.0
F	-0.213199	1.12167	-2.026063
H	1.087783	0.0	0.0
H	-0.330554	0.91109	0.501123
N	-0.171227	-1.144561	-2.278521
O	0.975411	-1.529085	-2.136774
O	-0.96086	-1.491139	-3.159131
N	-2.049515	-0.110523	-1.275882
H	-2.424322	0.679124	-0.768839
H	-2.464691	-0.198018	-2.19357
N	-0.499207	-1.12817	0.821586
O	-0.451211	-2.250062	0.330625
O	-0.919925	-0.865645	1.947281
Br	3.481408	0.0	0.0
