15

C	-0.398269	-0.080385	-1.461293
C	0.0	0.0	0.0
F	-0.689802	-1.428192	-1.716456
H	1.090945	0.0	0.0
H	-0.428172	-0.796855	0.597125
N	-1.783514	0.554721	-1.697477
O	-1.957159	1.214836	-2.716769
O	-2.640134	0.284902	-0.864017
N	0.535212	0.42547	-2.336189
H	0.183824	1.077603	-3.014579
H	1.433052	0.645857	-1.923692
N	-0.399529	1.287719	0.615119
O	-0.625323	1.280713	1.821317
O	-0.434292	2.282661	-0.107686
Br	3.4232	0.0	0.0
