15

C	-0.379187	-0.164259	-1.454176
C	0.0	0.0	0.0
F	-1.691976	-0.585187	-1.606599
H	1.090352	0.0	0.0
H	-0.433753	0.892611	0.43341
N	-0.495896	1.276573	-2.098648
O	-0.181647	1.360882	-3.282636
O	-0.960689	2.185204	-1.41919
N	0.490483	-0.976864	-2.150018
H	1.439479	-0.930296	-1.78493
H	0.453785	-0.814085	-3.146481
N	-0.489609	-1.154027	0.793408
O	-0.090061	-2.273152	0.489985
O	-1.261004	-0.901196	1.721268
Br	3.42758	0.0	0.0
