15

C	-0.353541	0.016901	-1.475346
C	0.0	0.0	0.0
F	-0.227982	-1.230259	-1.982892
H	1.089014	0.0	0.0
H	-0.372785	0.9055	0.47882
N	-1.8003	0.456156	-1.707065
O	-2.547122	-0.275958	-2.336013
O	-2.075813	1.564814	-1.252132
N	0.454574	0.913851	-2.231417
H	1.431845	0.711853	-2.012916
H	0.261935	1.864387	-1.937485
N	-0.602442	-1.150435	0.711993
O	-1.793079	-1.367865	0.470929
O	0.087922	-1.77773	1.506104
Br	3.467761	0.0	0.0
