15

C	-0.432835	-0.257258	-1.436558
C	0.0	0.0	0.0
F	-1.766873	-0.562707	-1.466191
H	1.087311	0.0	0.0
H	-0.421314	0.917221	0.402243
N	-0.309082	1.104636	-2.144944
O	0.61329	1.261083	-2.934008
O	-1.157091	1.937316	-1.839266
N	0.284461	-1.209009	-2.191952
H	1.250935	-0.899073	-2.260122
H	0.280832	-2.067925	-1.652796
N	-0.449764	-1.099287	0.886248
O	-0.864651	-0.788404	1.999936
O	-0.354401	-2.255495	0.472303
Br	3.405396	0.0	0.0
