15

C	-0.545453	-0.032983	-1.407592
C	0.0	0.0	0.0
F	0.025119	1.007237	-2.083153
H	1.085248	0.0	0.0
H	-0.335603	0.933946	0.454152
N	-0.030883	-1.27924	-2.170104
O	-0.387348	-1.342281	-3.345471
O	0.644579	-2.103637	-1.571062
N	-1.944566	0.090105	-1.522966
H	-2.383597	-0.648235	-0.987764
H	-2.198142	0.014836	-2.501322
N	-0.498744	-1.085563	0.881156
O	-1.384712	-1.841109	0.466066
O	-0.012191	-1.136999	2.001323
Br	3.465667	0.0	0.0
