15

C	-0.513224	0.050292	-1.420406
C	0.0	0.0	0.0
F	0.21475	0.94579	-2.158877
H	1.095287	0.0	0.0
H	-0.359466	-0.885605	0.514072
N	-0.244554	-1.306595	-2.090047
O	0.003861	-2.27634	-1.386261
O	-0.363615	-1.307328	-3.311444
N	-1.908819	0.235995	-1.555496
H	-2.134671	0.252431	-2.544124
H	-2.145867	1.130856	-1.145519
N	-0.443135	1.165126	0.806389
O	-0.346499	1.04347	2.022459
O	-0.844862	2.182041	0.233398
Br	3.428565	0.0	0.0
