18
Coordinates from ORCA-job run
  C   0.70668621604962      0.28287377413894      0.14531236308213
  C   -0.70534529295458     -0.28339283836420     -0.09234606914979
  Cl  0.69219982968512      1.54423404776429      1.37173476001064
  H   -0.59734107675170     -1.08961927721311     -0.81905741957404
  C   1.76568263553005     -0.75119850147650      0.47682205698106
  H   2.74557502416466     -0.26999483793613      0.48104195819649
  H   1.58011796010657     -1.17427331796497      1.46224135978578
  H   1.75318519881703     -1.55050508775239     -0.26342859874948
  N   1.08976123685611      0.89243156773563     -1.21725395098857
  O   1.32143733186019      2.08725310285633     -1.30668682431194
  O   1.12101511352161      0.07233568952649     -2.13098231024924
  C   -1.72810644525238      0.73543333182858     -0.54491804924882
  H   -1.81641259025888      1.55507643538948      0.16490373474059
  H   -2.70310554701035      0.25589796757740     -0.64247443307117
  H   -1.44783562529381      1.13016912865978     -1.52322005807267
  N   -1.15316716173183     -0.96991777527898      1.16783293457620
  O   -1.89104715179866     -0.35342289881715      1.93055330900763
  O   -0.73329965553877     -2.11438051067350      1.33992523703521
