18
Coordinates from ORCA-job run
  C   0.76622831371603      0.00491925879655      0.42619069108752
  C   -0.76928710619590      0.05292549225868      0.43658621111990
  Cl  1.28728677868171     -0.88208719116658      1.87570519888723
  H   -1.07404960058291      0.51709976565366      1.37504367233906
  C   1.41088869800119     -0.59460458230697     -0.79820428155989
  H   1.13656600707186     -1.64709154402168     -0.86842679247257
  H   2.49454136658724     -0.52246824587783     -0.71160880772815
  H   1.09127373024012     -0.07598474131025     -1.69950159978037
  N   1.22419652877461      1.46150620447106      0.61624418140192
  O   0.91556133119612      2.00079986921693      1.66928136444669
  O   1.81345890521378      1.98004275568556     -0.32682293522184
  C   -1.44641114817746     -1.28195451264950      0.20709096289227
  H   -1.20413154121249     -1.68146153226983     -0.77605084957533
  H   -2.52871586745595     -1.15116923736625      0.26532799294933
  H   -1.14572762957303     -1.99206821275297      0.97712258736701
  N   -1.21397120382976      1.02700551524172     -0.62788039341893
  O   -1.51538391358714      2.15732486602278     -0.24956831638712
  O   -1.24032364886801      0.62526607237493     -1.78952888634674
