18
Coordinates from ORCA-job run
  C   0.83460956212064     -0.21210447271186      0.10631865795609
  C   -0.64385066027063     -0.39974152725350      0.45534390231196
  Cl  1.58580172900477     -1.83164258243958      0.21655371846438
  H   -0.71027774808979     -0.98562466403633      1.37100998687390
  C   1.15919696947551      0.38939452424502     -1.23760182358770
  H   0.75490309612238     -0.24658991285097     -2.02510581226889
  H   0.73800824966416      1.39020273252084     -1.31203438472858
  H   2.23886098235029      0.44745405580089     -1.35904422719318
  N   1.48797601218236      0.59696880312218      1.23357773649915
  O   2.42860752719161      1.31880321652486      0.93497902618057
  O   1.03505464819508      0.41866559680502      2.35812706689937
  C   -1.46858035734717     -1.02581524529407     -0.65739071282281
  H   -2.47096308915703     -1.23364576999335     -0.28317461804760
  H   -1.54767285411083     -0.35192171373539     -1.51212928781433
  H   -1.01705340110573     -1.96339684682065     -0.98215266049484
  N   -1.29340131936543      0.91108424891791      0.81540513066038
  O   -0.74756009327203      1.95588597991697      0.46769609537108
  O   -2.36165925358816      0.82202357728201      1.40862220574105
