18
Coordinates from ORCA-job run
  C   0.72218069732759      0.26535422976262      0.08759049874901
  C   -0.71724542320987     -0.26759362650535     -0.03518446133128
  Cl  0.84493266624528      1.49185119634547      1.34332406856341
  H   -0.69276140063246     -1.05562749694557     -0.78885599312055
  C   1.78492066620688     -0.79705814255534      0.29452417817694
  H   1.67907331791663     -1.24556652521558      1.28044326946280
  H   2.77099719213500     -0.33395240995559      0.22416288286644
  H   1.68968423228636     -1.57375731279596     -0.46366157300448
  N   0.99523481315316      0.90550283965731     -1.28714535630597
  O   1.25689579182622      2.09493128246165     -1.36423793091039
  O   0.91654499119464      0.11302107417026     -2.22219142129920
  C   -1.75438370251719      0.78270613915383     -0.36680777598032
  H   -1.55581755540564      1.19639807736532     -1.35719151834341
  H   -2.74460728003880      0.32528125316027     -0.38582794720516
  H   -1.75962566390531      1.58527352192053      0.36756554764275
  N   -1.06414765598460     -0.98010498261975      1.24264055967132
  O   -1.71613450314686     -0.37075215331767      2.08513380025987
  O   -0.65574118345100     -2.13690696408646      1.34571917210822
