18
Coordinates from ORCA-job run
  C   0.73651142097154      0.22901296237869      0.07353982997905
  C   -0.72917379262631     -0.23404870012124     -0.02004555149940
  Cl  0.94980546337506      1.42173984595051      1.34943479551061
  H   -0.76103094459866     -1.00871460556571     -0.78730975503890
  C   1.75353431228318     -0.88536444212410      0.22998510194139
  H   1.60195690910621     -1.64138920557868     -0.53974753525518
  H   1.65342038714420     -1.34834805935950      1.20981244177683
  H   2.75797197019254     -0.46704984047577      0.14103748442466
  N   1.00045327561786      0.88474001928425     -1.29541849481142
  O   1.30145630442674      2.06571001593274     -1.35755342777715
  O   0.86982990662068      0.11371841634178     -2.24248293507106
  C   -1.72398807340629      0.86924235748478     -0.30663599822010
  H   -1.53500637813130      1.28810821090732     -1.29671161739404
  H   -2.73507563131375      0.45965222578652     -0.30235509274300
  H   -1.66947921801120      1.66004565295858      0.43846317424884
  N   -1.07632801360678     -0.95199017915471      1.25433057209165
  O   -1.68075987689944     -0.32924437381713      2.12207505335977
  O   -0.71609802114429     -2.12682030082834      1.32958195447746
