18
Coordinates from ORCA-job run
  C   0.86667224474881     -0.06301239978913      0.11497935586806
  C   -0.56837491053449     -0.32640524510987      0.59619748433683
  Cl  1.86686259983269     -1.44356125496803      0.61800193370745
  H   -0.52834234176845     -0.46967722154310      1.67651405333312
  C   1.04299232240998      0.18401671290908     -1.36217178662812
  H   0.76721060509559     -0.71622721103822     -1.91117191011688
  H   0.42395881332757      1.01472076125247     -1.69432373080706
  H   2.08733560326062      0.41323835918142     -1.57146211285526
  N   1.35553952200336      1.15022733750309      0.92532091007308
  O   1.43902640859659      1.00444197382474      2.13628776572962
  O   1.56908488499680      2.18126193040333      0.29535266056655
  C   -1.27508708819850     -1.46480841399125     -0.10925198866935
  H   -2.27035608942856     -1.59187897187436      0.32105435472660
  H   -0.72133521280929     -2.39301200339919      0.02979573928898
  H   -1.38792618222650     -1.25958728588956     -1.17224335784599
  N   -1.36184556559036      0.94492492267491      0.41235748276094
  O   -1.80399396191221      1.18107729564133     -0.71023079189832
  O   -1.50242165180364      1.65526071421234      1.40599393842973
