18
Coordinates from ORCA-job run
  C   0.78531739948386      0.06420237327564      0.30932869535017
  C   -0.73601380607531     -0.06803176987749      0.48664114594141
  Cl  1.59981434915918     -1.06036132531648      1.42159056781359
  H   -1.00289224738895      0.42341190237432      1.42376200295598
  C   1.27266530165221     -0.16256628215916     -1.10062928381268
  H   2.35971785028216     -0.11911369445595     -1.12912019224886
  H   0.88350896042457      0.60297030802203     -1.77176706999388
  H   0.94773446885858     -1.14566262702535     -1.44280532821346
  N   1.19768743799326      1.46722710699765      0.79610576221459
  O   1.91805677350641      2.12464029511304      0.05592017382429
  O   0.78729359043995      1.80090547666609      1.89788492484161
  C   -1.28408451392741     -1.47725982522599      0.42164638175414
  H   -0.94525328282979     -2.00952840294863     -0.46597717430328
  H   -0.98291948996276     -2.02966581130025      1.31014424932768
  H   -2.37315954614607     -1.43759664472445      0.39337842058180
  N   -1.34358232820883      0.78973108489144     -0.59675323327719
  O   -1.18288522042011      2.00256619589311     -0.47230917211771
  O   -1.90300569684093      0.23313163980044     -1.53704087063821
