18
Coordinates from ORCA-job run
  C   0.80204256083534      0.06621733519887      0.37899963601140
  C   -0.64202935096092     -0.45201870158854      0.34962902187170
  Cl  1.39905306872366     -0.06611853615971      2.03835927434528
  H   -0.59855030564725     -1.47374873185967      0.73152983496518
  C   1.70654734619918     -0.73034489541963     -0.54378885364625
  H   1.39554026159112     -0.61497533999164     -1.58023092525062
  H   2.73229584081654     -0.37259614109359     -0.44107018599122
  H   1.67859651535779     -1.78346764677756     -0.26003468004158
  N   0.87561285779665      1.53493951351122     -0.06905399129120
  O   1.19842627850439      2.39796226572177      0.72798642049795
  O   0.61104799268337      1.69851828271487     -1.25702276478753
  C   -1.38195532176815     -0.40205799505560     -0.97671350382671
  H   -0.84620223648897     -0.96084670940789     -1.74371553465304
  H   -1.51573702771827      0.62268572956929     -1.31495602063848
  H   -2.36087350232073     -0.86730831952175     -0.83912953701439
  N   -1.47171600587521      0.28533199977131      1.36011121081073
  O   -1.55332623716298      1.50234798111030      1.21515671923081
  O   -2.02977273456557     -0.38452009072207      2.22394387940795
