18
Coordinates from ORCA-job run
  C   0.81377202458941      0.03968395628055      0.35788431082610
  C   -0.64071089343833     -0.44935563803198      0.35461000794394
  Cl  1.45445203441531     -0.15781736158511      1.99431772464169
  H   -0.60652416070310     -1.48283003756993      0.70464525590983
  C   1.67515906286508     -0.74368391331082     -0.61597399098756
  H   1.63454805771000     -1.80490087677756     -0.36585705760414
  H   2.71043962841478     -0.40916932763717     -0.53255116589743
  H   1.33579596330524     -0.58839106062318     -1.63827046427082
  N   0.90489877969975      1.51995024126444     -0.04602029009014
  O   1.27456029187498      2.34971999447120      0.76583211451275
  O   0.60399928023196      1.72715032298306     -1.21840643396031
  C   -1.41716707533926     -0.34810662389980     -0.94759067339565
  H   -1.53680226747605      0.68722241876230     -1.25753002735926
  H   -2.40195465639321     -0.79518030402734     -0.79253108288881
  H   -0.91658392847432     -0.90110704360430     -1.74218238884252
  N   -1.42675925297040      0.27312099040259      1.40981789948796
  O   -1.98110538907182     -0.41220924576349      2.26381976077972
  O   -1.48201749924001      1.49590350866654      1.30698650119464
