18
Coordinates from ORCA-job run
  C   0.81194555386890      0.04778716939371      0.36152946248579
  C   -0.63948345824079     -0.45094636262218      0.35522695590487
  Cl  1.44634956252483     -0.13384557886239      2.00208093006494
  H   -0.59952049412263     -1.48148263051142      0.71328251265699
  C   1.68272167991767     -0.73700364105782     -0.60303242791690
  H   1.34705052334572     -0.59028853981586     -1.62782926348011
  H   2.71554286694107     -0.39561432640249     -0.51697598934863
  H   1.64715813512797     -1.79678977178441     -0.34613116299782
  N   0.89559362704259      1.52530504117983     -0.05288233879242
  O   1.25789230451931      2.36336369226188      0.75373530637706
  O   0.59739504121574      1.72196154058633     -1.22781018204123
  C   -1.41062135795743     -0.36521569629442     -0.95111036862111
  H   -1.53394374650432      0.66672177981143     -1.27085762938945
  H   -2.39412023021625     -0.81523285710535     -0.79624630207985
  H   -0.90392588104345     -0.92297879214072     -1.73850088762106
  N   -1.43450989565048      0.27494647389841      1.40087710554674
  O   -1.49610378587993      1.49660929330337      1.28795525082620
  O   -1.98942044488850     -0.40629679383791      2.25768902842598
