18
Coordinates from ORCA-job run
  C   0.78549849266709     -0.03296687495071      0.41673367455844
  C   -0.69325604218953     -0.42096533360829      0.28435387079803
  Cl  1.28790040742256     -0.34766806288655      2.08258221129890
  H   -0.75226535392926     -1.46956998265071      0.58215500931081
  C   1.66496461162122     -0.82812031758919     -0.53128852624112
  H   1.41341935089152     -0.60484005831695     -1.56629139537328
  H   2.71045413433883     -0.56818706747388     -0.35784233221554
  H   1.53789612531675     -1.89425258822252     -0.33727408879750
  N   1.00218885338276      1.45453696929971      0.09520152396949
  O   0.80405374949146      1.73469563563937     -1.08378416766646
  O   1.36349897534133      2.21940736992917      0.97179190297076
  C   -1.36241995292384     -0.20538585171797     -1.06265792777294
  H   -0.84152323805562     -0.75379654660297     -1.84736810034686
  H   -1.39074025137938      0.84906808062517     -1.32652816924731
  H   -2.38340376959190     -0.58964402155457     -1.00146562119781
  N   -1.50661033692774      0.30419695247379      1.31664031543633
  O   -1.47734217036650      1.53118558348441      1.26940576967110
  O   -2.16231358510975     -0.37969388587730      2.09663605084498
