18
Coordinates from ORCA-job run
  C   0.69965579229271      0.30858245149752      0.12507722095163
  C   -0.69703347380649     -0.30899524924898     -0.07183730434179
  Cl  0.67186587985650      1.57829075138919      1.34325373671531
  H   -0.57896485023689     -1.11818728805435     -0.79364151492820
  C   1.80267173123254     -0.68491898358334      0.43668665262562
  H   2.76478986240058     -0.16965962339559      0.41191660685255
  H   1.79920759081079     -1.49013836929466     -0.29729054171423
  H   1.65749324088312     -1.10621559702221      1.42959852003139
  N   1.02712589379519      0.92052674034779     -1.25022574543890
  O   1.06029322911441      0.09515579523466     -2.15923451662596
  O   1.22030891899330      2.12103685475723     -1.35302467651654
  C   -1.76588695479891      0.66895723708946     -0.50790735362464
  H   -1.52791623675882      1.05634950381662     -1.50024488901135
  H   -1.86053902308376      1.49660701908960      0.19178035243784
  H   -2.72703709165303      0.15649824088889     -0.56879105254422
  N   -1.08929681741794     -0.99813170635416      1.20530803186739
  O   -0.62623484895530     -2.12593770158689      1.37657277870824
  O   -1.82850284266799     -0.39982007557077      1.98100369455586
