18
Coordinates from ORCA-job run
  C   0.84596103419982     -0.18547461870734      0.13553183002011
  C   -0.63966085874107     -0.41366156031044      0.45292641718601
  Cl  1.67604387978222     -1.75008770570210      0.28433117872251
  H   -0.69635082933438     -0.85039611991865      1.45051210392520
  C   1.15804327033483      0.43257204455839     -1.20419519607255
  H   0.64534852440833      1.38480537780293     -1.32240948529171
  H   0.84407308537866     -0.24898566200047     -1.99463523380075
  H   2.23207676845296      0.59407764725707     -1.28986067412333
  N   1.37842548385438      0.70241428280783      1.27424407784963
  O   1.73508293588800      1.83532752843394      0.96662876878657
  O   1.35170855565852      0.22617421307384      2.39995362825016
  C   -1.38970508991343     -1.23135376052668     -0.57745979875613
  H   -2.42219395466802     -1.36437272690779     -0.24863143051278
  H   -0.93340832075923     -2.21574014305995     -0.67927075477721
  H   -1.40219350244028     -0.73025252297659     -1.54365766410436
  N   -1.29927006192898      0.93745672652054      0.59444486080924
  O   -1.45884808864982      1.35517897525241      1.73971519703306
  O   -1.62513283152250      1.52131802440304     -0.43716782514367
