18
Coordinates from ORCA-job run
  C   0.72230328469018      0.26234167584249      0.09925819549442
  C   -0.71716059851893     -0.26509208664317     -0.04575075870014
  Cl  0.82511035745618      1.50600656964398      1.33991170420603
  H   -0.68082824620570     -1.06622019027987     -0.78513218884451
  C   1.77504024375526     -0.80193214109184      0.34342159916170
  H   2.76477939952533     -0.34484065588329      0.28628364616881
  H   1.64679313772017     -1.23490323426628      1.33362060599921
  H   1.69161414186945     -1.58960259093526     -0.40469210921272
  N   1.02518164845713      0.88155206906921     -1.27849737898460
  O   0.97197244077036      0.07382230448520     -2.20219337313643
  O   1.28048850317700      2.07142214306080     -1.36912331135137
  C   -1.74110134234462      0.78474112846386     -0.41785100317333
  H   -1.52070397519954      1.17912353951199     -1.41147462932756
  H   -2.73336460304770      0.33243869638040     -0.44835796865812
  H   -1.75620075931130      1.60074669278433      0.30144178774126
  N   -1.09567637060564     -0.95329065088738      1.23617279097851
  O   -1.76654715387557     -0.32785444614592      2.05155024101238
  O   -0.69170010831206     -2.10845882310926      1.37041215062646
