18
Coordinates from ORCA-job run
  C   0.80270017807931      0.04289467912564      0.38191127253315
  C   -0.65154872665384     -0.44542620806457      0.34022750455143
  Cl  1.39395440453917     -0.13669117656827      2.03873237569203
  H   -0.62883456090041     -1.47496109565000      0.70257387183723
  C   1.69236258582012     -0.75172122186542     -0.55699953133755
  H   1.38479948025116     -0.60656710310370     -1.59077026833986
  H   1.64213532272020     -1.81021228854253     -0.29725990251485
  H   2.72510406267009     -0.41768644992553     -0.44517744412637
  N   0.90677175665046      1.51848246587850     -0.03553089867913
  O   1.25164925497639      2.35727230310007      0.77798538613217
  O   0.64211006961618      1.71273297928667     -1.21881413590348
  C   -1.38780121946989     -0.35788163572883     -0.98604619526197
  H   -0.86335678725509     -0.91885910846033     -1.75934053828963
  H   -2.37725511517517     -0.80281676626226     -0.85664243710164
  H   -1.49757331443607      0.67422596046602     -1.31014038085754
  N   -1.46781407962077      0.28974917942047      1.36286666766708
  O   -2.04554476327249     -0.38458113719434      2.21004419739555
  O   -1.52085854853936      1.51104662408840      1.24238045660338
