17

C	-0.373865	0.045296	-1.468595
C	0.0	0.0	0.0
Cl	-2.173213	0.079723	-1.685991
H	1.095327	0.0	0.0
H	-0.054702	-0.891795	-1.920949
C	0.264321	1.220907	-2.180237
H	1.340289	1.198356	-1.981047
H	-0.146646	2.170125	-1.832365
H	0.091392	1.148331	-3.255771
N	-0.416351	-1.323875	0.572714
O	-0.224834	-2.32364	-0.116129
O	-0.897984	-1.345249	1.705253
C	-0.497803	1.14151	0.856324
H	-0.123043	2.079673	0.444324
H	-1.586905	1.173728	0.904936
H	-0.101445	1.040279	1.865
Br	3.469387	0.0	0.0
