17

C	-0.476521	0.022556	-1.452139
C	0.0	0.0	0.0
Cl	0.183986	-1.391184	-2.336077
H	1.090685	0.0	0.0
H	0.015303	0.890938	-1.898076
C	-1.975872	0.079156	-1.686943
H	-2.415065	0.946365	-1.189062
H	-2.459495	-0.819771	-1.306732
H	-2.173537	0.157085	-2.758023
N	-0.469017	-1.258393	0.664026
O	-1.668182	-1.322122	0.964694
O	0.34568	-2.153904	0.85886
C	-0.4989	1.192105	0.796782
H	-0.18423	2.112079	0.298126
H	-0.03353	1.179936	1.784582
H	-1.582293	1.186917	0.914449
Br	3.56059	0.0	0.0
