17

C	-0.364689	0.02235	-1.472385
C	0.0	0.0	0.0
Cl	-2.15775	-0.007376	-1.708113
H	1.095331	0.0	0.0
H	-0.005414	-0.906196	-1.912462
C	0.238628	1.213041	-2.187061
H	1.311666	1.227116	-1.978342
H	-0.207983	2.148882	-1.848168
H	0.078587	1.128495	-3.263842
N	-0.416954	-1.317269	0.578084
O	-1.00715	-1.328919	1.659524
O	-0.126502	-2.327182	-0.059
C	-0.506604	1.150492	0.837188
H	-0.151858	1.038762	1.860637
H	-1.59576	1.206005	0.84569
H	-0.093426	2.079681	0.44203
Br	3.472327	0.0	0.0
