17

C	-0.488146	-0.067496	-1.44823
C	0.0	0.0	0.0
Cl	-0.179428	1.509175	-2.253399
H	1.091407	0.0	0.0
H	-1.573429	-0.193098	-1.46095
C	0.224252	-1.167694	-2.212816
H	-0.033325	-2.142451	-1.788845
H	-0.069934	-1.160566	-3.263966
H	1.304491	-1.028591	-2.128509
N	-0.468119	-1.28171	0.624758
O	-1.691733	-1.431986	0.721789
O	0.365059	-2.103466	0.992468
C	-0.549736	1.150315	0.820307
H	-1.634106	1.22722	0.724262
H	-0.291083	1.00401	1.870861
H	-0.083982	2.077019	0.48914
Br	3.583764	0.0	0.0
