10
Coordinates from ORCA-job run
  C   -0.19250453593035      0.06241878948081     -0.38601753838837
  C   0.95785888352894      0.16316586347404      0.30297429080749
  H   -0.20280009111019      0.36911603890788     -1.43049338996684
  H   1.01280923712056     -0.13135795599355      1.34768548938274
  C   -1.46929408400980     -0.44883028843648      0.19811580996329
  H   -2.25371687154989      0.31077016357134      0.13342397531049
  H   -1.82480426391046     -1.32216685043522     -0.35613812736182
  H   -1.34590054814686     -0.73018442410113      1.24537448651930
  C   2.16108188357336      0.66002712111496     -0.28947734713006
  N   3.15627039043467      1.06704154241736     -0.76544764913622
