10
Coordinates from ORCA-job run
  C   -0.13012385467492     -0.47128818794370     -0.63820436071144
  C   1.15934861877219     -0.15510082228420     -0.41566010450029
  H   -0.34345035829041     -1.10838729055487     -1.49431568499113
  H   1.94461611497445     -0.52411458849497     -1.06749295025702
  C   -1.29259625499173     -0.02451830559034      0.18681624373152
  H   -0.98116867585223      0.60793121419790      1.01911618763846
  H   -1.82949799052197     -0.88892765375289      0.58785301102870
  H   -2.00317266028664      0.53464018463788     -0.42871241471429
  C   1.56835990091186      0.67418641390673      0.67687865862728
  N   1.90668515995941      1.35557903587845      1.57372141414821
