10
Coordinates from ORCA-job run
  C   -0.25368852961584      0.18092991928402     -0.30236466943367
  C   1.00647938803817      0.05083079300868      0.14847368296165
  H   -0.43038805810979      0.79603229362362     -1.18318696094287
  H   1.22939567482950     -0.55307413332542      1.02423859910625
  C   -1.43738059223168     -0.47138327188991      0.33457596553934
  H   -2.16702696024937      0.27950135510540      0.65104387850434
  H   -1.14882148906798     -1.06234658344091      1.20561084053906
  H   -1.94484744897269     -1.12823625264715     -0.37773118486417
  C   2.11400393137068      0.69206876821134     -0.49045056778634
  N   3.03127408400902      1.21467711207035     -1.00820958362360
