10
Coordinates from ORCA-job run
  C   -0.07225551614745     -0.76026094267802     -0.25229761583728
  C   1.18340032644034     -0.27481998643702     -0.25564162453195
  H   -0.20736134203700     -1.78654990352368     -0.58815560305769
  H   2.01795836130664     -0.88734624902472     -0.58144539088820
  C   -1.29464635141001     -0.01375540955792      0.17214334689690
  H   -1.05968346240943      1.00265820991053      0.49042578621175
  H   -1.79010048535287     -0.53160313170703      0.99826736813723
  H   -2.01413754122299      0.03644931259801     -0.65018819969368
  C   1.49105437193383      1.05920298312320      0.16197496989387
  N   1.74677163889893      2.15502511729666      0.50391696286906
