10
Coordinates from ORCA-job run
  C   -0.25185541629309      0.15545835970404     -0.31911782114212
  C   1.00034980853547      0.09101540053214      0.16681793349172
  H   -0.42598971083001      0.71268921088168     -1.23811573291277
  H   1.21919056497854     -0.45469752966574      1.08091531570143
  C   -1.43046088333697     -0.49530894903340      0.32907409647093
  H   -2.19076276860114      0.24922138446890      0.58200310553005
  H   -1.89894291845955     -1.21056606051186     -0.35302192493989
  H   -1.14551591671759     -1.02279434722433      1.24106973566523
  C   2.10449293096157      0.72810492008623     -0.48204935086679
  N   3.01949430976277      1.24787761076235     -1.00657535699777
