14
Coordinates from ORCA-job run
  C   -0.37474869780734     -0.31019066541524     -0.13235933551726
  C   0.75811088584948      0.44395251799857      0.09542738631903
  C   -1.61522836112038     -0.03272004096977      0.66866488782670
  H   -2.23697850898155      0.69199184550152      0.13622400334416
  H   -2.19492805889417     -0.94907834602403      0.80055599710719
  H   -1.38274346749273      0.37712944668743      1.64938275419431
  N   -0.49666831024832     -1.22773133048601     -1.10139684489823
  H   -1.30889158569028     -1.81943099206043     -1.11663099248324
  H   0.32121481325066     -1.48274394309144     -1.63481397634749
  C   0.79511630669264      1.43084180966650      1.11707825554251
  N   0.76401860125432      2.23462045354263      1.97590907972899
  N   1.99563297467323      0.26272278436195     -0.62588124795667
  O   2.94933820771314      0.96508883354833     -0.30266521624954
  O   2.02875520080131     -0.58545237326000     -1.52949475061047
