14
Coordinates from ORCA-job run
  C   -0.35815060966686     -0.32060058239116     -0.15334621945564
  C   0.73921497269647      0.46473112846063      0.13615296806402
  C   -1.62743184289571     -0.12388224025985      0.62631889896490
  H   -2.25519373377755      0.61446319930007      0.12012121437457
  H   -1.43246770282976      0.23451480152884      1.63513779501883
  H   -2.18377177202320     -1.06159161403521      0.68936677619338
  N   -0.41671909313827     -1.20626099024671     -1.15619458031955
  H   0.41855676583235     -1.39782556100303     -1.68907049405489
  H   -1.21369675117461     -1.81332307981034     -1.23359626640926
  C   0.70801659005184      1.41400576628347      1.19296659852065
  N   0.61990102787254      2.18632685516599      2.07637095154831
  N   1.99901303199144      0.36380576953821     -0.56094466265112
  O   2.08581718491729     -0.43945453226398     -1.50145191518753
  O   2.91691193214401      1.08609107973306     -0.18283106460666
