14
Coordinates from ORCA-job run
  C   -0.35422245561773     -0.31656856235592     -0.16513288724592
  C   0.73562275559396      0.46327425740595      0.16411550674967
  C   -1.66602717064886     -0.08253740539419      0.52893167509777
  H   -1.53437778907059      0.36972172459591      1.50943500456954
  H   -2.20354650763741     -1.02609341504304      0.64804997831663
  H   -2.28204975665771      0.58802496345946     -0.07616524539032
  N   -0.36805909065867     -1.23005034723698     -1.14514452540541
  H   -1.16557045547551     -1.83354793016982     -1.24367828835803
  H   0.49584648315264     -1.45497299537020     -1.61561008409276
  C   0.66203862562176      1.44132762551837      1.19248475195691
  N   0.54156309029255      2.23714425499672      2.05077199133954
  N   2.03392854331793      0.31991104866139     -0.45137192429748
  O   2.93827410359021      1.04363180827036     -0.04421619584047
  O   2.16557962419742     -0.51926502733799     -1.35446975739969
