14
Coordinates from ORCA-job run
  C   -0.47720519919816     -0.12537503571586      0.10577487091731
  C   0.79823011323688      0.37421577130057     -0.06551636192152
  C   -0.81531724592633     -1.48292517936156     -0.44223471956378
  H   -1.55032963514262     -1.97372186251344      0.20077027171923
  H   -1.24715711385141     -1.37919433966113     -1.44156484801213
  H   0.06344358033626     -2.11996481304331     -0.52009455359068
  N   -1.47840227245285      0.53526477826098      0.69812727676222
  H   -2.37703173582098      0.09756792715689      0.80165124179155
  H   -1.31170157370532      1.45788677959324      1.07020792568514
  C   1.80738212484788     -0.38880355386926     -0.71402793195378
  N   2.61047041545670     -1.06151860233361     -1.24918983115939
  N   1.21500286884395      1.67561648911970      0.39077812292179
  O   0.37984188754053      2.38780414366599      0.96975405377809
  O   2.38177378583549      2.00414749740078      0.19556448262594
