14
Coordinates from ORCA-job run
  C   -0.34796024122293     -0.35250675454263     -0.09848802319772
  C   0.72390036598261      0.50248492019506      0.05815826948229
  C   -1.64966304104898     -0.02798455103486      0.57807628275946
  H   -2.26487352827341      0.58134902523818     -0.08952552427095
  H   -2.19780982466558     -0.94429895090086      0.80801869328045
  H   -1.49949672720771      0.52981971839216      1.50040025109870
  N   -0.35422000297108     -1.42638818235323     -0.89933838751351
  H   -1.13217341916435     -2.06162863583765     -0.86499027976432
  H   0.50732669523984     -1.70831871522298     -1.34290958653900
  C   0.63893964214751      1.64495773181131      0.89859417772539
  N   0.50894169868706      2.57546351743155      1.60719429104627
  N   2.01310743214640      0.28685611914186     -0.55430380692946
  O   2.90259081284941      1.09559180244022     -0.30520614179980
  O   2.15239013750122     -0.69639704475815     -1.29668021537781
