14
Coordinates from ORCA-job run
  C   -0.47806296773011     -0.13213607599897     -0.02945588300571
  C   0.78739724126471      0.39477853673188      0.12432040077559
  C   -0.65594299988328     -1.60030502553921     -0.29415572350455
  H   0.29137103211475     -2.13120097139312     -0.34370334210768
  H   -1.18160825877918     -1.73958327587380     -1.24293695131634
  H   -1.26375523500094     -2.04162815087117      0.49997651345671
  N   -1.61629795148983      0.56708276849924      0.09474432174426
  H   -2.48391195297059      0.13454607802866     -0.17181984585999
  H   -1.56311549956521      1.57144834613154      0.17497159791386
  C   1.95206833566725     -0.41373670093832      0.01783924919789
  N   2.88184867446406     -1.12859073788034     -0.07691440140620
  N   1.04287910708545      1.79922309600096      0.35367010769845
  O   2.21440948529446      2.15429154659316      0.44626318464382
  O   0.07272098952845      2.56481056650949      0.44620077176990
