14
Coordinates from ORCA-job run
  C   -0.47916306393859     -0.12329459223290      0.05220933499390
  C   0.80212432138415      0.38209423151725     -0.02692327154952
  C   -0.80632059093621     -1.44531558615851     -0.58214473585233
  H   -1.51700963680453     -1.29078703880213     -1.39828144036906
  H   -1.27380064319436     -2.10228033602326      0.15645494541835
  H   0.07460791725544     -1.94311723876609     -0.97915490354823
  N   -1.51645715961430      0.51419637541449      0.61357582630162
  H   -2.38603497627482      0.02428435011412      0.73304455275613
  H   -1.34973523129463      1.37311382176451      1.11566824370505
  C   1.85093679995838     -0.33450715106191     -0.66537130755197
  N   2.68244359543829     -0.96716006849335     -1.20642661366471
  N   1.20130632840589      1.63622241179679      0.57090132984370
  O   2.37998533788849      1.96387946850830      0.46779883647923
  O   0.33811700172679      2.31167135242269      1.14964920303785
