14
Coordinates from ORCA-job run
  C   -0.49192022159010     -0.11442721129376      0.03559420775827
  C   0.79256951115375      0.39031486095248     -0.01158128607227
  C   -0.74382397128243     -1.51330564896628     -0.45227051834357
  H   -0.54891184944055     -2.22388534884614      0.35549320098240
  H   -1.78263072044088     -1.62659109060536     -0.76894174717113
  H   -0.09411786105391     -1.77105219945014     -1.28693167192498
  N   -1.54251893475939      0.53003936495858      0.55511595513949
  H   -1.42342829322427      1.46947949877886      0.90369816091774
  H   -2.45535929874721      0.11279442525851      0.51474081107609
  C   1.85936093867882     -0.37340209746659     -0.55622762155783
  N   2.70148897584822     -1.06635404332522     -0.99837480571953
  N   1.15042557809999      1.70793225838524      0.45202846878634
  O   0.25886844790227      2.42104956378713      0.93664076140861
  O   2.31999769885570      2.05840766783268      0.32201608472037
