14
Coordinates from ORCA-job run
  C   -0.46583568063234     -0.09936376915569     -0.17172355296546
  C   0.78114084929290      0.47368471322530     -0.06588059458867
  C   -1.01089808400911     -1.14945994514340      0.75059640926608
  H   -1.98434715180922     -1.49399919734851      0.39647744671214
  H   -1.12162848294752     -0.74506713335169      1.75661701746814
  H   -0.33095996400421     -1.99601199650632      0.82882397604547
  N   -1.31078143450764      0.32734486665814     -1.13439198743937
  H   -2.14409676898557     -0.19882631944270     -1.32770552927034
  H   -0.99785254373943      0.97273194347908     -1.84383819656026
  C   1.19098850315687      1.44832437660968     -1.01388470503713
  N   1.38499516422771      2.24361952394942     -1.86074842385401
  N   1.74565661434920      0.15055068976652      0.96166116898350
  O   2.85089748256038      0.67988765394185      0.85552507363992
  O   1.41272149704798     -0.61341540668170      1.86847189759998
