14
Coordinates from ORCA-job run
  C   -0.47815958797814     -0.14650732511061     -0.05068605818681
  C   0.75818400275512      0.44745416935463      0.10238102754324
  C   -0.57299342444752     -1.51442948755473     -0.66523118072846
  H   -1.46860899888429     -1.58425020169083     -1.28639036465906
  H   -0.63993837323993     -2.26695071357512      0.12565515440408
  H   0.29519330727091     -1.74678727463867     -1.27810284606265
  N   -1.64083249253360      0.40952635952120      0.31483478926859
  H   -2.48452959412454     -0.13456357473437      0.26820237508413
  H   -1.62791512355476      1.27945737846849      0.82577825359754
  C   1.94825412928543     -0.19793465514082     -0.32992502319701
  N   2.89895577283908     -0.77865637205694     -0.70863129240843
  N   0.95327547756996      1.73442968091874      0.72777330303767
  O   2.10313844100296      2.15599496807144      0.81277462048728
  O   -0.04502353596069      2.34221704816758      1.14156724181990
