14
Coordinates from ORCA-job run
  C   -0.33678706482423     -0.33615818036856     -0.16084306431427
  C   0.73072522547481      0.46256255492727      0.19609073133509
  C   -1.64430649251404     -0.19374007168044      0.56578956472688
  H   -2.30872367724773      0.46405612125413     -0.00198015275075
  H   -2.12565763895765     -1.16882648941209      0.66627489886762
  H   -1.51420791705535      0.23360308288083      1.55775774022003
  N   -0.31022546089986     -1.25190531818415     -1.13754452581342
  H   -1.15982399090552     -1.71980305454197     -1.40051798784706
  H   0.51073945665517     -1.32707552227594     -1.71901821742270
  C   0.63178090740973      1.39720890969235      1.26182742730793
  N   0.49167389318644      2.15166471736642      2.15390614391184
  N   2.00618487493515      0.43738916495172     -0.47996921885760
  O   2.87182313906671      1.21517270907997     -0.08914052397725
  O   2.15880474567636     -0.36414862368954     -1.41363281538634
