14
Coordinates from ORCA-job run
  C   -0.48141958682784     -0.07349206711254     -0.13904300088081
  C   0.76640585534992      0.49896894932627     -0.04148293792331
  C   -0.93622042756551     -1.28144582358555      0.62455916370540
  H   -0.25629241787266     -2.11814127177533      0.47321163719470
  H   -0.94076149078358     -1.07373439878732      1.69423535006906
  H   -1.94243575975668     -1.56708137540659      0.31218306626440
  N   -1.41228184811601      0.50117600403260     -0.93271094547341
  H   -1.15356909591549      1.25202008568235     -1.55568565480905
  H   -2.24176258101638     -0.01635924768587     -1.16440136820551
  C   1.08644489843593      1.62657540277308     -0.84343796381191
  N   1.20245841129283      2.54839711585604     -1.56705430336174
  N   1.82208036862056      0.02028547953954      0.82233483193214
  O   2.90521855665163      0.59578980957540      0.72783145391726
  O   1.58313511750328     -0.91295866243205      1.58946067138275
