14
Coordinates from ORCA-job run
  C   -0.43831701499211     -0.14236379283832     -0.20896178924143
  C   0.75747214620520      0.51512271199452     -0.03278116158717
  C   -0.96834715724541     -1.21896405848580      0.69016983217778
  H   -0.98841059023962     -0.89073310425520      1.72779785585813
  H   -1.97464419973746     -1.50720187264027      0.38015542415392
  H   -0.32077533840959     -2.09487635376401      0.65408005551843
  N   -1.19495011747145      0.13669028547311     -1.29343198397168
  H   -2.14427898094487     -0.19163372192937     -1.32240811803872
  H   -0.96190235154371      0.91403887084130     -1.89345281265166
  C   1.13827345634648      1.54161280143602     -0.93656906632372
  N   1.32130292945936      2.35915983777661     -1.76402017913011
  N   1.67913098537037      0.25503307884677      1.05173617407654
  O   2.64244106154936      1.01483714693952      1.14144611141815
  O   1.45400517165346     -0.69272182939488      1.80523965774153
