14
Coordinates from ORCA-job run
  C   -0.32907834283425     -0.39178038130684     -0.04342113290742
  C   0.72958639322468      0.42524169160069      0.27053915414870
  C   -1.70452765402032     -0.07648679847343      0.46299613403629
  H   -1.68133908315306      0.64823659206088      1.26592641724648
  H   -2.26701209240740     -0.96845425914005      0.75247070185214
  H   -2.23417397753844      0.38107800895484     -0.37741443705877
  N   -0.23159170616414     -1.41126912935632     -0.91390348137811
  H   0.67979712872545     -1.64861118161942     -1.27874447792818
  H   -1.02308429512155     -1.99655898782400     -1.10095312909840
  C   0.69628637199229      1.40561543269943      1.28291291310693
  N   0.72043662028751      2.24164835631565      2.11208615372768
  N   1.91620885034564      0.45114590026051     -0.57931408172532
  O   2.46101685486961     -0.61803599324470     -0.85952830882543
  O   2.26847493179398      1.55823074907276     -0.99365242519660
