14
Coordinates from ORCA-job run
  C   -0.44757775746142     -0.14057607750371     -0.19042015666159
  C   0.77514098540000      0.48151790413753     -0.07908271233239
  C   -0.99615472755930     -1.14109155182008      0.78308846164806
  H   -0.36941446087450     -2.03245440401246      0.80559885665794
  H   -2.01109101727127     -1.42529361925905      0.49880664900739
  H   -1.00034323562098     -0.73831031191665      1.79488159200829
  N   -1.21806272413331      0.10490324713167     -1.27280962876258
  H   -0.96791732874529      0.83712355749324     -1.92071109332284
  H   -2.17808878286146     -0.19141429761785     -1.26787320455428
  C   1.16854495036945      1.43797699654355     -1.05212852582502
  N   1.35549580882955      2.19966850975207     -1.93055743717248
  N   1.71216486622916      0.25696706556167      0.99864473678542
  O   1.45860173638178     -0.61272329727868      1.83311325863224
  O   2.71970168731759      0.96270627878875      0.99944920389185
