14
Coordinates from ORCA-job run
  C   -0.45157783813666     -0.13020890504096     -0.18818590296824
  C   0.79296550816037      0.44963825924148     -0.09109717508214
  C   -1.03394007861421     -1.08975343430880      0.80632582908764
  H   -0.43006656250473     -1.99482275975464      0.86025284678624
  H   -1.03644661482458     -0.65983616359488      1.80677246374001
  H   -2.05358114737126     -1.35526721159078      0.52111709842834
  N   -1.21519218807154      0.12100404915699     -1.27452322223257
  H   -0.94175745338229      0.83473609762045     -1.93395662744469
  H   -2.18649017684427     -0.13597243169427     -1.25806335110460
  C   1.21821786960981      1.37042244781515     -1.08508044832697
  N   1.42713022610957      2.10825837940773     -1.97880013951310
  N   1.72227351651807      0.21686477708467      0.99151231321394
  O   2.75773926988107      0.88076055923205      0.97188554556366
  O   1.43372566947065     -0.61582366357420      1.85184076985248
