14
Coordinates from ORCA-job run
  C   -0.46769705561189     -0.09923270652757     -0.16765265121094
  C   0.78284417460309      0.46804450302185     -0.07631402040537
  C   -1.03465185810265     -1.09320622516974      0.80167646905949
  H   -1.14528214532991     -0.64047616624320      1.78663722189648
  H   -2.01040327722430     -1.44045116152171      0.45701188825694
  H   -0.36711371089458     -1.94431947238560      0.92432319393629
  N   -1.29699359758116      0.28420503393465     -1.16397112224264
  H   -2.11361663449741     -0.26836926456587     -1.35736681230657
  H   -0.95172714792110      0.86569047014327     -1.91334774789784
  C   1.21793702510205      1.37524333897039     -1.07868709595643
  N   1.43521543227773      2.10368789744653     -1.97810159462221
  N   1.73050923535155      0.19537299481155      0.98095397102975
  O   2.83928983220411      0.71517471920171      0.86497858754318
  O   1.38168972762446     -0.52236396111625      1.91885971291985
