14
Coordinates from ORCA-job run
  C   -0.46446178099063     -0.10772947643797     -0.17167548429114
  C   0.77246046087255      0.48659425898541     -0.06683716517429
  C   -1.02031886914849     -1.11357442999417      0.79192510252701
  H   -0.34056355771164     -1.95542654295451      0.91261260699371
  H   -1.98981066918219     -1.47332861571489      0.44228369658345
  H   -1.14053217178305     -0.66724400145216      1.77872124191874
  N   -1.29083948168668      0.25783937966087     -1.17673016493950
  H   -2.09648196715627     -0.30867032963562     -1.37550689465775
  H   -0.95124537227269      0.84672758027441     -1.92289613118968
  C   1.19824806659247      1.40423004751094     -1.06366131615658
  N   1.40867877288359      2.13949182049171     -1.95914176950370
  N   1.71842060614168      0.22648962398366      0.99550284626121
  O   2.81536303313687      0.77353123873182      0.89284623583715
  O   1.38008293030445     -0.50893055344950      1.92355719579137
