14
Coordinates from ORCA-job run
  C   -0.46654456232162     -0.10184837134067     -0.16934270211136
  C   0.78078008799341      0.47203322349610     -0.07402098564421
  C   -1.03384910708658     -1.09384774088490      0.80187364801929
  H   -0.36576170737459     -1.94430566777071      0.92684573530779
  H   -1.14539576384249     -0.63945410689694      1.78606037841050
  H   -2.00922336654414     -1.44211525800445      0.45692921404134
  N   -1.29278408066663      0.27419696068136     -1.17057494531076
  H   -2.10865000994472     -0.27976054624710     -1.36311889176913
  H   -0.94828471333449      0.85521939221431     -1.92061504852491
  C   1.21560993436596      1.37903481965320     -1.07660524831952
  N   1.43244614749003      2.10688849679556     -1.97662775265503
  N   1.72744507271997      0.20276675609537      0.98528063990752
  O   1.38183510144268     -0.52176544851460      1.91923653865857
  O   2.83237696710322      0.73195749072346      0.87467941998990
