14
Coordinates from ORCA-job run
  C   -0.46482671047636     -0.10823097080038     -0.16941952710912
  C   0.77879051119990      0.47495660813593     -0.07957191465798
  C   -1.02887781183686     -1.08852320453937      0.81556521690619
  H   -1.99834059436887     -1.45300844888289      0.47016366699130
  H   -1.15223785287244     -0.61690896517880      1.79032712944259
  H   -0.35373004951689     -1.93010559123143      0.96042011446865
  N   -1.29045196199555      0.24742892660843     -1.17869639686205
  H   -2.10336721867684     -0.31307619586163     -1.36439593624207
  H   -0.94766095047326      0.82002719202107     -1.93597579736037
  C   1.21095256580130      1.36847942428955     -1.09536115260238
  N   1.42608084043914      2.08235458235050     -2.00688815357898
  N   1.72261387028406      0.23044735964868      0.98812234842042
  O   2.82327648766449      0.76794393173576      0.87458019761539
  O   1.37877887482819     -0.48178464829542      1.93213020456841
