14
Coordinates from ORCA-job run
  C   -0.45995403625491     -0.11775885768741     -0.17738016292358
  C   0.76470604089791      0.49926264699879     -0.06088845282261
  C   -1.00963362871552     -1.12754726565622      0.78561000144579
  H   -0.31724847390414     -1.95721314119507      0.91868959234631
  H   -1.96888217606289     -1.50577078707977      0.42709298299163
  H   -1.14879358896827     -0.67834803454448      1.76861009527281
  N   -1.28033252871669      0.22726560722923     -1.19456310646611
  H   -0.94126378114705      0.81668803512277     -1.94062544164241
  H   -2.07259464132253     -0.35544066794595     -1.40037931586101
  C   1.18564251652947      1.42019571028611     -1.05649890346959
  N   1.39379003986200      2.15387546937717     -1.95383971792128
  N   1.70100229719842      0.26386584819548      1.01566462536504
  O   1.36502646204631     -0.47364229225058      1.94295362927452
  O   2.78753549855788      0.83356772914993      0.92555417441051
