14
Coordinates from ORCA-job run
  C   -0.46448004595975     -0.10929914206945     -0.17023509811214
  C   0.77285911654249      0.48542973949796     -0.07153240429456
  C   -1.01458527051836     -1.11630875357525      0.79539567761159
  H   -1.98453655867049     -1.47868021095121      0.44960572195759
  H   -0.33274561846533     -1.95661595864550      0.91460613872302
  H   -1.13232558939366     -0.66956228774644      1.78235232284516
  N   -1.29672094678759      0.25766908571662     -1.16973028575419
  H   -2.10435080960537     -0.30744887687700     -1.36430320208735
  H   -0.96274402431076      0.84980864363384     -1.91578060005601
  C   1.19131555264306      1.40625299700306     -1.06839932289651
  N   1.39448643492873      2.14349615492870     -1.96398116392806
  N   1.72378766812282      0.22691474389737      0.98649222008519
  O   2.81915344657109      0.77635790503939      0.87936572411336
  O   1.39088664490312     -0.50901403985208      1.91614427179289
