17

C	-0.524306	-0.008975	-1.405225
C	0.0	0.0	0.0
F	0.190154	0.695022	-2.27865
H	1.093928	0.0	0.0
N	-0.542064	-1.453085	-1.91616
O	0.527341	-1.861639	-2.336622
O	-1.599736	-2.064379	-1.860523
N	-1.984732	0.44775	-1.527719
O	-2.693431	0.27283	-0.545948
O	-2.330491	0.897193	-2.612275
N	-0.319559	-1.172979	0.732579
H	0.459978	-1.364038	1.356215
H	-1.171712	-1.058091	1.264255
N	-0.355589	1.26001	0.635086
O	-0.502037	2.251705	-0.099177
O	-0.353507	1.293493	1.872158
H	2.408343	0.0	0.0
