17

C	-0.535054	-0.037826	-1.400855
C	0.0	0.0	0.0
F	0.093604	-0.981717	-2.105133
H	1.093245	0.0	0.0
N	-2.029228	-0.39203	-1.422792
O	-2.431185	-1.044273	-2.378363
O	-2.696311	0.02555	-0.486772
N	-0.430286	1.244023	-2.225554
O	0.684094	1.485027	-2.661548
O	-1.458498	1.883474	-2.410535
N	-0.34592	-1.231263	0.63511
H	-1.084131	-1.075527	1.310759
H	0.48653	-1.550208	1.125312
N	-0.371931	1.199704	0.73158
O	-0.639964	1.085813	1.936018
O	-0.247037	2.281614	0.139237
H	2.430579	0.0	0.0
