17

C	-0.460208	-0.037403	-1.434468
C	0.0	0.0	0.0
F	0.111366	-1.081848	-2.051408
H	1.093833	0.0	0.0
N	-1.980274	-0.249734	-1.575344
O	-2.678174	0.13721	-0.646019
O	-2.363668	-0.792263	-2.60492
N	-0.182946	1.179108	-2.314005
O	-1.123207	1.93279	-2.533266
O	0.955713	1.260795	-2.742631
N	-0.327247	-1.168038	0.719473
H	0.443156	-1.823699	0.68271
H	-1.225668	-1.585307	0.535177
N	-0.401373	1.244648	0.674225
O	-0.149228	2.281852	0.04579
O	-0.832628	1.207937	1.824851
H	2.47644	0.0	0.0
