17

C	-0.400332	-0.092337	-1.447798
C	0.0	0.0	0.0
F	-0.26882	-1.366229	-1.86712
H	1.099089	0.0	0.0
N	-1.855211	0.255179	-1.767289
O	-2.663156	-0.3815	-1.09887
O	-2.104781	1.046774	-2.665372
N	0.465751	0.758077	-2.376944
O	0.62268	0.318433	-3.510193
O	0.949812	1.772495	-1.899279
N	-0.291363	-1.136392	0.799729
H	-1.079104	-1.677232	0.474326
H	0.551786	-1.696121	0.889283
N	-0.496412	1.234625	0.615595
O	-0.21796	1.421955	1.799653
O	-1.106103	2.044788	-0.102179
H	2.450301	0.0	0.0
