17

C	-0.553012	0.0088	-1.389192
C	0.0	0.0	0.0
F	-1.835371	-0.440115	-1.487823
H	1.09846	0.0	0.0
N	-0.464366	1.340284	-2.112312
O	-1.460429	1.742544	-2.689674
O	0.650481	1.842397	-2.090481
N	0.245742	-0.934113	-2.306381
O	0.259704	-0.639242	-3.499745
O	0.760106	-1.923395	-1.800471
N	-0.281752	-1.197823	0.730375
H	-0.997774	-1.764074	0.300316
H	0.586425	-1.719948	0.801683
N	-0.452827	1.173613	0.768214
O	-1.087557	2.079286	0.199845
O	-0.097138	1.207726	1.944554
H	2.435447	0.0	0.0
