17

C	-0.494642	0.170022	-1.405793
C	0.0	0.0	0.0
F	0.23429	0.986772	-2.165315
H	1.104623	0.0	0.0
N	-0.471835	-1.190488	-2.105158
O	-1.541879	-1.726373	-2.367765
O	0.645581	-1.609181	-2.357184
N	-1.955513	0.627109	-1.497538
O	-2.690992	0.253076	-0.593691
O	-2.274198	1.283977	-2.479047
N	-0.331894	-1.261604	0.560707
H	-1.182195	-1.2107	1.106653
H	0.443967	-1.550276	1.15132
N	-0.364999	1.15859	0.783189
O	-0.55571	2.229208	0.176504
O	-0.325513	1.045297	2.01918
H	2.389965	0.0	0.0
