17

C	-0.713573	-0.077304	-1.31509
C	0.0	0.0	0.0
F	-2.047717	0.013223	-1.198547
H	1.096867	0.0	0.0
N	-0.281005	0.92961	-2.374332
O	0.90209	1.226607	-2.395497
O	-1.156741	1.300923	-3.148335
N	-0.417271	-1.4348	-1.956822
O	0.751521	-1.636512	-2.253239
O	-1.365969	-2.18875	-2.114719
N	-0.256334	-1.188714	0.75375
H	0.605734	-1.402922	1.253375
H	-0.994934	-1.039778	1.428347
N	-0.375595	1.230189	0.65819
O	-0.610054	2.226976	-0.053172
O	-0.30723	1.256703	1.8981
H	2.366504	0.0	0.0
