17

C	-0.554683	-0.094406	-1.383282
C	0.0	0.0	0.0
F	-1.857348	-0.383641	-1.472913
H	1.107335	0.0	0.0
N	-0.270925	1.124457	-2.247469
O	-1.054632	1.306098	-3.171287
O	0.737809	1.760886	-1.995584
N	0.193735	-1.228694	-2.111093
O	1.184502	-0.92759	-2.762944
O	-0.253049	-2.355815	-1.927255
N	-0.335887	-1.192132	0.790665
H	0.110991	-0.995161	1.68377
H	0.222222	-1.948566	0.396026
N	-0.482853	1.165448	0.686022
O	-1.079453	2.057643	0.055386
O	-0.176648	1.246075	1.889774
H	2.408485	0.0	0.0
