17

C	-0.528492	0.017596	-1.404577
C	0.0	0.0	0.0
F	0.101935	-0.897242	-2.143913
H	1.090417	0.0	0.0
N	-2.022601	-0.334021	-1.448067
O	-2.421377	-0.930454	-2.440229
O	-2.692871	0.02892	-0.490659
N	-0.425398	1.331323	-2.176452
O	-1.44752	1.994581	-2.299104
O	0.678234	1.574305	-2.635809
N	-0.355904	-1.248945	0.590333
H	-1.11671	-1.117185	1.245272
H	0.463063	-1.578716	1.095418
N	-0.369023	1.177882	0.773407
O	-0.205724	2.277852	0.228496
O	-0.671642	1.023021	1.964022
H	2.439742	0.0	0.0
