14

C	-0.329055	0.27739	-1.440681
C	0.0	0.0	0.0
Br	0.352753	2.034643	-1.953139
H	1.11371	0.0	0.0
C	0.249044	-0.730814	-2.320027
N	0.695911	-1.548616	-3.037982
N	-1.85208	0.327192	-1.763373
O	-2.610616	0.482375	-0.818195
O	-2.159417	0.229149	-2.943932
C	-0.432187	-1.324419	0.384006
N	-0.70088	-2.430485	0.686946
C	-0.436566	1.02117	0.924825
N	-0.67529	1.856454	1.718794
H	2.362902	0.0	0.0
