14

C	-0.321169	-0.011185	-1.477147
C	0.0	0.0	0.0
Br	-2.194327	-0.454911	-1.928147
H	1.09854	0.0	0.0
C	-0.01368	1.268282	-2.096728
N	0.195904	2.3162	-2.588132
N	0.524995	-1.107009	-2.166289
O	0.563321	-2.18216	-1.594426
O	1.053921	-0.809356	-3.227358
C	-0.477319	-1.151296	0.736363
N	-0.824133	-2.056412	1.403969
C	-0.454479	1.222426	0.625312
N	-0.756523	2.228026	1.158478
H	2.382715	0.0	0.0
