14

C	-0.343657	0.278492	-1.443334
C	0.0	0.0	0.0
Br	0.098814	2.118188	-1.901389
H	1.113534	0.0	0.0
C	0.390495	-0.616774	-2.332158
N	0.995446	-1.322253	-3.055119
N	-1.85563	0.119715	-1.737745
O	-2.168003	-0.560242	-2.709814
O	-2.614453	0.676697	-0.95983
C	-0.383796	-1.347606	0.363746
N	-0.597664	-2.46691	0.665609
C	-0.465315	0.976705	0.956323
N	-0.722861	1.758876	1.798209
H	2.359698	0.0	0.0
