14
Coordinates from ORCA-job run
  C   -0.48269473453336     -0.12072738016734      0.31493929408628
  C   0.74374466000744      0.60040552980389     -0.26300233167222
  Br  -0.99618253052052      0.72851430520746      2.00618899429593
  H   0.88065260844244      0.20168721747133     -1.28111263796935
  H   0.48332565546955      1.65812836492467     -0.35356558644486
  C   -0.12253530682149     -1.50572061799986      0.60883839055558
  N   0.19934770136735     -2.62374279329446      0.77690008204220
  C   -1.66930780968234     -0.06285987081706     -0.64097313378514
  H   -1.92250800938037      0.97899935214517     -0.84725099772275
  H   -2.54044526427177     -0.55542533413642     -0.20900899007709
  H   -1.41043922372620     -0.56230516310551     -1.57886971333893
  N   1.90087770904307      0.45724361219132      0.59575079777336
  H   2.38319580410912     -0.41299422449577      0.41285953487375
  H   2.55096874049708      1.21779700227258      0.45730629738324
