14
Coordinates from ORCA-job run
  C   -0.42045585925715     -0.23308206742727      0.46114655949305
  C   1.04945236731652      0.03291286424321      0.09973233519882
  Br  -0.99039848905905      1.12876934947128      1.77168493712321
  H   1.65047540740263     -0.06594642599409      1.01331955036600
  H   1.34784626860034     -0.77150728658158     -0.58160801038057
  C   -0.51765805725336     -1.52706561627360      1.13045600397327
  N   -0.57135801604794     -2.59379516787029      1.62132262794888
  C   -1.34335142148400     -0.16967571294597     -0.74719889273115
  H   -2.38001564196395     -0.33487587374955     -0.45301953481508
  H   -1.23772016901134      0.80315217290619     -1.22350477264908
  H   -1.04865507207781     -0.94772791502130     -1.45798125279326
  N   1.18897395358442      1.30299755361917     -0.59103591935499
  H   2.05023268603377      1.31503231838163     -1.12082503992844
  H   1.22263204321690      2.06181180724219      0.07751140854934
