12

C	-0.463863	-0.090733	-1.445189
C	0.0	0.0	0.0
Cl	-2.265677	-0.22943	-1.540385
H	1.093643	0.0	0.0
H	-0.069026	-1.006963	-1.884703
H	-0.358556	0.942347	0.432506
C	-0.069156	1.064466	-2.246568
N	0.218083	2.003501	-2.890786
N	-0.43195	-1.196202	0.716783
H	0.309144	-1.467774	1.349028
H	-1.267841	-1.018194	1.255253
Cl	3.423769	0.0	0.0
