12

C	-0.444612	0.006669	-1.455246
C	0.0	0.0	0.0
Cl	-2.164885	-0.508092	-1.640127
H	1.100946	0.0	0.0
H	0.152059	-0.711074	-2.021056
H	-0.332928	-0.94674	0.433043
C	-0.30169	1.325605	-2.067197
N	-0.189835	2.386187	-2.557817
N	-0.599546	1.117802	0.727585
H	-0.671352	0.868582	1.705348
H	0.047607	1.897649	0.68293
Cl	3.460474	0.0	0.0
