12

C	-0.583865	-0.026809	-1.406865
C	0.0	0.0	0.0
Cl	-0.076324	1.402643	-2.355686
H	1.097734	0.0	0.0
H	-1.67241	0.016447	-1.32857
H	-0.351035	0.921457	0.471778
C	-0.241065	-1.249192	-2.135083
N	0.016472	-2.24078	-2.708939
N	-0.570938	-1.158341	0.709895
H	0.071978	-1.934558	0.583561
H	-0.560566	-0.956971	1.702143
Cl	3.490643	0.0	0.0
