19

C	-0.470565	0.027004	-1.44104
C	0.0	0.0	0.0
F	-0.01355	-1.122005	-2.105255
H	1.097178	0.0	0.0
C	-1.981939	0.048895	-1.641366
H	-2.422299	-0.816311	-1.143516
H	-2.415228	0.95912	-1.225553
H	-2.217016	-0.000502	-2.70691
C	0.115406	1.184327	-2.157652
N	0.550931	2.127905	-2.704702
C	-0.461319	-1.260181	0.721126
H	-1.530879	-1.264596	0.977251
H	0.111247	-1.341578	1.649288
H	-0.236795	-2.147771	0.126046
C	-0.419901	1.254754	0.753725
H	-0.096797	2.160137	0.232545
H	0.088934	1.254523	1.720441
H	-1.501592	1.322204	0.937367
F	2.647604	0.0	0.0
