18
Coordinates from ORCA-job run
  C   0.70460242030417     -0.31645295162267     -0.20869396818725
  C   -0.65499641767754      0.35918793889249      0.04460342117710
  Cl  0.48183991728556     -1.84379377844335     -1.07805727118818
  H   -0.40490466444965      1.30797003353874      0.52976212110049
  C   1.67761245205443      0.56000312362309     -0.96816617912387
  H   1.83831084374509      1.48759875879193     -0.41817636172679
  H   2.63114076204581      0.04411943700090     -1.09557287562545
  H   1.24697360755764      0.78516650533901     -1.94148501845307
  N   1.29964365618072     -0.60390421597080      1.17009628538238
  O   1.47589199692489     -1.75419970500732      1.54373718426409
  O   1.53111146628663      0.41001401137481      1.82619832941613
  C   -1.55459384342707     -0.44686826680536      0.97839999027975
  H   -1.77598871133504     -1.42965116427606      0.55642742874234
  H   -2.49744855694636      0.08883328130100      1.11168614352609
  H   -1.11065050431008     -0.58717510540953      1.96671974829773
  N   -1.24169848845515      0.67773460727403     -1.25108304691998
  H   -1.93988908176456      1.40161858793199     -1.13600274060548
  H   -1.70595685401950     -0.14020109753289     -1.62939319035603
