18
Coordinates from ORCA-job run
  C   0.72422417879190     -0.09710800461727     -0.47042345054353
  C   -0.79445690802980     -0.20697673207185     -0.27593425789015
  Cl  1.08427846329980      0.38670551605986     -2.15174411321096
  H   -1.17637645019965     -0.78504807193126     -1.12393336021451
  C   1.42544019670329      0.81955054065316      0.49675077218311
  H   1.17730962802608      0.51239720231453      1.51313599691394
  H   1.09492721717637      1.84426479435266      0.32795603769715
  H   2.50258249319224      0.77123051714348      0.35426315569576
  N   1.29455934692206     -1.51477761755332     -0.34038066666317
  O   2.40132947265321     -1.64273674626327      0.16773079497726
  O   0.60478074261283     -2.42755595200804     -0.78617968538588
  C   -1.46044828077010      1.16030269983119     -0.25971701849212
  H   -1.17435596970629      1.76314234338368     -1.12186748601506
  H   -2.54540410752496      1.03157756340645     -0.28547897460941
  H   -1.20447675865860      1.70250388769668      0.65318037338898
  N   -1.00774697933687     -0.88176378434076      1.00226208818332
  H   -1.08631623785750     -1.88083548126998      0.86293072537923
  H   -1.85885004729402     -0.55387267478596      1.43944906860605
