18
Coordinates from ORCA-job run
  C   0.72174729917939     -0.24260092018363     -0.45886634316418
  C   -0.79858946489841     -0.01641057255907     -0.35769497895493
  Cl  1.05629797705409     -1.08106933107060     -1.99512718867704
  H   -1.06050317899648      0.45937746792295     -1.31680419462386
  C   1.55804020754057      1.01801954309406     -0.40447759746834
  H   2.60757758191388      0.77575668333173     -0.57862747701106
  H   1.22718594696698      1.70353016890894     -1.18672890733411
  H   1.46227762077534      1.49550045373942      0.56805758728808
  N   1.13249332277865     -1.16083843522939      0.69362714861373
  O   1.18334112921189     -0.59735691734989      1.78485671322103
  O   1.34110436478753     -2.34415162040059      0.48634066838241
  C   -1.21830864848171      0.92093686788538      0.76642575032610
  H   -0.76967549564131      1.90934140309939      0.66484999204132
  H   -0.95838788569639      0.50241466641653      1.73772863956958
  H   -2.30352143425948      1.05116641117823      0.72306560939058
  N   -1.43876069476796     -1.30741654581467     -0.15390919285007
  H   -1.31046932059811     -1.90702125262180     -0.96027046869978
  H   -2.43284932686847     -1.17717807034700     -0.01544576004947
