18
Coordinates from ORCA-job run
  C   0.62128514641941     -0.36526981129760     -0.16077884476915
  C   -0.69874345363599      0.41732760836505      0.08079991796338
  Cl  0.29953550018944     -1.90354934248298     -0.97569289289612
  H   -0.38013282293939      1.34174886303965      0.57399036588807
  C   1.65227070249446      0.41458932628959     -0.95309684758312
  H   1.29375989758202      0.56224920781043     -1.97149528602408
  H   1.83245764515971      1.38014383087063     -0.47996041949310
  H   2.59061400943641     -0.14069742464418     -1.00289207167242
  N   1.21061432539878     -0.63782818443496      1.22015043957769
  O   1.56182512961001      0.38188932234251      1.81207864790178
  O   1.25803702355484     -1.77636891963275      1.66227783723207
  C   -1.65046609082610     -0.32584535715868      1.00687943740883
  H   -1.97052759500817     -1.27184587461206      0.56496115981112
  H   -2.53143820595501      0.29795925254531      1.15919863622027
  H   -1.20143567159671     -0.53715271804777      1.97872646068705
  N   -1.39584062878867      0.78940301404179     -1.13252984162872
  H   -1.64911862321047     -0.03084435832706     -1.66983908652546
  H   -0.84269628788456      1.40409156533311     -1.71477761209810
