18
Coordinates from ORCA-job run
  C   0.72679342074766     -0.21664300689695     -0.46364947733194
  C   -0.79903295056265     -0.03493956383267     -0.35520322868423
  Cl  1.08021369803858     -1.02752035540295     -2.01048646715636
  H   -1.07732362044843      0.44426387401573     -1.30798682331844
  C   1.52680177264567      1.06669548149513     -0.39720671468519
  H   2.58232980633121      0.85630138448186     -0.57649195435801
  H   1.42019450440886      1.53057841643647      0.58078508770285
  H   1.17446748106016      1.75092926452947     -1.17113131584800
  N   1.16711271592237     -1.13587337319914      0.67689070557034
  O   1.40591867885726     -2.31096559911704      0.45600768274178
  O   1.20836073606909     -0.58287360967899      1.77381491851380
  C   -1.24118218463936      0.87727975848147      0.78085228378752
  H   -0.96276772142762      0.45727329354671      1.74637921958662
  H   -2.33019322183887      0.97368620343768      0.74495057370347
  H   -0.82448007316954      1.88037352213210      0.68694514983617
  N   -1.40183027707446     -1.34568303804870     -0.16394341946235
  H   -2.39950275748293     -1.24549643158549     -0.02636085630539
  H   -1.25488000743699     -1.93438622079469     -0.97516536429263
