18
Coordinates from ORCA-job run
  C   0.67115058020746     -0.12314650540814     -0.53840219491328
  C   -0.82012558557443     -0.20797980364158     -0.18505694193978
  Cl  0.85952173491405      0.29173800506466     -2.26541655891963
  H   -1.29163042458137     -0.81379776524041     -0.96592157136206
  C   1.47558124195464      0.82121375172952      0.31497385106876
  H   2.53161077323924      0.75670218818893      0.06290148918448
  H   1.13552741108097      1.84240374143398      0.14386900664369
  H   1.33368311326573      0.55354609090341      1.36244360552376
  N   1.24034865850891     -1.54164507784493     -0.41175989869624
  O   0.50248468506043     -2.46207467484584     -0.75246391781987
  O   2.39088365994078     -1.66381267675281     -0.01064372145868
  C   -1.47064239399957      1.16629652933837     -0.15347537194880
  H   -2.55365087730664      1.04980731246049     -0.06503322536330
  H   -1.26828141814060      1.73381763312216     -1.06212865065261
  H   -1.11908364134825      1.73879101027039      0.70769285418376
  N   -0.90546124291149     -0.83179787144074      1.13379742700199
  H   -1.00693469298845     -1.83431161654346      1.04131920234434
  H   -1.70498158132139     -0.47775027079399      1.64230461712348
