18
Coordinates from ORCA-job run
  C   0.65123091330732     -0.11346498052817     -0.52383555739209
  C   -0.87431786598349     -0.17138308478415     -0.26172193364155
  Cl  0.95736762993092      0.38697779656681     -2.20670123963598
  H   -1.29565508955387     -0.71741453909556     -1.10991314302718
  C   1.43979301573533      0.76780674644769      0.41283236743897
  H   1.24652071108173      0.49687378695095      1.45154275114107
  H   2.50776740092434      0.66131593744197      0.22888533417585
  H   1.15751340293453      1.80711203804573      0.24823408867229
  N   1.13397737494397     -1.55787433952262     -0.41412922242966
  O   1.96531280273293     -1.81713346663248      0.45156074465595
  O   0.59593350359583     -2.37210290302116     -1.15576831535751
  C   -1.48157201078829      1.22190250758814     -0.19748769583476
  H   -1.17130049613885      1.74078527747963      0.71340348021892
  H   -2.56703771964777      1.12367481758324     -0.16878400092353
  H   -1.20399586670264      1.83110504063932     -1.05844766697855
  N   -1.23466736210925     -0.90448671667387      0.93565157497882
  H   -0.99000817479517     -1.88416819996230      0.88175893021976
  H   -0.83686216946757     -0.49952571852318      1.77291950371918
