18
Coordinates from ORCA-job run
  C   0.72962934285074     -0.21925556600407     -0.45736711499374
  C   -0.79605307733480     -0.03167818938061     -0.36159495531670
  Cl  1.09299236354095     -1.03101425741530     -2.00172233460329
  H   -1.06503492834620      0.44939755643654     -1.31615099072375
  C   1.53445855924185      1.06071687308232     -0.38397565183916
  H   2.59080696110702      0.84518954396623     -0.55199980552888
  H   1.41971516848155      1.52614939398271      0.59234885888922
  H   1.19341148900423      1.74565153232897     -1.16230193560514
  N   1.15673747459091     -1.14054700632001      0.68667767438443
  O   1.39200681072564     -2.31665571071124      0.46742735213414
  O   1.19115632084186     -0.58745948101589      1.78382557952782
  C   -1.24427494018340      0.88159029835115      0.77136735707435
  H   -2.33245656814917      0.98289083445069      0.72517246077966
  H   -0.82222557407686      1.88284602308603      0.68183916925917
  H   -0.97673820847889      0.45957432598154      1.73909987396497
  N   -1.40587201756075     -1.33999220963026     -0.17626630159394
  H   -2.40461355926900     -1.23594745324794     -0.04957696221346
  H   -1.25264561698568     -1.92945650794090     -0.98580227359568
