18
Coordinates from ORCA-job run
  C   0.70823248467290     -0.39619686444888     -0.06575915771865
  C   -0.65553365243176      0.33067465568942     -0.07678080418456
  Cl  0.47272062636326     -2.14599524868370     -0.14305136364949
  H   -0.40368650480015      1.39656386647898     -0.06764091858197
  C   1.61437221875420      0.04370376875295     -1.19473495099254
  H   1.13463579244008     -0.22872077583288     -2.13316391836856
  H   2.58219920597294     -0.45584038124500     -1.12235337757041
  H   1.76204816980153      1.12283034902297     -1.15422821195397
  N   1.37079966826024     -0.03085757020272      1.26005871933386
  O   1.70435012152876      1.15110403412340      1.33588724475868
  O   1.48035882791244     -0.86211699336189      2.15006576770931
  C   -1.50447760399346      0.01680508433319      1.15009006260084
  H   -1.81479139950361     -1.03060586227585      1.14334626101353
  H   -2.39895986868231      0.64350713293287      1.13385770967706
  H   -0.97929318327858      0.20532475905667      2.08814217950739
  N   -1.31497295168379      0.02067565270786     -1.33765368380294
  H   -2.06985964951843     -0.63783291861970     -1.20119977819808
  H   -1.68714230181424      0.85597731157230     -1.76588177957949
