18
Coordinates from ORCA-job run
  C   0.77571162949468     -0.21101090595767     -0.43393394390795
  C   -0.75391671712342     -0.01805705652333     -0.47105669764687
  Cl  1.33398313770167     -1.28150288353089     -1.73247431480103
  H   -0.91895871235152      0.68966303570208     -1.29230933887712
  C   1.54153366450602      1.09190931099298     -0.52831619348652
  H   1.25087955144689      1.78658354433663      0.25729125323204
  H   1.33687944066652      1.53625059954614     -1.50334351327449
  H   2.61175827950333      0.90778666180585     -0.44568364773080
  N   1.10211745557682     -0.90580616892674      0.88744221931785
  O   1.73794412955461     -0.26879953514384      1.72194160870165
  O   0.63764552102334     -2.02963050036172      1.05337901950104
  C   -1.25014654860793      0.61964141144770      0.83415238574629
  H   -2.30500359751998      0.87876353156036      0.71641586985542
  H   -1.17707256515776     -0.09174907839842      1.66081873250517
  H   -0.71595569027453      1.53069806920532      1.11094933396548
  N   -1.45381265631947     -1.24054111697701     -0.82984537694036
  H   -2.44622005897513     -1.04613755789005     -0.88423773040494
  H   -1.30636626314414     -1.94806136088738     -0.12018966575485
