17

C	-0.385833	-0.000346	-1.481895
C	0.0	0.0	0.0
Br	-2.390044	0.32402	-1.634171
H	1.095064	0.0	0.0
N	0.24819	0.927042	-2.375451
H	1.202113	0.602936	-2.522684
H	0.315475	1.821943	-1.90117
C	-0.187075	-1.354651	-2.014645
N	0.023162	-2.435951	-2.425489
C	-0.563096	-1.13154	0.817524
H	-0.210441	-1.02764	1.846603
H	-1.65559	-1.148985	0.829322
H	-0.179583	-2.079294	0.433653
N	-0.292317	1.289939	0.673265
O	0.119921	2.322977	0.060451
O	-1.283586	1.363589	1.419387
Cl	2.89644	0.0	0.0
