17

C	-0.524448	0.017705	-1.441361
C	0.0	0.0	0.0
Br	0.2338	-1.549497	-2.364593
H	1.090278	0.0	0.0
N	-1.967443	-0.1179	-1.506375
H	-2.250233	-0.19144	-2.477511
H	-2.358089	0.73755	-1.12254
C	-0.020285	1.174565	-2.202505
N	0.275102	2.089	-2.880733
C	-0.49931	-1.168598	0.834391
H	-0.036327	-1.102991	1.818375
H	-0.183268	-2.102083	0.371792
H	-1.587054	-1.164229	0.923416
N	-0.414976	1.261157	0.704855
O	-1.165304	2.058263	0.12719
O	0.008538	1.416753	1.842999
Cl	3.263281	0.0	0.0
