17

C	-0.526896	-0.010036	-1.452559
C	0.0	0.0	0.0
Br	0.415679	-1.478194	-2.367387
H	1.090317	0.0	0.0
N	-1.941993	-0.228769	-1.68184
H	-2.440439	0.463682	-1.132092
H	-2.190643	-1.153393	-1.350876
C	-0.135018	1.232635	-2.130192
N	0.176118	2.232213	-2.663701
C	-0.527079	-1.135301	0.858653
H	-1.613546	-1.084909	0.972994
H	-0.244696	-2.090247	0.415424
H	-0.058841	-1.07208	1.842654
N	-0.438648	1.276492	0.660627
O	-1.573007	1.700779	0.404771
O	0.330578	1.799824	1.455847
Cl	3.317254	0.0	0.0
