17

C	-0.438287	-0.011153	-1.464552
C	0.0	0.0	0.0
Br	-2.562324	0.503075	-1.439602
H	1.094868	0.0	0.0
N	0.294395	0.799391	-2.285099
H	0.571503	1.678305	-1.870777
H	0.022641	0.828469	-3.255187
C	-0.552086	-1.360133	-2.009561
N	-0.607261	-2.444638	-2.461119
C	-0.515097	-1.152594	0.827278
H	-1.605204	-1.183446	0.856166
H	-0.132751	-1.056751	1.842193
H	-0.126278	-2.082644	0.410586
N	-0.365466	1.318778	0.613076
O	-0.030213	2.33311	-0.001659
O	-0.931573	1.325951	1.701124
Cl	3.22385	0.0	0.0
