17

C	-0.528284	-0.012633	-1.455336
C	0.0	0.0	0.0
Br	0.42054	-1.470483	-2.372395
H	1.090239	0.0	0.0
N	-1.944796	-0.230037	-1.677967
H	-2.441284	0.449093	-1.108693
H	-2.186574	-1.160307	-1.356819
C	-0.144284	1.235626	-2.12656
N	0.159609	2.244623	-2.647012
C	-0.526704	-1.137578	0.85419
H	-0.066288	-1.071596	1.841877
H	-0.23246	-2.091122	0.414434
H	-1.613469	-1.09511	0.96107
N	-0.447325	1.280689	0.650188
O	0.36518	1.903562	1.321294
O	-1.633608	1.608495	0.504933
Cl	3.327516	0.0	0.0
