17

C	-0.314862	0.002484	-1.516796
C	0.0	0.0	0.0
Br	-2.223536	0.51836	-1.798219
H	1.095057	0.0	0.0
N	0.512303	0.846735	-2.335878
H	0.501876	1.771449	-1.916121
H	1.470209	0.505352	-2.223935
C	-0.219253	-1.37076	-2.023261
N	-0.137455	-2.472272	-2.424977
C	-0.55231	-1.160401	0.791035
H	-0.258076	-1.056322	1.834704
H	-1.641436	-1.211538	0.737204
H	-0.118912	-2.085506	0.410351
N	-0.424463	1.305547	0.591406
O	-1.151192	1.291713	1.583627
O	-0.020308	2.334812	0.049384
Cl	3.247135	0.0	0.0
