17

C	-0.309051	0.01526	-1.518924
C	0.0	0.0	0.0
Br	-2.21326	0.544974	-1.80448
H	1.095094	0.0	0.0
N	0.527777	0.859284	-2.327545
H	1.481882	0.505839	-2.219614
H	0.527682	1.779203	-1.897407
C	-0.21839	-1.355659	-2.033115
N	-0.13914	-2.454581	-2.440246
C	-0.558794	-1.165008	0.778845
H	-1.647609	-1.21453	0.715554
H	-0.123819	-2.087823	0.394352
H	-0.273044	-1.069601	1.825512
N	-0.421818	1.301929	0.600345
O	-0.007342	2.333843	0.070396
O	-1.1553	1.283217	1.587537
Cl	3.248939	0.0	0.0
