20

C	0.0	0.0	0.0
C	-0.472974	-0.183141	-1.490586
Cl	1.778575	0.0	0.0
H	0.440196	-0.360891	-2.068286
C	-0.590793	1.155305	0.755986
H	-1.681811	0.968392	0.715935
H	-0.219475	1.167317	1.78033
H	-0.322234	2.091119	0.265241
N	-0.295096	-1.288907	0.811432
O	-0.878657	-1.184436	1.881718
O	0.137021	-2.341678	0.351489
C	-1.15422	1.088251	-2.006079
H	-0.550526	1.992617	-1.879416
H	-1.343836	0.966426	-3.078758
H	-2.108131	1.16381	-1.473534
C	-1.432832	-1.351699	-1.749497
H	-2.29922	-1.204622	-1.089069
H	-0.954996	-2.319278	-1.613715
H	-1.76054	-1.279801	-2.793242
F	-3.0793	0.0	0.0
