20

C	0.0	0.0	0.0
C	-0.479922	-0.30626	-1.463715
Cl	1.778731	0.0	0.0
H	0.42751	-0.535069	-2.029914
C	-0.597118	1.204688	0.669152
H	-0.334859	2.103479	0.11078
H	-0.224975	1.293318	1.690265
H	-1.688684	1.01554	0.648298
N	-0.290762	-1.226787	0.910196
O	0.185413	-2.303552	0.560596
O	-0.934651	-1.051241	1.937005
C	-1.183432	0.913061	-2.069313
H	-1.389177	0.709078	-3.123846
H	-2.131214	1.014515	-1.530576
H	-0.586836	1.829714	-2.025143
C	-1.437996	-1.498446	-1.60597
H	-2.30791	-1.287894	-0.965155
H	-0.956706	-2.446919	-1.371933
H	-1.766928	-1.535685	-2.651006
F	-3.117673	0.0	0.0
