20

C	0.0	0.0	0.0
C	-0.483724	-0.344446	-1.455584
Cl	1.778488	0.0	0.0
H	0.424149	-0.567638	-2.023519
C	-0.599172	1.222038	0.634896
H	-0.335745	2.105311	0.053017
H	-1.69058	1.032433	0.616056
H	-0.230351	1.340405	1.654391
N	-0.299563	-1.202849	0.938704
O	0.21343	-2.27911	0.644246
O	-0.999244	-1.008033	1.924305
C	-1.197498	0.85207	-2.087429
H	-0.599839	1.767254	-2.081992
H	-2.136098	0.974387	-1.535877
H	-1.417897	0.612029	-3.13272
C	-1.424073	-1.553133	-1.558116
H	-0.928408	-2.487776	-1.297862
H	-1.756125	-1.624213	-2.600046
H	-2.292044	-1.33417	-0.917959
F	-3.124286	0.0	0.0
