17

C	0.0	0.0	0.0
C	-0.473837	-0.202652	-1.473272
F	1.387231	0.0	0.0
H	-0.452486	0.769354	-1.969158
C	-0.561013	1.278715	0.572741
H	-0.231621	1.404009	1.605618
H	-0.210587	2.124388	-0.023637
H	-1.655094	1.230442	0.547601
C	-0.391703	-1.159968	0.823988
N	-0.665901	-2.082392	1.496944
N	-1.709088	-0.856521	-1.706888
H	-2.519603	-0.31338	-1.391319
H	-1.747049	-1.734569	-1.201224
N	0.60288	-1.011172	-2.157727
O	1.332261	-0.437599	-2.962155
O	0.66329	-2.198571	-1.851698
Br	-4.390826	0.0	0.0
