17

C	0.0	0.0	0.0
C	-0.476817	0.014095	-1.455362
F	1.39107	0.0	0.0
H	-1.573384	-0.025293	-1.447705
C	-0.480088	1.171535	0.827507
H	-0.029737	2.090439	0.449641
H	-0.16906	1.02309	1.863101
H	-1.569505	1.225306	0.76816
C	-0.406127	-1.284293	0.599527
N	-0.599503	-2.304881	1.145774
N	0.125625	-1.047303	-2.175978
H	-0.270237	-1.130009	-3.102173
H	1.12328	-0.893085	-2.245956
N	-0.109888	1.388747	-2.031603
O	0.997964	1.495474	-2.561633
O	-0.933297	2.291814	-1.92388
Br	-3.790188	0.0	0.0
