17

C	0.0	0.0	0.0
C	-0.393353	0.259098	-1.473783
F	1.384889	0.0	0.0
H	-0.083699	1.278592	-1.711891
C	-0.570227	1.069213	0.901484
H	-0.242696	0.901116	1.928982
H	-1.663867	1.021826	0.860733
H	-0.222996	2.050108	0.567497
C	-0.417733	-1.336694	0.462736
N	-0.698675	-2.386799	0.906779
N	-1.72324	0.012978	-1.874635
H	-2.304891	0.837283	-1.808545
H	-2.205585	-0.686786	-1.318247
N	0.535234	-0.594509	-2.327649
O	0.370698	-1.80881	-2.270808
O	1.356834	-0.00981	-3.032184
Br	-4.369307	0.0	0.0
