17

C	0.0	0.0	0.0
C	-0.515622	0.056806	-1.438242
F	1.391041	0.0	0.0
H	-1.611195	0.122728	-1.383321
C	-0.475834	1.1249	0.894474
H	-1.567824	1.151537	0.881681
H	-0.070891	2.07383	0.542542
H	-0.117233	0.935041	1.90783
C	-0.386629	-1.308686	0.568039
N	-0.553136	-2.340514	1.101923
N	-0.071458	-1.064689	-2.182412
H	0.920723	-0.994643	-2.366102
H	-0.574383	-1.137308	-3.055633
N	-0.030496	1.382622	-2.040188
O	0.979064	1.345997	-2.745718
O	-0.672892	2.396079	-1.781471
Br	-3.810579	0.0	0.0
