9
Coordinates from ORCA-job run
  C   1.31443486362348     -0.27395591397785     -0.05203233189897
  C   0.05109728065968      0.14366519018398      0.05705957992806
  H   2.13168643875103      0.37782544116863      0.23062165240863
  H   1.52228121508938     -1.26878247133654     -0.42509213735807
  C   -0.34564270145954      1.43032530005391      0.53484170440741
  N   -0.62096565511999      2.50100683754136      0.93470336597956
  N   -1.07144995496544     -0.75335276800279     -0.33206840694044
  O   -0.78147971183807     -1.86630932120973     -0.74624373665189
  O   -2.19996177474053     -0.29042229442098     -0.20078968987428
