9
Coordinates from ORCA-job run
  C   1.30192123358958     -0.30659260447547     -0.12881613973931
  C   0.05636082320714      0.15272272359105      0.01330947131138
  H   1.47380626337136     -1.36970652713226     -0.23901655541948
  H   2.13996584970139      0.37921425890931     -0.13304624752430
  C   -0.29490764228696      1.52886546389927      0.16923920184594
  N   -0.53433092299419      2.67271077252450      0.29723550102329
  N   -1.09486833491453     -0.79106070390273      0.00918918894344
  O   -0.83970105114307     -1.98548012692995     -0.03830385754568
  O   -2.20924621853071     -0.27967325648372      0.05120943710473
