9
Coordinates from ORCA-job run
  C   1.31541836563737     -0.27120828011512     -0.04754043735633
  C   0.05087995456790      0.14352642319817      0.05711138260519
  H   1.52785984259721     -1.26546105759158     -0.41917622034644
  H   2.12952072527472      0.38323483889752      0.23795119787066
  C   -0.35039498233346      1.43058742960348      0.52997495299905
  N   -0.63081217900333      2.50298737220352      0.92163375995167
  N   -1.06879906089931     -0.75667704489475     -0.33281105543794
  O   -0.77403347161834     -1.85622670939517     -0.77836020919138
  O   -2.19963919422277     -0.31076297190606     -0.16778337109447
