9
Coordinates from ORCA-job run
  C   1.28826934951650     -0.21957615917245      0.31225034041446
  C   0.05445704636921      0.14784326267070     -0.04101177087577
  H   1.47167547623223     -1.22922868168230      0.65715806509990
  H   2.10655312848128      0.48714024347152      0.25312135660567
  C   -0.30836425200815      1.44728452395096     -0.51100088785616
  N   -0.55606529109012      2.53003313624216     -0.89619027352461
  N   -1.07170996301264     -0.82110345354241      0.05143711577738
  O   -2.18844925708767     -0.37116387783774     -0.18316629137419
  O   -0.79636623740062     -1.97222899410044      0.35740234573333
