9
Coordinates from ORCA-job run
  C   1.26717357327554     -0.23744704164806      0.37898955559706
  C   0.04498724215471      0.15592934962015      0.01313084625641
  H   1.49523753622684     -1.29363009140759      0.44634817223883
  H   2.03104326834056      0.49510067049674      0.60813516883596
  C   -0.37292022771773      1.51663864679056     -0.10967001529681
  N   -0.66723708975188      2.65148853483970     -0.19617661361066
  N   -1.00429821043735     -0.85220998824959     -0.30179791750241
  O   -0.69402647928658     -2.03103797363072     -0.21054757490031
  O   -2.09895961280411     -0.40483210681118     -0.62841162161808
