9
Coordinates from ORCA-job run
  C   1.26609854000962     -0.24619646313773      0.37620663196235
  C   0.05726340763438      0.14999099805305     -0.02888606439489
  H   1.41638352608942     -1.26697964869191      0.70429948660059
  H   2.09685744567703      0.44846399838363      0.37743282938683
  C   -0.26127473404453      1.46623293346323     -0.48363388972486
  N   -0.47290845373593      2.56323542254348     -0.84953100957946
  N   -1.08353548985746     -0.80664330242482     -0.03009935534008
  O   -2.15870255166506     -0.36079626014851     -0.41764907260755
  O   -0.85918169010748     -1.94630767804043      0.35086044369708
