9
Coordinates from ORCA-job run
  C   1.30449454316298     -0.29974250414290     -0.11552833186268
  C   0.05507878955765      0.15255268346831      0.01378037061321
  H   1.48273952487864     -1.35955181424949     -0.24666105300993
  H   2.14017758763722      0.38838582389921     -0.08891695596626
  C   -0.30285696131602      1.52395006804551      0.19288154785865
  N   -0.54584988400575      2.66491917110981      0.33855990642841
  N   -1.09268799234777     -0.79503850761553     -0.02272429767216
  O   -2.20620970581855     -0.29599717625614      0.10376992052662
  O   -0.83588590174839     -1.98047774425880     -0.17416110691587
