9
Coordinates from ORCA-job run
  C   1.32187833102536     -0.21175315427469     -0.11607602886706
  C   0.04679571371870      0.14904975153924      0.04587062184546
  H   2.11839624361528      0.49502915051171      0.08065944811645
  H   1.56007632591769     -1.21509047631589     -0.44568534924227
  C   -0.38903902081074      1.44040188432340      0.47427783310730
  N   -0.69663415372783      2.51779544676521      0.83008819203143
  N   -1.04780579519667     -0.82331491633342     -0.22473323412371
  O   -2.18957497005145     -0.40959610966783     -0.05079349108802
  O   -0.72409267449034     -1.94252157654774     -0.59460799177957
