9
Coordinates from ORCA-job run
  C   1.29990351569609     -0.20611345791481      0.27051259679516
  C   0.05080973355461      0.14997937350102     -0.03814016827715
  H   1.50406169054315     -1.21229382506711      0.61401111879023
  H   2.10950364382660      0.50714473694067      0.17847604075808
  C   -0.33908609811206      1.44408389888226     -0.50104514899681
  N   -0.60934701967130      2.52386728201587     -0.87924001521309
  N   -1.06169235069309     -0.83113702953193      0.08899608065915
  O   -2.17749265860358     -0.42105900634885     -0.21427980100467
  O   -0.77666045654042     -1.95347197247713      0.48070929648910
