9
Coordinates from ORCA-job run
  C   1.29386603390583     -0.34745033468640     -0.10562987879613
  C   0.06024099498374      0.15101342745279      0.00405515448714
  H   2.14984880219288      0.31529073841136     -0.13340599788045
  H   1.43822447641907     -1.41854714075972     -0.16793669345649
  C   -0.25402861572212      1.54178803840933      0.09306800798839
  N   -0.46052603313608      2.69699215154365      0.16304092858515
  N   -1.11634454456304     -0.76025095126998      0.03970143146306
  O   -0.89751431198685     -1.96074779789409     -0.03295623887817
  O   -2.21276680209344     -0.21908813120695      0.14006328648750
