9
Coordinates from ORCA-job run
  C   1.29812349909256     -0.19913166574255      0.28340352665283
  C   0.05116854139104      0.14833317100107     -0.04309061033606
  H   2.10994356768382      0.50835759371696      0.16928380970677
  H   1.49832789999458     -1.19248886373786      0.66436531369161
  C   -0.33384215052045      1.42560422738093     -0.55443902930919
  N   -0.60001459246277      2.49170989129883     -0.97233054068882
  N   -1.06395226942489     -0.82523168924544      0.11428670050508
  O   -2.17745940318872     -0.42396963333867     -0.20840965930449
  O   -0.78329509256516     -1.93318303133327      0.54793048908227
