9
Coordinates from ORCA-job run
  C   1.29045636644494     -0.22805525063794      0.29746070408399
  C   0.05370485358087      0.14973425045377     -0.03421243407895
  H   2.11099721469800      0.47614329705215      0.23724326433619
  H   1.47351008138115     -1.24263149449359      0.62766372534861
  C   -0.30895347352100      1.45726894248544     -0.48137711951229
  N   -0.55668149477751      2.54769085576297     -0.84420116245976
  N   -1.07355023943863     -0.81925787586088      0.04798176245909
  O   -2.17610762136257     -0.39036414401416     -0.27706240721841
  O   -0.81237568700526     -1.95152858074775      0.42750366704153
