15

C	-0.548596	0.012854	-1.402688
C	0.0	0.0	0.0
Br	0.240931	1.491885	-2.328626
H	1.0904	0.0	0.0
H	-0.343682	0.888295	0.528
N	-0.232507	-1.277201	-2.189938
O	-1.188679	-1.925444	-2.594531
O	0.952094	-1.517	-2.325809
N	-2.075387	0.160893	-1.438742
O	-2.591816	0.499329	-2.493266
O	-2.65901	-0.107968	-0.392867
N	-0.441996	-1.168903	0.801443
O	-0.611002	-0.978113	1.999827
O	-0.556195	-2.247639	0.223072
Cl	3.228189	0.0	0.0
