15

C	-0.546511	-0.004303	-1.390879
C	0.0	0.0	0.0
Br	-0.017939	1.533362	-2.385706
H	1.086102	0.0	0.0
H	-0.383466	-0.865925	0.540106
N	-0.025386	-1.223173	-2.167601
O	0.874032	-1.87141	-1.649292
O	-0.615239	-1.480742	-3.210924
N	-2.072007	-0.241072	-1.478668
O	-2.424325	-1.206449	-0.804715
O	-2.793307	0.588057	-2.010001
N	-0.469789	1.221492	0.712871
O	-1.66417	1.517151	0.614838
O	0.354281	1.816922	1.398661
Cl	2.694508	0.0	0.0
