15

C	-0.503147	-0.008271	-1.418741
C	0.0	0.0	0.0
Br	0.166362	1.444396	-2.43482
H	1.085827	0.0	0.0
H	-0.360787	-0.879558	0.53033
N	-0.110995	-1.337588	-2.097799
O	0.310527	-2.225734	-1.374408
O	-0.336535	-1.406923	-3.297207
N	-2.045632	-0.094316	-1.491732
O	-2.507927	-0.96984	-0.770755
O	-2.658953	0.624977	-2.255125
N	-0.510248	1.177102	0.754368
O	-1.497654	1.768366	0.312144
O	0.062721	1.442099	1.801043
Cl	3.241126	0.0	0.0
