15

C	-0.621484	0.030953	-1.370717
C	0.0	0.0	0.0
Br	-2.548191	0.133927	-1.284512
H	1.090819	0.0	0.0
H	-0.33604	0.868072	0.561357
N	-0.169754	1.292712	-2.113071
O	-0.16682	1.228172	-3.334586
O	0.082336	2.26755	-1.420727
N	-0.17234	-1.128676	-2.270773
O	1.041147	-1.172144	-2.39797
O	-1.012914	-1.846226	-2.784015
N	-0.455355	-1.194362	0.748355
O	-0.711488	-1.041684	1.940511
O	-0.506781	-2.261286	0.136488
Cl	3.212736	0.0	0.0
