16

C	-0.55877	-0.002301	-1.414141
C	0.0	0.0	0.0
Br	0.365846	-1.241122	-2.579388
H	1.089285	0.0	0.0
C	-1.988807	-0.262236	-1.4876
N	-3.086983	-0.684805	-1.490846
N	-0.227724	1.358003	-2.075531
O	-1.046069	1.793126	-2.882446
O	0.757221	1.945789	-1.634731
N	-0.400551	-1.184459	0.813903
O	-0.651436	-0.98908	2.002236
O	-0.472934	-2.260223	0.21863
N	-0.475683	1.174087	0.80127
O	-1.678133	1.478503	0.688847
O	0.385597	1.861033	1.34985
Cl	2.670392	0.0	0.0
