15

C	-0.327994	-0.132352	-1.478286
C	0.0	0.0	0.0
F	-0.234269	1.14054	-2.090485
H	1.09551	0.0	0.0
H	-1.36367	-0.45404	-1.675266
H	-0.33416	-0.925955	0.490159
C	0.69909	-1.032579	-2.140761
H	0.521273	-2.074239	-1.851736
H	1.682879	-0.736451	-1.753923
H	0.643842	-0.95592	-3.230118
C	-0.61921	1.216454	0.666646
H	-0.215848	2.127346	0.222531
H	-1.713128	1.246039	0.566832
H	-0.375847	1.2321	1.733148
F	2.806855	0.0	0.0
