15

C	-0.484011	0.021131	-1.428944
C	0.0	0.0	0.0
F	-0.209802	-1.224247	-2.02827
H	1.094284	0.0	0.0
H	0.102074	0.758776	-1.991509
H	-0.383618	-0.911029	0.478571
C	-1.969832	0.262868	-1.628945
H	-2.23387	0.149177	-2.684388
H	-2.252807	1.267298	-1.306345
H	-2.543832	-0.464675	-1.04733
C	-0.431592	1.242572	0.77598
H	0.088224	1.258129	1.737144
H	-1.510238	1.31338	0.9648
H	-0.119817	2.147147	0.241388
F	2.753164	0.0	0.0
