19

C	-0.461725	0.066342	-1.453097
C	0.0	0.0	0.0
Br	0.071303	-1.744311	-2.304454
H	1.090168	0.0	0.0
N	-1.844549	0.307866	-1.622083
H	-2.380463	-0.40412	-1.140564
H	-2.084971	0.321202	-2.606019
C	0.386673	1.082584	-2.196924
H	1.442183	0.910286	-1.965833
H	0.215667	1.002562	-3.273837
H	0.100592	2.087934	-1.875475
N	-0.505314	-1.19832	0.717948
O	0.22311	-1.706724	1.564944
O	-1.6604	-1.586614	0.480237
C	-0.436542	1.207325	0.822524
H	-1.522336	1.312655	0.860729
H	0.002908	2.109214	0.39549
H	-0.02867	1.095035	1.830686
H	2.827057	0.0	0.0
