19

C	-0.460152	0.013914	-1.473153
C	0.0	0.0	0.0
Br	0.280036	1.688009	-2.278871
H	1.091102	0.0	0.0
N	0.104191	-1.073486	-2.232415
H	1.0674	-1.197225	-1.921131
H	-0.405863	-1.920207	-2.005184
C	-1.965584	0.093965	-1.657565
H	-2.193557	0.076894	-2.724483
H	-2.358196	1.016459	-1.228584
H	-2.455462	-0.749289	-1.160869
N	-0.444632	-1.315624	0.552071
O	-1.569699	-1.402383	1.068145
O	0.32677	-2.273058	0.44353
C	-0.499938	1.123239	0.885786
H	-0.178431	2.075285	0.462076
H	-1.582431	1.120104	1.017835
H	-0.022047	1.027197	1.864048
H	2.804901	0.0	0.0
