19

C	-0.488533	0.047691	-1.457704
C	0.0	0.0	0.0
Br	-0.067681	-1.724951	-2.254324
H	1.090721	0.0	0.0
N	-1.89816	0.278609	-1.699138
H	-2.433521	-0.303547	-1.062598
H	-2.096561	1.248804	-1.475598
C	0.352794	1.075645	-2.198177
H	0.155872	1.007172	-3.268684
H	0.077426	2.082462	-1.859859
H	1.412658	0.909872	-1.976236
N	-0.533113	-1.193	0.717083
O	0.251311	-1.970124	1.247642
O	-1.76724	-1.315054	0.766302
C	-0.431006	1.221393	0.802184
H	-1.515739	1.346403	0.836699
H	-0.052067	1.112851	1.821853
H	0.041052	2.11308	0.385925
H	2.86602	0.0	0.0
