19

C	-0.220818	0.028046	-1.503618
C	0.0	0.0	0.0
Br	-2.195876	0.441409	-1.946362
H	1.094362	0.0	0.0
N	0.570223	1.131013	-1.964008
H	0.683119	1.071583	-2.969727
H	1.496737	1.027977	-1.517476
C	0.07562	-1.265993	-2.239564
H	1.101586	-1.548881	-1.983991
H	-0.001074	-1.079096	-3.315204
H	-0.598579	-2.077917	-1.974754
N	-0.456924	-1.234811	0.658646
O	0.066826	-2.299654	0.312526
O	-1.288537	-1.150505	1.572769
C	-0.478435	1.226553	0.739161
H	-0.132417	2.104264	0.19461
H	-1.563805	1.25342	0.825526
H	-0.039555	1.235134	1.739488
H	2.647637	0.0	0.0
