19

C	-0.473299	0.059877	-1.44716
C	0.0	0.0	0.0
Br	0.085138	-1.734646	-2.301201
H	1.090168	0.0	0.0
N	-1.863316	0.276595	-1.607134
H	-2.11162	0.272664	-2.589757
H	-2.378528	-0.445657	-1.1178
C	0.35125	1.091146	-2.196898
H	0.044775	2.089486	-1.872571
H	0.176844	1.006598	-3.272614
H	1.410639	0.939528	-1.970552
N	-0.501797	-1.198925	0.723944
O	-1.65232	-1.598081	0.487471
O	0.231946	-1.697115	1.573932
C	-0.438504	1.207334	0.820413
H	-0.023563	1.099207	1.825783
H	-1.524844	1.308317	0.864816
H	-0.00566	2.110374	0.388209
H	2.821763	0.0	0.0
