17

C	0.0	0.0	0.0
C	-0.732681	0.214344	-1.306675
F	1.334528	0.0	0.0
H	-1.794407	0.097879	-1.044
N	-0.353786	1.149411	0.972549
O	-1.528069	1.465105	1.038654
O	0.581503	1.642198	1.591211
N	-0.39917	-1.273467	0.734616
O	-1.102487	-2.089323	0.155817
O	0.076064	-1.377557	1.863251
N	-0.319807	-0.809772	-2.258685
H	0.218961	-0.390205	-3.003392
H	-1.142722	-1.241192	-2.655706
N	-0.501778	1.59812	-1.685791
H	0.254691	1.688892	-2.349355
H	-1.347784	1.995421	-2.066602
Cl	-4.154411	0.0	0.0
