14

C	0.0	0.0	0.0
C	-0.563463	0.117349	-1.418792
F	1.342582	0.0	0.0
H	-1.400986	0.818407	-1.383704
H	-0.401012	-0.867018	0.517653
N	-0.354499	1.208805	0.830839
O	-0.455794	1.028909	2.039705
O	-0.389317	2.291273	0.253787
N	-0.978951	-1.226558	-1.839205
H	-1.882514	-1.341836	-1.372774
H	-1.175004	-1.197408	-2.834149
C	0.449826	0.64465	-2.339524
N	1.215748	1.056128	-3.127162
Cl	-3.339447	0.0	0.0
