14

C	0.0	0.0	0.0
C	-0.381991	0.152476	-1.498917
F	1.359782	0.0	0.0
H	0.582912	-0.101553	-1.972286
H	-0.392611	-0.90546	0.450454
N	-0.332333	1.115067	0.957003
O	-0.129616	2.268182	0.578822
O	-0.592214	0.782267	2.1052
N	-0.856752	1.449706	-1.947297
H	-0.353529	2.186932	-1.475303
H	-0.713536	1.511719	-2.94758
C	-1.265206	-0.927689	-1.976731
N	-1.672096	-1.834966	-2.605287
Cl	-3.041025	0.0	0.0
