14

C	0.0	0.0	0.0
C	-0.50759	-0.646677	-1.291844
F	1.35711	0.0	0.0
H	0.275437	-0.424275	-2.020228
H	-0.384377	-0.431615	0.922661
N	-0.39408	1.459438	-0.012562
O	-1.293578	1.803098	0.741267
O	0.257229	2.176352	-0.765863
N	-1.720443	-0.024788	-1.73542
H	-2.516861	-0.106332	-1.08188
H	-2.009466	-0.411797	-2.621688
C	-0.548251	-2.113753	-1.107947
N	-0.663865	-3.278036	-1.022474
Cl	-4.346849	0.0	0.0
