14

C	0.0	0.0	0.0
C	-0.427098	-0.041303	-1.48488
F	1.358713	0.0	0.0
H	0.318812	0.600395	-1.967388
H	-0.400814	-0.780205	0.644325
N	-0.393984	1.319702	0.606497
O	-0.135727	2.31756	-0.064728
O	-0.868002	1.304453	1.736455
N	-1.729093	0.402604	-1.88781
H	-2.497434	0.019687	-1.322701
H	-1.780238	1.407999	-1.789496
C	-0.162332	-1.416147	-1.948031
N	0.082198	-2.511308	-2.292521
Cl	-4.190364	0.0	0.0
