14

C	0.0	0.0	0.0
C	-0.433759	0.025423	-1.480407
F	1.352859	0.0	0.0
H	0.252769	0.752184	-1.928365
H	-0.401943	-0.812197	0.604912
N	-0.397237	1.287459	0.674741
O	-0.798197	1.216384	1.83138
O	-0.208443	2.317037	0.030213
N	-1.772514	0.386749	-1.843337
H	-1.900023	1.380772	-1.712613
H	-2.507765	-0.061006	-1.285676
C	-0.066194	-1.291923	-2.034414
N	0.252814	-2.336776	-2.462261
Cl	-4.275059	0.0	0.0
