14

C	0.0	0.0	0.0
C	-0.384373	-0.337621	-1.467002
F	1.353161	0.0	0.0
H	0.403534	0.169446	-2.035341
H	-0.407149	-0.647198	0.774347
N	-0.392155	1.40927	0.349346
O	-0.767328	1.6181	1.497851
O	-0.213112	2.25557	-0.525428
N	-1.647939	0.032532	-2.036177
H	-2.439198	-0.195642	-1.421755
H	-1.656215	1.040728	-2.143074
C	-0.138283	-1.784291	-1.617488
N	0.084318	-2.932278	-1.717582
Cl	-3.981275	0.0	0.0
