16

C	0.0	0.0	0.0
C	-0.504008	0.010445	-1.44976
F	1.350785	0.0	0.0
H	-1.227618	-0.799506	-1.533565
H	-0.397396	0.820227	0.583739
N	-0.378302	-1.252388	0.740724
O	-0.597991	-1.147082	1.942514
O	-0.312094	-2.315374	0.125973
C	0.621912	-0.189859	-2.452966
H	0.191564	-0.235278	-3.459293
H	1.159755	-1.124787	-2.273571
H	1.327151	0.641822	-2.419564
N	-1.152697	1.314357	-1.640731
H	-1.47258	1.347808	-2.605786
H	-1.989351	1.146359	-1.044385
F	-2.615433	0.0	0.0
