16

C	0.0	0.0	0.0
C	-0.191205	-0.025274	-1.570109
F	1.363308	0.0	0.0
H	0.296595	0.927227	-1.83081
H	-0.410663	0.858666	0.508928
N	-0.44605	-1.19942	0.762374
O	-0.510484	-1.063444	1.982645
O	-0.576629	-2.270012	0.172426
C	-1.53596	-0.042309	-2.269186
H	-1.328764	0.071055	-3.340926
H	-2.049718	-0.982535	-2.081548
H	-2.188853	0.726791	-1.877787
N	0.628938	-1.074288	-2.207397
H	0.188961	-1.95629	-1.972093
H	1.544408	-1.090509	-1.777438
F	-2.404407	0.0	0.0
