16

C	0.0	0.0	0.0
C	-0.531343	-0.324871	-1.399538
F	1.35098	0.0	0.0
H	-1.30092	-1.082012	-1.259713
H	-0.392258	0.930729	0.391339
N	-0.362444	-1.057135	1.008748
O	-0.323191	-2.229827	0.640362
O	-0.533938	-0.690367	2.167327
C	0.551749	-0.837022	-2.335883
H	1.028628	-1.733607	-1.93377
H	1.311716	-0.074923	-2.520376
H	0.089085	-1.101234	-3.293228
N	-1.135895	0.921159	-1.891197
H	-1.973646	0.918406	-1.273808
H	-1.468333	0.736898	-2.834591
F	-2.634843	0.0	0.0
