16

C	0.0	0.0	0.0
C	-0.479973	0.104895	-1.434538
F	1.359584	0.0	0.0
H	-1.577389	0.07308	-1.292244
H	-0.392105	0.825211	0.578951
N	-0.404318	-1.230304	0.763538
O	-0.509077	-2.303159	0.175116
O	-0.470374	-1.097208	1.983678
C	0.054113	-0.966017	-2.378874
H	-0.243563	-0.709522	-3.401243
H	-0.340134	-1.950784	-2.136255
H	1.150073	-1.01458	-2.350084
N	-0.065497	1.460042	-1.846573
H	-0.723324	1.797239	-2.537365
H	0.848185	1.415852	-2.286814
F	-2.622355	0.0	0.0
