16

C	0.0	0.0	0.0
C	-0.50427	-0.146791	-1.448843
F	1.35975	0.0	0.0
H	-1.289401	-0.893774	-1.406147
H	-0.392874	0.870067	0.512357
N	-0.361326	-1.172196	0.871529
O	-0.463137	-0.954784	2.076356
O	-0.393232	-2.285061	0.351824
C	0.593595	-0.59131	-2.405851
H	0.140386	-0.717185	-3.391626
H	1.030176	-1.542316	-2.088676
H	1.397722	0.146333	-2.489396
N	-1.174942	1.06526	-1.913737
H	-0.593303	1.871559	-1.698081
H	-1.98357	1.053756	-1.268669
F	-2.571802	0.0	0.0
