16

C	0.0	0.0	0.0
C	-0.226772	-0.12452	-1.544128
F	1.364217	0.0	0.0
H	0.591647	0.541926	-1.872662
H	-0.391677	0.919259	0.409404
N	-0.410825	-1.068879	0.952887
O	-0.331414	-2.242233	0.598134
O	-0.601397	-0.702365	2.108904
C	-1.463105	0.396384	-2.24276
H	-2.318198	-0.198152	-1.958699
H	-1.262666	0.361022	-3.328741
H	-1.672392	1.427164	-1.960953
N	0.034484	-1.491733	-2.030822
H	0.407694	-1.402974	-2.972716
H	0.751055	-1.928831	-1.462551
F	-2.374962	0.0	0.0
