16

C	0.0	0.0	0.0
C	-0.433246	-0.279558	-1.45675
F	1.354867	0.0	0.0
H	0.506324	-0.55486	-1.953754
H	-0.396832	0.922464	0.41009
N	-0.342136	-1.058406	1.018279
O	0.004308	-2.207789	0.761832
O	-0.807184	-0.678591	2.089508
C	-0.955653	1.04479	-2.027919
H	-1.140795	0.940473	-3.103025
H	-0.248892	1.873213	-1.886106
H	-1.891782	1.227148	-1.495393
N	-1.369794	-1.38247	-1.605792
H	-2.180929	-1.046397	-1.035178
H	-1.643382	-1.397331	-2.584823
F	-2.739777	0.0	0.0
