13

C	-0.484407	0.008519	-1.406787
C	0.0	0.0	0.0
Br	0.536625	-1.449234	-2.440377
H	1.090995	0.0	0.0
H	-0.297914	-0.946434	0.463985
C	-1.888306	-0.283207	-1.615971
N	-3.032304	-0.543287	-1.715617
N	-0.145199	1.308869	-2.093782
O	-0.696776	1.524795	-3.171869
O	0.710908	2.006389	-1.552032
C	-0.520069	1.107646	0.773121
N	-0.915264	1.981219	1.454654
H	2.49537	0.0	0.0
