13

C	-0.575275	0.14265	-1.338978
C	0.0	0.0	0.0
Br	0.597883	-1.474016	-2.632971
H	1.091164	0.0	0.0
H	-0.246299	0.932884	0.52518
C	-1.914288	-0.256705	-1.617863
N	-3.056491	-0.517971	-1.758728
N	-0.229514	1.38702	-1.963397
O	-0.740248	1.662324	-3.058149
O	0.683783	2.052572	-1.416287
C	-0.496689	-1.157888	0.728946
N	-0.840692	-2.083624	1.361987
H	2.434552	0.0	0.0
