14
Coordinates from ORCA-job run
  C   -0.44267203649206      0.02703930847462      0.00714405090638
  C   0.90077078639135      0.03347924102289      0.01012825980496
  C   -1.33733117022422      1.07741677855954      0.55746559690668
  H   -1.99935351992224      0.63980704305826      1.31026047721440
  H   -0.76663032921884      1.88800616294763      1.00971228915252
  H   -1.95978908668620      1.47339492257815     -0.24841889756918
  N   -1.14999289607186     -1.12309457476487     -0.57957383697784
  O   -0.93887267739206     -2.22288979010988     -0.07960125962036
  O   -1.92848731196998     -0.85412769758441     -1.48828341875431
  N   1.69605153675850     -1.06580311076522     -0.57807935975509
  O   1.32317170759020     -1.50393812539532     -1.65884090212675
  O   2.66673804232896     -1.42227175000328      0.07939917041823
  C   1.66549806657387      1.08133188220159      0.59264697682381
  N   2.27389888833455      1.97064970978029      1.06704085357657
