14
Coordinates from ORCA-job run
  C   -0.42749922992693      0.04993970516515     -0.08109420055826
  C   0.90105793510113     -0.00438692092503      0.11110546992549
  C   -1.30754475247229      1.22791195099749      0.11486844042204
  H   -0.74236324517820      2.10060510829360      0.44122640585998
  H   -2.07512139095100      0.99943221317417      0.86011750797818
  H   -1.81093092783103      1.45656258231817     -0.82750039643856
  N   -1.14947523541908     -1.16289599456802     -0.50414979159479
  O   -1.25281842781074     -2.06369785018442      0.32104582148016
  O   -1.64418294216790     -1.11223301678450     -1.62491332441239
  N   1.67498139421561     -1.25052128230183     -0.06915557484182
  O   2.59879076927739     -1.41238045660983      0.71954221589965
  O   1.32587076916543     -2.00008106050986     -0.97227401908923
  C   1.65662732497290      1.11050241365765      0.57614506747900
  N   2.25460795902472      2.05824260827726      0.93503637789056
