14
Coordinates from ORCA-job run
  C   -0.45780046857736     -0.01299300864736     -0.08413415928669
  C   0.87788916843837     -0.06432578266258     -0.24386796905790
  C   -1.26584879640681      0.15997453712050      1.15273788641775
  H   -1.46815584639020      1.21950240898194      1.32162677535311
  H   -0.74925565783430     -0.23210361458957      2.02473044534132
  H   -2.22145945575404     -0.35335161885305      1.03389584092349
  N   -1.25949211758860     -0.08201506901397     -1.31796741523553
  O   -2.00939873654488      0.87521967837771     -1.49031985296238
  O   -1.13680316092363     -1.06845232397365     -2.03644069114299
  N   1.77915749647659      0.03126857437103      0.92316388330870
  O   1.45021284658885      0.78798845227545      1.83102345716653
  O   2.78175200705230     -0.67465700846502      0.87878969406067
  C   1.55165784362306     -0.23884002617536     -1.48508944584022
  N   2.12754487784066     -0.34821519874606     -2.50614844904585
