14
Coordinates from ORCA-job run
  C   -0.43861664268663      0.01256786617005      0.04097093180852
  C   0.90394185513360      0.04032744476490     -0.00244277935578
  C   -1.33666389230952      1.09608429644295      0.51709927808069
  H   -0.77052339765174      1.97353591129897      0.82784063486177
  H   -1.93002327684425      0.72461078776143      1.35596467793041
  H   -2.02691927251878      1.37770751981621     -0.28380496996847
  N   -1.14705520293094     -1.18388988750341     -0.44532568538528
  O   -0.97534434575345     -1.49353191523838     -1.61992445653242
  O   -1.89321417857696     -1.72202884413643      0.36609055039952
  N   1.69804546674398     -1.10399579715884     -0.49781441763524
  O   2.64199021855630     -0.81463122384750     -1.22359460289969
  O   1.34839084240508     -2.21982905588364     -0.13515469597338
  C   1.66341671970944      1.17890725468671      0.38203895656428
  N   2.26457510672387      2.13416564282697      0.71705657810506
