14
Coordinates from ORCA-job run
  C   -0.43548091678219      0.03672027845171     -0.04719824315041
  C   0.90065253313050      0.01611094143630      0.09010249123239
  C   -1.34431876895804      1.17296647019196      0.26000436432320
  H   -0.79361809292665      2.02584391214749      0.65383506307486
  H   -2.08341406503825      0.85036021545439      0.99889458961272
  H   -1.88014234858120      1.46014927611780     -0.64816803934514
  N   -1.12980156630164     -1.16571424182205     -0.53244515271574
  O   -1.08921356115187     -2.15755238728781      0.18688571913804
  O   -1.73571927553092     -1.03289756246635     -1.58921894724991
  N   1.70920925845675     -1.17676347993662     -0.24134785949642
  O   1.37866394942278     -1.81408225625586     -1.23305369412767
  O   2.64322073189997     -1.40701053992349      0.51767285102362
  C   1.63840865348549      1.12419498100970      0.59037652689226
  N   2.21755346887527      2.06667439288282      0.99266033078819
