14
Coordinates from ORCA-job run
  C   -0.45662311311192      0.01866382461320     -0.00420995937143
  C   0.84159617678153      0.02865576801595     -0.35477421876063
  C   -1.10225664371239     -0.05785745420431      1.33095436747447
  H   -1.90304543664800     -0.79953809801957      1.29155169173668
  H   -1.54106904943451      0.91515539052514      1.57382053791618
  H   -0.39350217799089     -0.31193001566128      2.11397517897196
  N   -1.41430015907976      0.08945487366937     -1.12419116756934
  O   -1.50587721597192      1.16553994540814     -1.70780537419639
  O   -2.05030161739563     -0.93594654960104     -1.34480764464511
  N   1.90776446136039     -0.07177237329622      0.66404208448024
  O   1.74615534000991      0.54421539375152      1.71237480698611
  O   2.86988575193170     -0.76719664003369      0.35757592259208
  C   1.30955395303836      0.06831530986281     -1.69822519161573
  N   1.69301973022313      0.11524062496997     -2.81028103399909
