14
Coordinates from ORCA-job run
  C   -0.46539470481657      0.03920827673338     -0.16259625812277
  C   0.88107540561404     -0.02152591393342     -0.21949291939871
  C   -1.32185104911565     -0.13888502154102      1.03949669433483
  H   -2.00401832567455     -0.97726522655781      0.87944039920064
  H   -0.73189257084417     -0.33611677100084      1.93052502713297
  H   -1.93422173965192      0.75250244249474      1.18353332256285
  N   -1.20394479792856      0.34651951226184     -1.41159106093414
  O   -0.58772482634447      0.32725737783333     -2.47332093092423
  O   -2.40274810816163      0.58756148024224     -1.27686533295300
  N   1.63062208292548     -0.30350476223366      1.03166437479203
  O   1.39920575035176     -1.36419971462069      1.59956531805000
  O   2.42953796594119      0.56347537992011      1.36650515417361
  C   1.74801634885921      0.18839190921317     -1.32467159084173
  N   2.56333856884584      0.33558103118864     -2.16319219707237
