14
Coordinates from ORCA-job run
  C   -0.43056389447189      0.01715369075740     -0.03686913090598
  C   0.90973191895144     -0.01481356001423      0.07724686819590
  C   -1.32186168844092      1.12305868616050      0.40212609484138
  H   -1.87673562821661      1.49931613220191     -0.46206990908694
  H   -2.04588927785162      0.73275850653389      1.12330997101930
  H   -0.76092956826018      1.93830805792462      0.85681794600654
  N   -1.17590311946455     -1.10003806286574     -0.63774712214323
  O   -1.54167982799422     -1.97600588610128      0.13523132169128
  O   -1.43363105561357     -0.98690112219018     -1.82877628094781
  N   1.74558786784394     -1.15068937025170     -0.37364981336123
  O   1.18198165431076     -2.06432188107238     -0.96091465918123
  O   2.94081788080863     -1.06689038390828     -0.11256788844876
  C   1.63273106123193      1.06430668155222      0.66328512624559
  N   2.17734367716687      1.98475851127327      1.15457747607519
