14
Coordinates from ORCA-job run
  C   -0.43678447566117      0.04762708862440     -0.04244686037379
  C   0.90169539655407      0.00905752388587      0.05924495731330
  C   -1.32625887184694      1.16612849668016      0.36567176037589
  H   -1.91690009929019      1.48992453557099     -0.49450876393933
  H   -0.75597678247338      2.00875751386206      0.75655595781736
  H   -2.01636242771627      0.81442262750449      1.13953906419220
  N   -1.15241326043336     -1.12082024070721     -0.57883195598724
  O   -1.80301676631025     -0.91940363047478     -1.59771552210260
  O   -1.08721614317294     -2.15928061547411      0.06985377169633
  N   1.68810737780007     -1.16502107224519     -0.37266133509962
  O   2.60870129854676     -1.48550354516766      0.36791454697818
  O   1.35819112185251     -1.69401023669177     -1.42727481474846
  C   1.66079739898379      1.06734225216785      0.63074660403230
  N   2.27743623316730      1.93877930246489      1.12491258984547
