14
Coordinates from ORCA-job run
  C   -0.46355050655367      0.00909756534725     -0.12398349795947
  C   0.87481579913128      0.00198496756117     -0.25352698680193
  C   -1.25855219906437     -0.17633809785841      1.11697889652967
  H   -1.84638366803372     -1.09656645934501      1.03889346865245
  H   -0.62902298310580     -0.24775477008044      1.99954745721350
  H   -1.94671196016672      0.66169668584987      1.23092040867017
  N   -1.25361141432960      0.26755016471730     -1.34437462579034
  O   -0.90508113462613     -0.29903561086588     -2.37675956040162
  O   -2.20327378806158      1.03672736915370     -1.21787575616197
  N   1.69987518178027     -0.22520419070766      0.95292969860128
  O   1.55736279990581     -1.30371925358693      1.52135033865394
  O   2.44715472427326      0.69375331434337      1.27145839309231
  C   1.62783841650157      0.24444104381685     -1.43305338483624
  N   2.29814073234941      0.43436727165484     -2.38250484946175
