14
Coordinates from ORCA-job run
  C   -0.43932355579820      0.03630855118562     -0.02121804538890
  C   0.90160270800458      0.01073686325129      0.05899961122573
  C   -1.33604904899635      1.12690056239074      0.44172109306324
  H   -0.77154385905204      1.93916150246817      0.89879670127858
  H   -1.90129399412027      1.50907796078470     -0.41210131166346
  H   -2.04994848931820      0.72983143537708      1.16939060352788
  N   -1.14747857533825     -1.11185646861052     -0.61158786820507
  O   -1.04999241447351     -2.18545362659141     -0.02748733391716
  O   -1.81731755132806     -0.86118517373673     -1.60731006567160
  N   1.70255988900876     -1.12910364278427     -0.43802201152877
  O   2.66773936257887     -1.43304928178625      0.25394777472201
  O   1.34007013045276     -1.65039538547791     -1.48466593136845
  C   1.65463133312615      1.06225260709513      0.65055495024863
  N   2.24734406525375      1.95977409643437      1.12898183367735
