14
Coordinates from ORCA-job run
  C   -0.43825028168808      0.03193660071970     -0.01301659065360
  C   0.90450603192705      0.02071930120593      0.03781860880268
  C   -1.33679243527449      1.11597487486208      0.46085166211560
  H   -1.93122423862813      1.48103032292946     -0.38046768907056
  H   -0.77284934261808      1.93999789799944      0.89665631123051
  H   -2.02529916994098      0.71542604271598      1.21089078652013
  N   -1.14990699519892     -1.12613577939121     -0.57696336032505
  O   -1.09780513088913     -2.17216513114786      0.05974827962207
  O   -1.77668702049786     -0.90580972376167     -1.60703313237858
  N   1.70349758522671     -1.11998988327444     -0.45745300353068
  O   2.70381837875842     -1.38851423980673      0.19795496484353
  O   1.30398494709728     -1.68076156323525     -1.47036609635213
  C   1.65953731075318      1.08929085548995      0.59659706757719
  N   2.25247036097304      2.00100042469463      1.04678219159892
