14
Coordinates from ORCA-job run
  C   -0.43820434740409      0.03850904439479     -0.02739477097763
  C   0.90175345458583      0.01095680989917      0.06533561742648
  C   -1.33574981179141      1.14456585894185      0.39359739107620
  H   -2.06231821481024      0.76985223694353      1.12054586456634
  H   -0.77384453570269      1.96552133193056      0.83784202654551
  H   -1.88829471777163      1.50749520419513     -0.47647380340471
  N   -1.14615747044066     -1.12732304397831     -0.58087538809938
  O   -1.07090670029487     -2.17475228229010      0.05186937530572
  O   -1.79604648192513     -0.91272243373171     -1.59784463967172
  N   1.70027711637138     -1.14922814076787     -0.38599535576698
  O   1.34180018432796     -1.70391632168313     -1.41691029868439
  O   2.65733623914425     -1.43725037117830      0.32340400769942
  C   1.65675941176880      1.07971024842049      0.62262468484652
  N   2.25559587394250      1.98958185890391      1.06927528913862
