14
Coordinates from ORCA-job run
  C   -0.43951400440077      0.04021251103880     -0.02173220731667
  C   0.90131171225860      0.00512417187744      0.05738569658477
  C   -1.32565237411168      1.15310031035721      0.40576719557121
  H   -2.04684458155819      0.78619141622724      1.14200452081583
  H   -0.75331418137257      1.97155276928586      0.84148616003554
  H   -1.88430187822355      1.51753524849881     -0.45981122751387
  N   -1.15846438262160     -1.12221215558016     -0.56799428517689
  O   -1.06892267240723     -2.17457572656376      0.05477533860571
  O   -1.82697842973694     -0.90195533994730     -1.57172375282748
  N   1.68912606508159     -1.15832859462156     -0.40388912274486
  O   1.32325987949935     -1.70295646083259     -1.43761936659299
  O   2.64739494629295     -1.45727524568763      0.29932086210274
  C   1.66771307665391      1.06897023243737      0.60838190737125
  N   2.27618682464614      1.97361686351030      1.05264828108573
