18

C	-0.598415	0.05917	-1.398472
C	0.0	0.0	0.0
F	0.055795	0.950815	-2.203527
H	1.104814	0.0	0.0
N	-0.310349	-1.307249	-2.036753
O	-1.241973	-2.097513	-2.159618
O	0.843047	-1.501081	-2.398658
C	-2.081486	0.325304	-1.461521
H	-2.255142	1.331723	-1.084851
H	-2.617783	-0.407425	-0.861027
H	-2.430356	0.256203	-2.493593
N	-0.304277	-1.248077	0.643971
H	0.560666	-1.55203	1.089531
H	-0.980765	-1.095465	1.381378
N	-0.362143	1.155339	0.779036
O	-0.409251	1.026518	2.020925
O	-0.44953	2.256991	0.199301
H	2.40088	0.0	0.0
