18

C	-0.418126	0.045821	-1.461459
C	0.0	0.0	0.0
F	-0.029	-1.151825	-2.006901
H	1.097724	0.0	0.0
N	-1.952546	0.021761	-1.529361
O	-2.523731	1.101809	-1.411687
O	-2.507782	-1.070249	-1.640935
C	0.121544	1.143566	-2.331349
H	-0.091079	0.886284	-3.371407
H	1.197683	1.178287	-2.164932
H	-0.313647	2.100676	-2.076991
N	-0.465165	-1.173527	0.670451
H	0.345434	-1.656181	1.042072
H	-0.960435	-1.797348	0.045569
N	-0.378083	1.23605	0.749001
O	-0.120857	2.314129	0.201507
O	-0.761302	1.130078	1.911515
H	2.585212	0.0	0.0
