18

C	-0.578732	-0.011407	-1.41216
C	0.0	0.0	0.0
F	0.178892	0.72397	-2.280683
H	1.091193	0.0	0.0
N	-0.435457	-1.457039	-1.901256
O	0.687697	-1.804013	-2.237547
O	-1.443326	-2.157894	-1.929626
C	-2.020834	0.41012	-1.548116
H	-2.351537	0.266373	-2.578256
H	-2.654073	-0.182885	-0.890373
H	-2.086344	1.46524	-1.291403
N	-0.34075	-1.183669	0.730393
H	-1.08734	-0.989573	1.385885
H	0.485185	-1.427367	1.27199
N	-0.34835	1.229433	0.684181
O	-0.520894	1.188472	1.917763
O	-0.29471	2.287503	0.030774
H	2.444382	0.0	0.0
