13

C	-0.422438	-0.221023	-1.421531
C	0.0	0.0	0.0
F	-0.05151	-1.440712	-1.889999
H	1.093995	0.0	0.0
H	-0.030344	0.553727	-2.084397
H	-0.349756	0.995976	0.292164
N	-1.930268	-0.137335	-1.570619
O	-2.574395	-1.152197	-1.804442
O	-2.407542	0.987071	-1.4086
N	-0.532713	-1.065163	0.858392
H	0.270249	-1.529971	1.263296
H	-1.066638	-0.669475	1.619963
F	2.666082	0.0	0.0
