13

C	-0.478613	-0.163202	-1.402915
C	0.0	0.0	0.0
F	-1.857072	-0.21515	-1.513091
H	1.091293	0.0	0.0
H	-0.057543	-1.047041	-1.879056
H	-0.394067	0.944479	0.397362
N	-0.041821	1.014354	-2.236433
O	-0.684999	2.054798	-2.106818
O	0.937973	0.863488	-2.961569
N	-0.40996	-1.191717	0.755805
H	-1.206367	-0.997435	1.347155
H	0.377498	-1.434101	1.344405
F	2.647021	0.0	0.0
