17

C	-0.235889	-0.04194	-1.486503
C	0.0	0.0	0.0
Cl	-2.053333	-0.810733	-1.807253
H	1.09579	0.0	0.0
H	-0.333891	-0.950423	0.425287
N	-0.201628	1.221644	-2.092874
H	-0.343314	1.159603	-3.091218
H	-0.875818	1.855453	-1.687663
C	0.736969	-0.996277	-2.140571
H	0.6791	-0.952296	-3.232004
H	0.536495	-2.017894	-1.817242
H	1.721428	-0.693406	-1.753115
C	-0.607664	1.178863	0.733706
H	-0.124359	2.109892	0.424941
H	-1.690505	1.264103	0.575597
H	-0.434646	1.075375	1.808062
F	2.736991	0.0	0.0
