17

C	-0.276205	0.018049	-1.475832
C	0.0	0.0	0.0
Cl	-2.101026	0.325975	-1.846621
H	1.098351	0.0	0.0
H	-0.339973	0.954423	0.417661
N	0.46953	1.144161	-2.010206
H	1.43463	1.01475	-1.650173
H	0.470509	1.110908	-3.036207
C	0.073557	-1.3027	-2.143612
H	-0.546853	-2.123873	-1.769888
H	1.130106	-1.490223	-1.899194
H	-0.06279	-1.229596	-3.232842
C	-0.536433	-1.174186	0.803694
H	-0.285597	-1.031259	1.859852
H	-1.624565	-1.279848	0.721774
H	-0.069667	-2.114886	0.497459
F	2.739594	0.0	0.0
