15

C	0.0	0.0	0.0
C	-0.191915	-0.108489	-1.576567
F	1.374127	0.0	0.0
H	0.584911	-0.851691	-1.794964
C	-0.462457	1.243678	0.619743
N	-0.579307	2.30416	1.113462
C	-0.455745	-1.21507	0.684936
N	-0.544811	-2.261055	1.215016
C	0.299384	1.152645	-2.146473
N	0.689894	2.143256	-2.642344
C	-1.442528	-0.572872	-2.316641
H	-1.835991	-1.48144	-1.868731
H	-2.231666	0.168558	-2.300555
H	-1.122478	-0.772143	-3.347746
Cl	-3.174415	0.0	0.0
