15

C	0.0	0.0	0.0
C	-0.181884	0.322698	-1.547414
F	1.376005	0.0	0.0
H	0.54274	-0.387192	-1.964812
C	-0.463157	1.035322	0.925398
N	-0.587347	1.920999	1.688801
C	-0.462242	-1.350384	0.33675
N	-0.561423	-2.498199	0.571801
C	0.398441	1.65517	-1.761149
N	0.839307	2.720133	-1.986118
C	-1.457608	0.181989	-2.368703
H	-1.918494	-0.786944	-2.201523
H	-2.193181	0.935979	-2.11775
H	-1.154051	0.275553	-3.418734
Cl	-3.205157	0.0	0.0
