15

C	0.0	0.0	0.0
C	-0.356616	-0.086956	-1.528718
F	1.372402	0.0	0.0
H	0.622869	0.098875	-1.988188
C	-0.416149	1.26313	0.628077
N	-0.47938	2.329181	1.117709
C	-0.423983	-1.172717	0.781996
N	-0.474491	-2.172998	1.398267
C	-1.194502	0.998844	-2.039338
N	-1.655672	1.893055	-2.648003
C	-0.825885	-1.465939	-1.98565
H	-0.920364	-1.470301	-3.073964
H	-0.09251	-2.221601	-1.69683
H	-1.789635	-1.692387	-1.535741
Cl	-2.986557	0.0	0.0
