15

C	0.0	0.0	0.0
C	-0.492842	-0.115345	-1.449488
F	1.373435	0.0	0.0
H	-1.578723	-0.281527	-1.368063
C	-0.417682	1.272299	0.620395
N	-0.513099	2.32998	1.12003
C	-0.433324	-1.123373	0.851395
N	-0.584377	-2.043972	1.564621
C	0.158869	-1.263233	-2.078225
N	0.675018	-2.162079	-2.631604
C	-0.211506	1.170907	-2.230526
H	0.841594	1.455863	-2.161323
H	-0.834046	1.975071	-1.834524
H	-0.466245	1.026025	-3.281985
Cl	-3.283672	0.0	0.0
