16

C	-0.25607	-0.031039	-1.526459
C	0.0	0.0	0.0
Br	0.146421	1.887755	-2.137793
H	1.090606	0.0	0.0
N	0.679324	-0.835243	-2.240801
H	0.476104	-1.791919	-1.967329
H	1.594259	-0.614156	-1.83006
N	-1.585426	-0.399329	-1.824876
H	-1.739846	-0.369746	-2.825026
H	-2.240551	0.217055	-1.357885
N	-0.44139	-1.296845	0.59702
O	-1.194031	-1.274912	1.57239
O	0.002543	-2.327515	0.095753
C	-0.626367	1.089111	0.713495
N	-1.127953	1.97673	1.300052
F	2.504642	0.0	0.0
