16

C	-0.213621	-0.083527	-1.526648
C	0.0	0.0	0.0
Br	-0.212863	1.918936	-2.197327
H	1.106978	0.0	0.0
N	0.881115	-0.768165	-2.036571
H	1.752382	-0.530324	-1.528347
H	0.95277	-0.736102	-3.042689
N	-1.524995	-0.525453	-1.94224
H	-1.513456	-1.537135	-1.878503
H	-1.693292	-0.247942	-2.900708
N	-0.390174	-1.272898	0.689332
O	-0.574928	-2.288616	0.021011
O	-0.441383	-1.23093	1.914693
C	-0.627233	1.098215	0.69672
N	-1.137837	1.967526	1.300802
F	2.551925	0.0	0.0
