16

C	-0.223135	-0.140489	-1.518632
C	0.0	0.0	0.0
Br	-0.204962	1.827695	-2.269292
H	1.108029	0.0	0.0
N	0.862395	-0.859198	-2.005418
H	0.925245	-0.874186	-3.012697
H	1.74007	-0.603143	-1.518013
N	-1.540813	-0.5836	-1.909828
H	-1.552033	-1.589843	-1.775379
H	-1.700108	-0.369177	-2.886223
N	-0.394418	-1.240193	0.743402
O	-0.608956	-2.278401	0.118459
O	-0.42055	-1.153036	1.968749
C	-0.602504	1.133157	0.661801
N	-1.057989	2.044759	1.247385
F	2.543564	0.0	0.0
