16

C	-0.541436	0.143927	-1.418615
C	0.0	0.0	0.0
Br	0.391498	-1.260512	-2.558127
H	1.089266	0.0	0.0
N	-1.957853	0.02823	-1.493876
H	-2.243352	-0.849337	-1.078752
H	-2.249378	0.044714	-2.464219
N	-0.093571	1.418282	-1.925822
H	0.285654	1.34219	-2.857774
H	-0.867589	2.068278	-1.886753
N	-0.408418	-1.227772	0.730424
O	-1.100007	-2.081009	0.158297
O	0.019327	-1.343289	1.874997
C	-0.417316	1.140658	0.796019
N	-0.740035	2.073563	1.435567
F	2.443341	0.0	0.0
