19

C	0.0	0.0	0.0
C	-0.130303	0.054362	-1.576197
Br	2.102327	0.0	0.0
H	0.558219	-0.684775	-1.981943
N	-0.606631	0.991908	0.774603
H	-1.629921	0.734584	0.707001
H	-0.484437	1.896267	0.33904
C	-0.442252	-1.367708	0.471134
H	-1.537774	-1.337273	0.402824
H	-0.019584	-2.168063	-0.139478
H	-0.136518	-1.502806	1.509947
N	0.399167	1.339884	-2.135963
O	1.186742	1.263318	-3.078893
O	-0.028227	2.40216	-1.681277
C	-1.513302	-0.145123	-2.186748
H	-1.740293	-1.213199	-2.178565
H	-2.294752	0.321056	-1.582358
H	-1.486562	0.190021	-3.228578
F	-3.014233	0.0	0.0
