19

C	0.0	0.0	0.0
C	-0.190389	-0.000609	-1.575301
Br	1.992827	0.0	0.0
H	0.427307	-0.809141	-1.968305
N	-0.610125	1.031751	0.746872
H	-0.457003	1.918853	0.281875
H	-1.632993	0.788995	0.654281
C	-0.478399	-1.340421	0.526928
H	-0.164541	-1.442015	1.567699
H	-1.573909	-1.285996	0.466273
H	-0.077147	-2.1736	-0.055172
N	0.422897	1.217607	-2.205453
O	1.183156	1.042776	-3.158245
O	0.085358	2.32636	-1.788255
C	-1.585736	-0.105778	-2.168098
H	-2.276659	0.608922	-1.732554
H	-1.490301	-0.015479	-3.257135
H	-2.010204	-1.077929	-1.927316
F	-3.011839	0.0	0.0
