19

C	0.0	0.0	0.0
C	-0.29884	-0.062735	-1.553082
Br	1.993252	0.0	0.0
H	0.48176	0.520602	-2.045667
N	-0.504226	1.133045	0.689629
H	-1.535042	0.908954	0.649305
H	-0.365968	1.960391	0.119843
C	-0.42824	-1.247791	0.756441
H	-1.520807	-1.253699	0.67364
H	0.027798	-2.158085	0.368049
H	-0.127479	-1.11513	1.797218
N	-1.527373	0.69801	-2.014852
O	-1.499668	1.915884	-1.835786
O	-2.366035	0.116932	-2.689035
C	-0.339948	-1.466585	-2.115368
H	-0.419362	-1.440183	-3.203472
H	0.574253	-1.996461	-1.842967
H	-1.210121	-1.987296	-1.719325
F	-2.752597	0.0	0.0
