19

C	0.0	0.0	0.0
C	-0.19427	0.021923	-1.56875
Br	1.992938	0.0	0.0
H	0.382679	-0.813224	-1.970201
N	-0.597099	1.030369	0.761089
H	-0.41579	1.924444	0.322316
H	-1.621556	0.804529	0.656722
C	-0.483512	-1.33913	0.521873
H	-0.160832	-1.447487	1.559709
H	-1.57876	-1.273861	0.466684
H	-0.09103	-2.171849	-0.067218
N	0.477174	1.214011	-2.190774
O	1.211521	1.011952	-3.158662
O	0.207131	2.333064	-1.753412
C	-1.590982	-0.003974	-2.174762
H	-2.240349	0.752911	-1.74792
H	-1.466062	0.102647	-3.258504
H	-2.076846	-0.948286	-1.951647
F	-2.991371	0.0	0.0
