15

C	0.0	0.0	0.0
C	-0.522371	0.102979	-1.454671
Cl	1.793555	0.0	0.0
H	-1.608756	0.262879	-1.319307
C	-0.405908	1.167695	0.793102
N	-0.567368	2.14515	1.425732
C	-0.425716	-1.252719	0.632585
N	-0.586641	-2.310292	1.118938
C	-0.299882	-1.179408	-2.251995
H	0.753007	-1.468008	-2.275719
H	-0.644694	-1.027352	-3.276118
H	-0.892999	-1.980475	-1.809085
C	0.067924	1.262944	-2.113566
N	0.521244	2.179902	-2.692337
Cl	-3.298349	0.0	0.0
