15

C	0.0	0.0	0.0
C	-0.228374	-0.139744	-1.578603
Cl	1.793765	0.0	0.0
H	0.486354	0.590163	-1.971047
C	-0.471295	1.294506	0.480691
N	-0.679354	2.39522	0.836428
C	-0.483576	-1.134706	0.774645
N	-0.69907	-2.114476	1.387403
C	-1.55359	0.141847	-2.276948
H	-2.293453	-0.628596	-2.100697
H	-1.312843	0.213281	-3.345314
H	-1.982566	1.078561	-1.929848
C	0.268767	-1.460672	-1.980622
N	0.637578	-2.511619	-2.354666
Cl	-3.460319	0.0	0.0
