15

C	0.0	0.0	0.0
C	-0.525562	-0.087288	-1.453613
Cl	1.789769	0.0	0.0
H	-1.611154	0.094662	-1.33843
C	-0.410544	1.258848	0.633848
N	-0.577725	2.310528	1.131061
C	-0.423955	-1.158389	0.794599
N	-0.57666	-2.135036	1.430682
C	-0.31241	-1.465546	-2.073956
H	0.739224	-1.762802	-2.057348
H	-0.654864	-1.448223	-3.110043
H	-0.912455	-2.196784	-1.529195
C	0.070348	0.970462	-2.26268
N	0.53029	1.793806	-2.964079
Cl	-3.298828	0.0	0.0
