15

C	0.0	0.0	0.0
C	-0.535486	-0.444262	-1.384185
Cl	1.789674	0.0	0.0
H	-0.142955	0.283896	-2.104236
C	-0.437881	1.36994	0.279693
N	-0.728815	2.492816	0.467458
C	-0.44217	-0.917346	1.053536
N	-0.737715	-1.696358	1.882315
C	-2.065695	-0.461827	-1.40649
H	-2.485673	-1.177192	-0.700482
H	-2.495627	0.504258	-1.143217
H	-2.410717	-0.727126	-2.407248
C	0.025043	-1.754142	-1.725125
N	0.443002	-2.810275	-2.024652
Cl	-4.99306	0.0	0.0
