17

C	0.0	0.0	0.0
C	-0.484919	-0.717047	-1.284103
Br	1.97289	0.0	0.0
H	0.374381	-1.226945	-1.734387
H	-0.219286	-0.63097	0.861855
C	-0.578253	1.37315	0.220138
H	-1.66726	1.272418	0.263413
H	-0.319777	2.050382	-0.592854
H	-0.246764	1.790143	1.17125
N	-0.94588	0.264371	-2.268049
H	-1.039815	-0.214316	-3.158827
H	-1.894943	0.545649	-2.009073
C	-1.533243	-1.776851	-0.93961
H	-1.840731	-2.288865	-1.857687
H	-1.117146	-2.515756	-0.247175
H	-2.422007	-1.324858	-0.50072
Cl	-4.416156	0.0	0.0
