17

C	0.0	0.0	0.0
C	-0.567697	0.110955	-1.412398
Br	1.957508	0.0	0.0
H	-1.651081	0.195057	-1.243761
H	-0.266756	-0.985209	0.391122
C	-0.525165	1.067148	0.941134
H	-0.209943	0.863282	1.966532
H	-0.161105	2.05828	0.662786
H	-1.618484	1.041376	0.889626
N	-0.234348	-1.102507	-2.174633
H	-0.7654	-1.868824	-1.770155
H	-0.603378	-0.985152	-3.113589
C	-0.090766	1.327522	-2.187508
H	-0.644392	1.400117	-3.128899
H	0.973945	1.245687	-2.415633
H	-0.271208	2.250386	-1.633502
Cl	-3.931442	0.0	0.0
