13

C	0.0	0.0	0.0
C	-0.497982	-0.02458	-1.46115
Br	1.937524	0.0	0.0
H	-1.640409	-0.043766	-1.200536
H	-0.362288	0.918179	0.466295
N	-0.382508	-1.259215	0.643567
H	0.118281	-1.316706	1.522601
H	-1.391012	-1.147789	0.79966
C	-0.066587	-1.202554	-2.186021
N	0.226019	-2.135212	-2.839148
C	-0.153269	1.194591	-2.165357
N	0.078986	2.232075	-2.665495
H	-2.681427	0.0	0.0
