16

C	0.0	0.0	0.0
C	-0.571266	-0.228884	-1.39271
Br	1.958807	0.0	0.0
H	-1.644934	-0.368941	-1.207832
H	-0.279454	0.999609	0.34018
C	-0.49536	-1.044703	0.978904
H	-0.088584	-0.871515	1.977448
H	-0.203308	-2.036468	0.632635
H	-1.587138	-0.976608	1.011726
N	-0.055399	-1.448471	-1.979077
H	0.840022	-1.239744	-2.408754
H	-0.691929	-1.768043	-2.698926
N	-0.313486	0.937757	-2.250265
H	-0.86012	0.805943	-3.096895
H	-0.718021	1.752327	-1.795176
Br	-4.027508	0.0	0.0
