16

C	0.0	0.0	0.0
C	-0.561733	0.223853	-1.399987
Br	1.958503	0.0	0.0
H	-1.631709	0.418183	-1.230452
H	-0.255998	0.88178	0.587125
C	-0.528637	-1.258321	0.653182
H	-0.203412	-1.3238	1.694221
H	-0.173405	-2.144047	0.122764
H	-1.623297	-1.212755	0.623899
N	-0.354322	-0.971093	-2.235345
H	-1.049762	-1.66222	-1.970353
H	-0.580155	-0.707119	-3.188319
N	0.009289	1.414594	-1.99493
H	-0.560668	1.695127	-2.784335
H	0.942501	1.199916	-2.32919
Br	-4.077903	0.0	0.0
