16

C	0.0	0.0	0.0
C	-0.414794	-0.253624	-1.467556
Br	1.970149	0.0	0.0
H	0.165334	0.466328	-2.069902
H	-0.260679	1.029696	0.256486
C	-0.568515	-0.971107	1.007228
H	-0.283039	-1.99191	0.760494
H	-0.233913	-0.726205	2.017332
H	-1.660212	-0.888804	0.977144
N	-1.800198	-0.017825	-1.771625
H	-2.041336	0.958773	-1.664829
H	-2.451473	-0.516282	-1.169852
N	-0.130656	-1.641181	-1.816048
H	-0.56712	-1.803679	-2.715753
H	0.868312	-1.782146	-1.905138
Br	-4.653229	0.0	0.0
