19

C	-0.34722	-0.012579	-1.488659
C	0.0	0.0	0.0
Cl	-2.166102	-0.1775	-1.722479
H	1.09224	0.0	0.0
C	0.110677	1.23932	-2.211062
H	1.173178	1.378081	-1.985347
H	-0.432962	2.123551	-1.883312
H	-0.03174	1.114882	-3.287971
C	0.313411	-1.237903	-2.095
H	1.385371	-1.17356	-1.867447
H	-0.085704	-2.15777	-1.665522
H	0.153358	-1.258113	-3.175886
N	-0.417288	-1.118952	0.775399
H	0.334988	-1.793703	0.802806
H	-1.282965	-1.531192	0.457671
N	-0.505612	1.258478	0.634624
O	-1.537975	1.205116	1.305392
O	0.140053	2.290401	0.431643
H	2.746674	0.0	0.0
