19

C	-0.482899	-0.03995	-1.461256
C	0.0	0.0	0.0
Cl	-0.041682	1.525561	-2.255239
H	1.09065	0.0	0.0
C	0.311959	-1.134535	-2.161041
H	0.008436	-2.113078	-1.777693
H	1.377603	-0.991035	-1.956622
H	0.123277	-1.107614	-3.237373
C	-1.984099	-0.206846	-1.650441
H	-2.536062	0.616696	-1.199461
H	-2.328334	-1.141829	-1.197621
H	-2.211015	-0.247753	-2.718977
N	-0.350917	-1.150465	0.781111
H	-1.18437	-1.635268	0.486587
H	0.45213	-1.766798	0.815031
N	-0.560424	1.210458	0.690551
O	-1.740638	1.14513	1.053409
O	0.16361	2.187084	0.854228
H	2.815154	0.0	0.0
