19

C	-0.345191	0.003234	-1.488556
C	0.0	0.0	0.0
Cl	-2.167496	-0.136248	-1.722916
H	1.10183	0.0	0.0
C	0.130281	1.251257	-2.206233
H	1.193839	1.376066	-1.977109
H	-0.010046	1.130391	-3.283937
H	-0.402552	2.141592	-1.878015
C	0.298169	-1.227517	-2.103505
H	0.142203	-1.236061	-3.184969
H	-0.116271	-2.144827	-1.684242
H	1.37034	-1.181632	-1.873333
N	-0.416202	-1.129244	0.76093
H	0.334149	-1.807022	0.775022
H	-1.284433	-1.534856	0.440961
N	-0.50096	1.250704	0.653574
O	-1.507908	1.185639	1.360173
O	0.127701	2.289587	0.434488
H	2.731406	0.0	0.0
