19

C	-0.407962	-0.04011	-1.46479
C	0.0	0.0	0.0
Cl	-2.24559	-0.020464	-1.590264
H	1.098944	0.0	0.0
C	0.134905	1.11237	-2.288086
H	-0.31885	2.062994	-2.019627
H	-0.046999	0.91519	-3.348419
H	1.211656	1.173875	-2.097042
C	0.083492	-1.36069	-2.03119
H	1.167425	-1.397795	-1.87357
H	-0.141252	-1.417837	-3.099556
H	-0.371885	-2.19658	-1.506112
N	-0.444057	-1.138632	0.735942
H	-1.369618	-0.971971	1.112074
H	0.195038	-1.265543	1.512017
N	-0.404751	1.288178	0.663
O	-1.157224	1.235735	1.644899
O	0.089046	2.333679	0.236321
H	2.685731	0.0	0.0
