14

C	0.0	0.0	0.0
C	-0.372332	-0.157864	-1.524761
Cl	1.866109	0.0	0.0
H	0.539656	-0.376831	-2.084732
H	-0.274643	0.9886	0.361123
N	-0.512973	-0.984542	0.868986
H	-1.455625	-0.696599	1.129715
H	-0.604666	-1.855675	0.357649
C	-0.846868	1.140073	-2.057221
N	-1.16006	2.143056	-2.584055
N	-1.274565	-1.279759	-1.715486
H	-2.17823	-1.038674	-1.293593
H	-1.421183	-1.415456	-2.709714
Br	-3.811013	0.0	0.0
