14

C	0.0	0.0	0.0
C	-0.492752	-0.459418	-1.380839
Cl	1.784641	0.0	0.0
H	-1.579878	-0.57176	-1.270381
H	-0.297997	1.049079	0.115376
N	-0.481683	-0.897787	1.008301
H	-1.503199	-0.877364	0.935427
H	-0.234756	-0.538735	1.923562
C	0.071875	-1.771017	-1.725511
N	0.506542	-2.816359	-2.035247
N	-0.255014	0.48358	-2.464261
H	-0.93677	1.227757	-2.380424
H	0.6732	0.880282	-2.378736
Br	-3.680457	0.0	0.0
