14

C	0.0	0.0	0.0
C	-0.312602	0.070356	-1.529912
Cl	1.833481	0.0	0.0
H	0.636663	0.346853	-2.027111
H	-0.334228	0.877767	0.549063
N	-0.411365	-1.207357	0.607104
H	-0.389799	-1.12653	1.612926
H	0.179256	-1.977249	0.315472
C	-1.223036	1.12108	-2.026145
N	-1.888172	1.939103	-2.539091
N	-0.645514	-1.302441	-1.951303
H	-1.563468	-1.509959	-1.570633
H	-0.676959	-1.366382	-2.961121
Br	-3.409851	0.0	0.0
