14

C	0.0	0.0	0.0
C	-0.509037	-0.038874	-1.444182
Cl	1.838444	0.0	0.0
H	-1.604456	-0.091461	-1.312663
H	-0.309219	0.94257	0.449985
N	-0.504817	-1.084362	0.730805
H	-0.102855	-1.97368	0.475948
H	-0.535878	-0.945572	1.726656
C	-0.066346	-1.284132	-2.085197
N	0.273052	-2.298822	-2.568435
N	-0.177448	1.10696	-2.272705
H	0.785422	1.38146	-2.117353
H	-0.786594	1.870597	-2.007586
Br	-3.807012	0.0	0.0
