14

C	0.0	0.0	0.0
C	-0.497966	-0.22439	-1.423848
Cl	1.839281	0.0	0.0
H	-1.594109	-0.136525	-1.330178
H	-0.292299	1.007025	0.290004
N	-0.529408	-0.957367	0.871607
H	-0.618827	-0.662431	1.827877
H	-0.125415	-1.875692	0.780916
C	-0.172111	-1.600844	-1.848004
N	0.13474	-2.674877	-2.212451
N	-0.00042	0.801425	-2.326684
H	-0.561434	0.808528	-3.168423
H	0.96062	0.609752	-2.582073
Br	-3.92063	0.0	0.0
