14

C	0.0	0.0	0.0
C	-0.315236	-0.285161	-1.515228
Cl	1.790809	0.0	0.0
H	0.30847	-1.150059	-1.776918
H	-0.326929	1.006407	0.265724
N	-0.558176	-0.92533	0.927113
H	-0.441513	-1.87641	0.594521
H	-1.557219	-0.726969	1.002847
C	0.173799	0.842647	-2.328491
N	0.511978	1.751694	-2.989785
N	-1.667576	-0.584763	-1.90769
H	-2.33606	0.100056	-1.561421
H	-1.969841	-1.452863	-1.483358
Br	-4.217662	0.0	0.0
