14

C	0.0	0.0	0.0
C	-0.347294	-0.603997	-1.408061
Cl	1.784298	0.0	0.0
H	0.405279	-1.381637	-1.573011
H	-0.29429	1.052993	0.058495
N	-0.543838	-0.858172	1.01613
H	-0.288603	-0.499161	1.930044
H	-1.562131	-0.783789	0.940446
C	-0.119691	0.434859	-2.427727
N	0.012888	1.252128	-3.259988
N	-1.636509	-1.202198	-1.628632
H	-2.408428	-0.577476	-1.391263
H	-1.737308	-2.008354	-1.022627
Br	-4.194994	0.0	0.0
