14

C	0.0	0.0	0.0
C	-0.320406	0.049315	-1.536153
Cl	1.789558	0.0	0.0
H	0.424169	-0.612168	-1.991039
H	-0.303013	0.923512	0.503545
N	-0.536525	-1.216	0.542412
H	-1.555549	-1.129457	0.501821
H	-0.286945	-1.283464	1.522569
C	-0.02602	1.407359	-2.02625
N	0.20768	2.488173	-2.418747
N	-1.607299	-0.373349	-2.018208
H	-2.373462	0.136499	-1.580462
H	-1.751364	-1.340805	-1.758691
Br	-4.129386	0.0	0.0
