13

C	-0.359837	-0.07303	-1.465706
C	0.0	0.0	0.0
F	-1.76641	-0.056136	-1.615457
H	1.094086	0.0	0.0
H	-0.067133	-1.050521	-1.87193
H	-0.359218	0.959319	0.384908
N	0.19332	1.044026	-2.166873
H	0.35303	0.816758	-3.138574
H	1.091175	1.279012	-1.753765
N	-0.514965	-1.095912	0.813242
H	0.103759	-1.89067	0.719971
H	-1.428101	-1.362864	0.467773
Br	3.664539	0.0	0.0
