13

C	-0.49499	-0.000867	-1.430306
C	0.0	0.0	0.0
F	-1.92732	-0.189846	-1.38903
H	1.092136	0.0	0.0
H	-0.131987	-0.873429	-1.977838
H	-0.348864	0.925281	0.476385
N	-0.160007	1.179022	-2.121935
H	-0.41012	2.000933	-1.590097
H	-0.584341	1.212922	-3.037272
N	-0.463407	-1.141689	0.785455
H	-1.405963	-1.379074	0.502731
H	0.138066	-1.933903	0.596726
Br	3.802446	0.0	0.0
