13

C	-0.537442	-0.126959	-1.405577
C	0.0	0.0	0.0
F	-0.124656	-1.389419	-1.909858
H	1.09248	0.0	0.0
H	-0.088652	0.608821	-2.076943
H	-0.349486	0.956265	0.399295
N	-1.957058	-0.022185	-1.414558
H	-2.301662	-0.633015	-0.681779
H	-2.32337	-0.324636	-2.308474
N	-0.576991	-1.090212	0.811475
H	-0.078965	-1.933754	0.54569
H	-0.329405	-0.917812	1.778659
Br	3.787624	0.0	0.0
