13

C	-0.564186	-0.065546	-1.402278
C	0.0	0.0	0.0
F	-0.111383	-1.259113	-1.976364
H	1.098158	0.0	0.0
H	-0.166691	0.74121	-2.020953
H	-0.337974	0.944163	0.442807
N	-1.996287	-0.067174	-1.452612
H	-2.339922	-0.424349	-0.568408
H	-2.353572	0.863461	-1.618226
N	-0.586356	-1.105576	0.777946
H	-0.219809	-1.047753	1.720381
H	-0.20346	-1.960657	0.387729
Br	3.830373	0.0	0.0
