17

C	0.0	0.0	0.0
C	-0.626624	-0.008181	-1.387859
F	1.316657	0.0	0.0
H	-1.655559	-0.344496	-1.469343
N	-0.372424	1.28316	0.644304
O	0.238044	1.638673	1.728037
O	-1.73555	1.428777	0.570784
N	-0.400288	-1.274005	0.620052
O	0.343899	-1.838188	1.503962
O	-1.760874	-1.295493	0.719895
N	0.161566	-1.004567	-2.248187
O	0.658001	-0.608054	-3.303532
O	0.216821	-2.130081	-1.771578
N	-0.53156	1.329986	-2.038383
O	-1.374132	1.56327	-2.908756
O	0.390113	2.064333	-1.700379
H	-1.733698	0.0	0.0
