14

C	-0.409097	0.080658	-1.455259
C	0.0	0.0	0.0
F	-0.180492	-1.174442	-2.040152
H	1.088709	0.0	0.0
H	-1.476917	0.276673	-1.597607
H	-0.380448	0.879512	0.530222
C	0.496733	1.090334	-2.130844
H	1.5184	0.879713	-1.795895
H	0.227071	2.106141	-1.82464
H	0.406225	1.017226	-3.217592
N	-0.649692	-1.164509	0.649728
O	-1.87481	-1.27211	0.516504
O	0.036759	-1.945803	1.301212
F	2.663608	0.0	0.0
