13

C	0.0	0.0	0.0
C	-0.51688	-0.258658	-1.409395
Cl	1.789497	0.0	0.0
H	-0.194537	-1.253288	-1.735514
H	-0.32082	0.98779	0.33048
H	-1.615761	-0.239129	-1.347404
C	-0.478723	-1.078138	0.953267
H	-1.569563	-1.120445	0.91906
H	-0.051867	-2.041861	0.660608
H	-0.155115	-0.857698	1.972553
C	-0.045273	0.718056	-2.386962
N	0.346121	1.485557	-3.184104
Cl	-3.694974	0.0	0.0
