13

C	0.0	0.0	0.0
C	-0.546165	0.255004	-1.400046
Cl	1.790538	0.0	0.0
H	-0.215523	1.230582	-1.766545
H	-0.309975	0.835701	0.628787
H	-1.64345	0.264917	-1.301149
C	-0.494607	-1.307909	0.585448
H	-0.12535	-1.429709	1.606063
H	-1.586918	-1.283399	0.590448
H	-0.142005	-2.151284	-0.013934
C	-0.141106	-0.765496	-2.362404
N	0.193823	-1.576406	-3.142153
Cl	-3.740053	0.0	0.0
