13

C	0.0	0.0	0.0
C	-0.526447	0.218232	-1.414466
Cl	1.790317	0.0	0.0
H	-1.624269	0.212519	-1.337201
H	-0.322843	0.842854	0.611468
H	-0.202345	1.189907	-1.79691
C	-0.479745	-1.30792	0.597833
H	-1.571716	-1.297352	0.610828
H	-0.119165	-2.148525	-0.000228
H	-0.099503	-1.421093	1.615416
C	-0.079371	-0.817248	-2.343286
N	0.296567	-1.640501	-3.090866
Cl	-3.69114	0.0	0.0
