17

C	0.0	0.0	0.0
C	-0.522997	0.182465	-1.420361
Br	1.969002	0.0	0.0
H	-1.611798	0.151662	-1.282007
H	-0.234521	-1.016828	0.335334
N	-0.494802	1.036864	0.863
H	-1.513227	1.024406	0.743619
H	-0.306713	0.788969	1.828239
C	-0.141682	-0.974156	-2.334749
H	-0.676477	-0.885762	-3.284996
H	-0.417969	-1.934422	-1.888918
H	0.931747	-0.985511	-2.54515
C	-0.151424	1.531348	-2.023183
H	-0.387303	2.340279	-1.331147
H	0.915775	1.579473	-2.260275
H	-0.716346	1.689346	-2.946826
Br	-3.852065	0.0	0.0
