16

C	-0.391155	-0.014629	-1.467465
C	0.0	0.0	0.0
Br	0.283564	1.510365	-2.420089
H	1.091059	0.0	0.0
H	0.085421	-0.891071	-1.907157
N	-1.874144	-0.220211	-1.735315
O	-2.552455	0.652993	-2.250433
O	-2.275368	-1.336221	-1.401236
C	-0.445399	-1.203761	0.820095
H	0.057003	-1.141541	1.786533
H	-1.526919	-1.236816	0.958112
H	-0.123734	-2.12145	0.326889
N	-0.503113	1.218447	0.695193
O	0.093133	1.569238	1.707389
O	-1.528209	1.744347	0.254332
Cl	3.271858	0.0	0.0
