16

C	-0.427078	-0.005989	-1.459258
C	0.0	0.0	0.0
Br	0.236288	1.5252	-2.41228
H	1.091146	0.0	0.0
H	-0.00128	-0.89256	-1.927529
N	-1.928061	-0.153481	-1.651656
O	-2.616217	0.810453	-1.951556
O	-2.336069	-1.301008	-1.467477
C	-0.489685	-1.187576	0.811377
H	-0.02025	-1.13282	1.796212
H	-0.162774	-2.113635	0.33616
H	-1.57353	-1.199046	0.917889
N	-0.489892	1.250637	0.663043
O	-1.716753	1.370704	0.753345
O	0.332516	2.05147	1.092383
Cl	3.305341	0.0	0.0
