13

C	-0.401869	-0.050208	-1.457561
C	0.0	0.0	0.0
Cl	-2.172766	-0.346262	-1.689613
H	1.099278	0.0	0.0
H	0.108099	-0.914658	-1.888116
C	-0.036471	1.158266	-2.193692
N	0.234827	2.129002	-2.797849
N	-0.328586	-1.260811	0.650643
H	-1.184533	-1.198156	1.185401
H	0.446318	-1.476987	1.271416
C	-0.517544	1.180627	0.677505
N	-0.930985	2.108703	1.272192
H	2.614945	0.0	0.0
