13

C	-0.475529	0.085927	-1.452275
C	0.0	0.0	0.0
Cl	0.156854	-1.281153	-2.411261
H	1.101189	0.0	0.0
H	-0.066979	0.995899	-1.900973
C	-1.934458	0.098129	-1.554003
N	-3.10828	0.12079	-1.605432
N	-0.419478	-1.231548	0.643334
H	-1.181013	-1.086796	1.291772
H	0.385796	-1.596498	1.143573
C	-0.437809	1.205644	0.697514
N	-0.785885	2.166186	1.282139
H	2.648477	0.0	0.0
