13

C	-0.404723	-0.061705	-1.457436
C	0.0	0.0	0.0
Cl	-2.17189	-0.382574	-1.684829
H	1.095898	0.0	0.0
H	0.116914	-0.920589	-1.885366
C	-0.061017	1.147684	-2.198522
N	0.185721	2.12327	-2.80305
N	-0.323655	-1.257222	0.660188
H	0.463443	-1.478981	1.264424
H	-1.167214	-1.186829	1.212758
C	-0.520653	1.183121	0.670039
N	-0.9421	2.112248	1.257254
H	2.618282	0.0	0.0
