16

C	-0.428546	-0.024519	-1.455861
C	0.0	0.0	0.0
Cl	-2.160257	-0.32435	-1.707041
H	1.100222	0.0	0.0
H	0.131073	-0.786773	-1.994711
N	-0.063	1.271864	-2.134498
O	0.98253	1.250076	-2.776786
O	-0.791205	2.246472	-1.970531
C	-0.421696	-1.291709	0.685842
H	0.100601	-1.362578	1.643469
H	-0.13434	-2.164398	0.094989
H	-1.499937	-1.306986	0.85906
N	-0.58786	1.137327	0.707995
H	-0.388303	1.002916	1.691939
H	-0.091909	1.981913	0.443
Br	3.54439	0.0	0.0
