16

C	-0.382105	-0.032707	-1.477538
C	0.0	0.0	0.0
Cl	-2.152489	-0.055756	-1.739253
H	1.096782	0.0	0.0
H	0.031536	-0.907743	-1.973089
N	0.169274	1.138007	-2.244119
O	-0.227686	2.259873	-1.941716
O	0.987649	0.874637	-3.119908
C	-0.455684	-1.291785	0.666414
H	-0.001804	-1.327876	1.656665
H	-1.543256	-1.32296	0.778012
H	-0.128771	-2.171017	0.104013
N	-0.46379	1.147408	0.756622
H	0.138565	1.93663	0.564537
H	-1.403927	1.402652	0.477225
Br	3.536581	0.0	0.0
