16

C	-0.40557	0.01148	-1.467036
C	0.0	0.0	0.0
Cl	0.00683	-1.473706	-2.328239
H	1.101857	0.0	0.0
H	0.080571	0.834511	-1.987592
N	-1.880332	0.276464	-1.620864
O	-2.191802	1.368914	-2.088017
O	-2.663437	-0.589537	-1.246034
C	-0.515948	-1.170554	0.813388
H	-0.024918	-1.145748	1.790207
H	-1.597418	-1.11026	0.949648
H	-0.265988	-2.122582	0.346423
N	-0.521644	1.26092	0.560095
H	-0.458364	1.193154	1.570057
H	0.119039	2.005444	0.297696
Br	3.572636	0.0	0.0
