16

C	-0.360291	-0.194881	-1.483097
C	0.0	0.0	0.0
Cl	0.297873	-1.671326	-2.177959
H	1.095315	0.0	0.0
H	0.001748	0.649327	-2.066265
N	-1.858784	-0.178739	-1.645997
O	-2.356165	0.94389	-1.781847
O	-2.493237	-1.222157	-1.543559
C	-0.550937	-1.093161	0.896479
H	-1.639369	-1.021802	0.990205
H	-0.11174	-0.957796	1.884976
H	-0.295369	-2.088674	0.531438
N	-0.391936	1.315653	0.494883
H	-1.287056	1.613887	0.126743
H	0.31157	1.991875	0.224263
Br	3.541954	0.0	0.0
