16

C	-0.574725	0.048365	-1.415756
C	0.0	0.0	0.0
Cl	0.034	1.41233	-2.345676
H	1.095928	0.0	0.0
H	-1.661421	0.121266	-1.374834
N	-0.29895	-1.239688	-2.156451
O	-1.149401	-2.118476	-1.989718
O	0.731512	-1.353743	-2.800744
C	-0.424342	-1.264202	0.743596
H	-0.010899	-1.201957	1.753577
H	-0.026978	-2.169336	0.283401
H	-1.515508	-1.354768	0.80518
N	-0.47282	1.212083	0.673686
H	-1.115611	0.972167	1.417356
H	0.327269	1.676909	1.080461
Br	3.583374	0.0	0.0
