16

C	-0.573201	0.084532	-1.407181
C	0.0	0.0	0.0
Cl	0.189264	1.354228	-2.367721
H	1.09388	0.0	0.0
H	-1.639986	0.290652	-1.355779
N	-0.457939	-1.233875	-2.120962
O	-1.486983	-1.915476	-2.117194
O	0.62192	-1.567526	-2.58638
C	-0.496435	-1.247485	0.712545
H	-1.589413	-1.276884	0.759395
H	-0.094271	-1.245881	1.729306
H	-0.13169	-2.155096	0.229586
N	-0.510325	1.200344	0.693324
H	0.145441	1.952315	0.506093
H	-0.436122	1.026692	1.688403
Br	3.600279	0.0	0.0
