10
Coordinates from ORCA-job run
  C   0.23668121080305      0.33527061136160     -0.06000091482137
  C   -1.09728705014922     -0.41612547980860     -0.05396232486607
  Br  -0.06227042020834      2.18827573740515     -0.65096536009149
  H   -0.92830731635365     -1.44453193775175      0.27374784181523
  H   -1.78914490130135      0.07529175713055      0.63047523393314
  H   -1.51890709182914     -0.41872834416930     -1.05934730366757
  C   0.81718353423127      0.38276284606042      1.28170308955211
  N   1.25084117308485      0.39276062373452      2.37409180537859
  C   1.18151253325109     -0.28250512663406     -0.99024508801802
  N   1.90969832847145     -0.81347068732852     -1.74449697921456
