10
Coordinates from ORCA-job run
  C   0.22929907591392      0.34502605393815     -0.01658412674246
  C   -1.08645030512631     -0.43108347311837     -0.11928524494084
  Br  -0.10654564288907      2.24820278407293     -0.38727449687660
  H   -1.49491191537302     -0.32431891526733     -1.12445326382580
  H   -0.89724227121671     -1.48699892334982      0.08760663423052
  H   -1.79857216854067     -0.03935447370042      0.60734938796217
  C   0.79226222236433      0.24560469420762      1.32985851754351
  N   1.21069342059714      0.13519802813764      2.42247029757451
  C   1.19966388885626     -0.13670304898831     -0.99930231442162
  N   1.95080369541414     -0.55757272593209     -1.79938539050338
