10
Coordinates from ORCA-job run
  C   0.21973664996570      0.35132123693415     -0.02118631776718
  C   -1.07556654291511     -0.45756050416589     -0.12752299107600
  Br  -0.15168997085691      2.23587351136045     -0.44603972068892
  H   -1.46927309497330     -0.38380808887975     -1.14147417327314
  H   -1.80921053772066     -0.06602303289316      0.57733108700062
  H   -0.86537528730961     -1.50349394758063      0.10726593684547
  C   0.76310178037471      0.29622510902792      1.33602964800819
  N   1.17210774459889      0.21564605552290      2.43487393239429
  C   1.21946049663672     -0.13323486801989     -0.97330291949150
  N   1.99770876219957     -0.55594547130610     -1.74597448195183
