10
Coordinates from ORCA-job run
  C   0.21551265610768      0.35229100912463     -0.04193729020938
  C   -1.06709622332929     -0.48220589776354     -0.09052251641304
  Br  -0.19419844222275      2.20640198850482     -0.55818387855263
  H   -0.83858602967776     -1.50930236097033      0.20250658824486
  H   -1.80133623404070     -0.06214783744836      0.59690092394698
  H   -1.46954058943804     -0.47343315713040     -1.10351474956251
  C   0.77294152961973      0.37763882707591      1.31028058033968
  N   1.18658303860138      0.36544480626740      2.41030203246171
  C   1.21175298403413     -0.16300110120948     -0.98104358452672
  N   1.98296731034561     -0.61368627645064     -1.74478810572894
