15

C	0.0	0.0	0.0
C	-0.475477	0.091073	-1.464493
Cl	1.784071	0.0	0.0
H	0.403094	0.064695	-2.119035
H	-0.331157	-0.958596	0.390376
C	-0.453841	1.147978	0.883305
H	-1.543703	1.16777	0.887397
H	-0.083567	0.983851	1.897658
H	-0.054448	2.096017	0.516658
C	-1.197164	1.309691	-1.813963
N	-1.560933	2.380366	-2.130278
N	-1.224531	-1.144904	-1.942069
O	-1.001601	-2.192983	-1.353832
O	-1.854203	-1.014555	-2.980308
Cl	-3.402217	0.0	0.0
