15

C	0.0	0.0	0.0
C	-0.590689	-0.000521	-1.409764
Cl	1.781124	0.0	0.0
H	-1.688143	0.087469	-1.257739
H	-0.318966	-0.947633	0.437651
C	-0.481181	1.1477	0.87298
H	-0.142905	0.971189	1.896235
H	-1.571241	1.172499	0.848622
H	-0.074695	2.097714	0.528379
C	-0.269193	-1.221739	-2.13699
N	-0.040817	-2.236407	-2.682208
N	-0.130371	1.189323	-2.203173
O	0.67687	1.009947	-3.112384
O	-0.593949	2.274249	-1.863721
Cl	-3.601011	0.0	0.0
