15

C	0.0	0.0	0.0
C	-0.293102	-0.172192	-1.501174
Cl	1.784943	0.0	0.0
H	0.388727	0.492401	-2.036007
H	-0.360531	-0.859932	0.558654
C	-0.511389	1.315454	0.540836
H	-0.143699	2.14803	-0.065171
H	-1.60316	1.281128	0.526061
H	-0.160453	1.453352	1.565687
C	-1.600013	0.044388	-2.135809
N	-2.314405	0.248988	-3.05019
N	0.158843	-1.555729	-1.945494
O	-0.064417	-2.497024	-1.195092
O	0.702591	-1.619309	-3.044216
Cl	-3.543081	0.0	0.0
