15

C	0.0	0.0	0.0
C	-0.290685	-0.254016	-1.489894
Cl	1.785118	0.0	0.0
H	0.376369	0.399488	-2.058303
H	-0.355329	-0.832675	0.602541
C	-0.520355	1.337682	0.472218
H	-0.16317	2.139902	-0.179721
H	-1.612313	1.293394	0.464145
H	-0.166148	1.533146	1.486813
C	-1.601483	-0.103396	-2.135806
N	-2.3211	0.005517	-3.062736
N	0.188537	-1.649654	-1.867144
O	-0.01777	-2.556411	-1.070815
O	0.731628	-1.758067	-2.962449
Cl	-3.546141	0.0	0.0
