15

C	0.0	0.0	0.0
C	-0.294929	-0.23655	-1.492545
Cl	1.784779	0.0	0.0
H	0.394244	0.397333	-2.055687
H	-0.363312	-0.831228	0.598006
C	-0.508634	1.341454	0.478497
H	-0.168318	1.518918	1.501084
H	-1.600239	1.314872	0.45536
H	-0.126791	2.144544	-0.157657
C	-1.598906	-0.027478	-2.134814
N	-2.310394	0.164274	-3.054734
N	0.142439	-1.642986	-1.87805
O	-0.093244	-2.549782	-1.089181
O	0.687764	-1.757343	-2.972554
Cl	-3.533757	0.0	0.0
