17

C	-0.419631	-0.002959	-1.457957
C	0.0	0.0	0.0
Br	0.200842	1.615946	-2.334418
H	1.09126	0.0	0.0
C	0.124378	-1.135858	-2.198461
N	0.582581	-2.018237	-2.825599
N	-1.959149	-0.057148	-1.593586
O	-2.581476	0.97407	-1.383794
O	-2.44011	-1.163821	-1.819316
N	-0.443053	-1.328134	0.555241
O	0.353136	-2.263138	0.505787
O	-1.57896	-1.402763	1.041358
C	-0.556642	1.109678	0.861323
H	-0.123985	0.986988	1.856876
H	-0.221248	2.071336	0.474223
H	-1.643857	1.102244	0.941576
F	2.501215	0.0	0.0
