17

C	-0.432418	0.056646	-1.443856
C	0.0	0.0	0.0
Br	0.429422	1.570457	-2.315394
H	1.114755	0.0	0.0
C	-0.149701	-1.099379	-2.292677
N	0.020883	-1.921547	-3.116237
N	-1.987166	0.240009	-1.558928
O	-2.455801	0.967339	-2.42102
O	-2.620194	-0.432387	-0.753125
N	-0.372836	-1.279922	0.63358
O	-0.67587	-1.260248	1.828046
O	-0.278862	-2.31203	-0.031769
C	-0.468039	1.171416	0.835982
H	0.0838	1.15605	1.774187
H	-1.537752	1.134618	1.05978
H	-0.226949	2.104574	0.327174
F	2.469671	0.0	0.0
