17

C	-0.518938	0.032558	-1.415788
C	0.0	0.0	0.0
Br	-2.47811	-0.203725	-1.52579
H	1.094309	0.0	0.0
C	-0.229508	1.320948	-2.034778
N	0.001279	2.359361	-2.536244
N	0.161174	-1.023141	-2.345994
O	-0.494455	-1.950736	-2.782643
O	1.336027	-0.769574	-2.559014
N	-0.400898	-1.264182	0.6391
O	-0.822544	-1.239764	1.798113
O	-0.234794	-2.29618	-0.015216
C	-0.416977	1.199741	0.819917
H	0.038369	1.107226	1.804361
H	-1.499917	1.29305	0.936931
H	-0.011717	2.099394	0.355019
F	2.457746	0.0	0.0
