17

C	0.0	0.0	0.0
C	-0.526069	0.022772	-1.422219
Br	2.062315	0.0	0.0
H	-1.636561	0.042062	-1.132844
N	-0.376174	1.148156	0.691994
H	-0.288251	1.946923	0.077678
H	0.078498	1.260576	1.583894
C	-0.348112	-1.221535	0.727046
N	-0.517184	-2.203806	1.349048
C	-0.128451	-1.202253	-2.226448
H	0.959024	-1.253604	-2.364542
H	-0.595441	-1.156377	-3.215411
H	-0.458998	-2.124375	-1.742048
N	-0.113652	1.29117	-2.024986
H	-0.785073	1.551184	-2.735422
H	0.795657	1.184506	-2.466253
F	-2.76591	0.0	0.0
