17

C	0.0	0.0	0.0
C	-0.532573	-0.056812	-1.419619
Br	2.062242	0.0	0.0
H	-1.64192	-0.024394	-1.129379
N	-0.376591	1.186452	0.626314
H	-0.304251	1.944066	-0.039681
H	0.088745	1.360724	1.50311
C	-0.344135	-1.181396	0.795507
N	-0.504428	-2.127254	1.474517
C	-0.138942	-1.324197	-2.158629
H	-0.616211	-1.333291	-3.143555
H	0.947574	-1.381448	-2.30456
H	-0.463184	-2.218221	-1.619935
N	-0.128581	1.175973	-2.096668
H	0.764337	1.040877	-2.560962
H	-0.820123	1.410492	-2.795891
F	-2.774821	0.0	0.0
