17

C	0.0	0.0	0.0
C	-0.64843	0.033783	-1.354092
Br	2.062183	0.0	0.0
H	-1.767171	0.013566	-0.939723
N	-0.386668	1.112115	0.762987
H	0.200639	1.275591	1.566001
H	-0.461033	1.910645	0.146099
C	-0.288693	-1.252571	0.711272
N	-0.467378	-2.257711	1.2928
C	-0.313912	-1.163152	-2.221759
H	-0.60071	-2.098673	-1.734148
H	-0.870998	-1.09636	-3.161537
H	0.758065	-1.209457	-2.45977
N	-0.366291	1.331197	-1.964865
H	-1.136858	1.57862	-2.57257
H	0.481192	1.280827	-2.524662
F	-2.883325	0.0	0.0
