17

C	0.0	0.0	0.0
C	-0.421714	-0.048795	-1.482882
Br	2.062523	0.0	0.0
H	-1.515426	-0.029125	-1.332268
N	-0.528373	1.09532	0.717693
H	-1.563004	0.826811	0.65621
H	-0.404985	1.893117	0.096179
C	-0.320965	-1.261146	0.680498
N	-0.51665	-2.283537	1.225409
C	-0.004609	-1.301569	-2.238049
H	-0.45943	-1.28719	-3.234403
H	1.082094	-1.355362	-2.356245
H	-0.344039	-2.206288	-1.727589
N	-0.008879	1.203856	-2.113378
H	0.923567	1.104795	-2.499616
H	-0.64667	1.415836	-2.869647
F	-2.755575	0.0	0.0
