17

C	0.0	0.0	0.0
C	-0.403321	-0.031023	-1.51864
Br	2.037772	0.0	0.0
H	0.509795	-0.242236	-2.07992
N	-0.568259	1.085309	0.715646
H	-1.598724	0.880452	0.563104
H	-0.373248	0.95444	1.703995
C	-0.252077	-1.30913	0.643563
N	-0.364249	-2.29928	1.268675
C	-0.944762	1.326543	-1.968354
H	-0.2653	2.147873	-1.725098
H	-1.909922	1.485842	-1.487645
H	-1.086767	1.295306	-3.055641
N	-1.30767	-1.152152	-1.740805
H	-2.153072	-0.912496	-1.192745
H	-1.538363	-1.176719	-2.728081
F	-2.854569	0.0	0.0
