14
Coordinates from ORCA-job run
  C   -0.40594838960363     -0.39675686832300      0.07713132550577
  C   0.58279662366487      0.59165713706539      0.67480912084039
  Br  -1.24768412073151     -1.31028453534131      1.85779078538838
  H   0.06928517378388      1.19955427679091      1.42232211067771
  H   1.34918083023897      0.00597910551848      1.20115226918403
  N   0.24359980992617     -1.40874593844244     -0.65665644978670
  H   -0.39911435847931     -1.95126437243356     -1.21900845593403
  H   0.77132078931664     -2.02525685460035     -0.05372399274879
  N   -1.41784383324402      0.20912610004201     -0.66284738527250
  H   -2.21851022992072     -0.38820081780936     -0.81430901368296
  H   -1.69826314742471      1.10014483566911     -0.28164264099192
  N   1.08055980430950      1.45939481933216     -0.38839439088298
  H   1.45886888449706      0.87971635637384     -1.12830879235715
  H   1.83175216366681      2.03493675615813     -0.02731448993926
