14
Coordinates from ORCA-job run
  C   -0.42037996931526     -0.31499810719975      0.09708493601693
  C   0.39105377842695      0.97340292097726      0.16208200763180
  Br  -0.51617843938001     -1.08818284320199      1.95197595515015
  H   0.36392707832273      1.36726314138781     -0.86776079828057
  H   -0.12545878078092      1.69120056496756      0.80724987363451
  N   0.28989839847560     -1.29604718542197     -0.69883722452111
  H   0.04164263381163     -1.13700130129458     -1.67047611450249
  H   0.02659489570904     -2.23831602713268     -0.44292993771694
  N   -1.71702819633368     -0.03756250015031     -0.42765275135758
  H   -2.19208487097022      0.67386418415822      0.11552271514541
  H   -2.28852407380907     -0.87407628916863     -0.42981839588128
  N   1.72104759417936      0.72745534190462      0.68265482649180
  H   2.14021789681781     -0.01022663726980      0.12912837445412
  H   2.28527205484603      1.56222473744425      0.59177653373524
