14
Coordinates from ORCA-job run
  C   -0.46140740718545     -0.48090642105733      0.19889296136674
  C   0.56453496066431      0.56020206152749      0.65121673192589
  Br  -1.20917564919083     -1.27401823667051      1.92137017498068
  H   1.36872347749638      0.05686724017207      1.20853871581912
  H   0.07511034638806      1.25733220091829      1.33367899000852
  N   0.16820308592892     -1.44370214626887     -0.61878146758682
  H   -0.52027244556844     -2.07036201294494     -1.01504826647534
  H   0.88167752197228     -1.96475769581766     -0.12619957889535
  N   -1.59444235739638      0.03714306315675     -0.52172305488272
  H   -2.18312649068376      0.57144630289826      0.10494173574764
  H   -1.21155394708514      0.67387582275727     -1.21669015801126
  N   1.00025124060056      1.28810361790766     -0.53658934691375
  H   1.54068871697424      2.10148871189590     -0.27255493726977
  H   1.57878894708525      0.68728749152562     -1.10905249981359
