15

C	-0.284315	0.059915	-1.455033
C	0.0	0.0	0.0
Br	-2.339939	0.874551	-1.804168
H	1.097419	0.0	0.0
H	0.240677	0.882239	-1.932498
N	-0.15689	-1.122502	-2.143191
H	-0.342594	-1.047321	-3.130751
H	-0.644789	-1.898361	-1.717721
C	-0.53491	-1.199664	0.601336
N	-0.962263	-2.196292	1.059974
C	-0.328064	1.262709	0.7853
H	0.150765	1.194168	1.764727
H	-1.400558	1.432371	0.899205
H	0.115821	2.115548	0.266355
F	2.50186	0.0	0.0
