15

C	-0.148366	0.193281	-1.51967
C	0.0	0.0	0.0
Br	-0.347455	-1.703288	-2.473859
H	1.097157	0.0	0.0
H	-1.097392	0.610323	-1.862608
N	0.968257	0.888667	-1.939221
H	1.829818	0.582685	-1.431536
H	1.057178	1.015856	-2.934854
C	-0.623697	-1.171941	0.57083
N	-1.171984	-2.056719	1.118448
C	-0.464905	1.268917	0.722875
H	0.092251	2.116366	0.320841
H	-0.24493	1.187964	1.790063
H	-1.54013	1.446552	0.601406
F	2.665751	0.0	0.0
