15

C	-0.481054	-0.058354	-1.438009
C	0.0	0.0	0.0
Br	0.394021	1.458214	-2.483323
H	1.094153	0.0	0.0
H	-0.055761	-0.93009	-1.933947
N	-1.892901	-0.040363	-1.589383
H	-2.154897	-0.06538	-2.566528
H	-2.280013	0.798482	-1.176626
C	-0.453043	-1.217863	0.655504
N	-0.802147	-2.198086	1.204762
C	-0.44883	1.229801	0.786627
H	-0.107367	2.128051	0.269648
H	-1.532127	1.288298	0.950897
H	0.043374	1.207518	1.760907
F	2.560404	0.0	0.0
