15

C	-0.156828	0.312508	-1.498883
C	0.0	0.0	0.0
Br	-0.362203	-1.495552	-2.597998
H	1.096716	0.0	0.0
H	-1.108602	0.756969	-1.798257
N	0.956772	1.043514	-1.868032
H	1.041889	1.244127	-2.851948
H	1.819354	0.699537	-1.390826
C	-0.618534	-1.215643	0.47784
N	-1.147691	-2.144431	0.968102
C	-0.466337	1.204809	0.823542
H	0.072414	2.087919	0.476968
H	-0.224742	1.046881	1.877311
H	-1.545953	1.375978	0.735391
F	2.664363	0.0	0.0
