15

C	-0.282264	0.044998	-1.455741
C	0.0	0.0	0.0
Br	-2.349032	0.835434	-1.811789
H	1.09746	0.0	0.0
H	0.233025	0.870107	-1.939229
N	-0.141733	-1.14061	-2.134477
H	-0.323513	-1.077049	-3.123504
H	-0.618726	-1.921235	-1.70443
C	-0.528762	-1.197843	0.611039
N	-0.9471	-2.194668	1.077564
C	-0.336499	1.267598	0.77287
H	-1.410452	1.430738	0.885227
H	0.142135	1.212043	1.753091
H	0.100858	2.119118	0.2457
F	2.502441	0.0	0.0
