15

C	-0.448646	-0.009736	-1.465884
C	0.0	0.0	0.0
Br	0.126185	1.647586	-2.349808
H	1.09542	0.0	0.0
H	0.113242	-0.792089	-1.979155
N	-1.862173	-0.18359	-1.760196
H	-2.387572	0.533074	-1.27051
H	-2.140835	-1.081315	-1.373029
C	-0.477669	-1.252561	0.561249
N	-0.901042	-2.267236	0.983887
C	-0.482165	1.181066	0.836589
H	-1.570069	1.326148	0.815682
H	0.008015	2.088185	0.481868
H	-0.179279	1.026381	1.874407
F	2.559357	0.0	0.0
