12

C	-0.586389	0.040202	-1.390802
C	0.034143	-0.040056	-0.020562
Br	0.250807	1.43025	-2.476328
H	1.124653	-0.077128	-0.02884
H	-1.650969	0.264139	-1.406141
H	-0.18633	0.895476	0.503521
N	-0.464269	-1.258966	-2.143405
O	0.527193	-1.948141	-1.941924
O	-1.381351	-1.514789	-2.925152
C	-0.550036	-1.146479	0.719981
N	-1.023027	-2.040295	1.320414
H	2.686257	0.249143	0.188044
