12

C	-0.548223	0.047857	-1.414525
C	0.026888	-0.00248	-0.023695
Br	0.524987	1.141713	-2.655968
H	1.117121	0.042549	-0.010101
H	-1.549571	0.461845	-1.497543
H	-0.220629	-0.956506	0.448635
N	-0.649154	-1.322864	-2.015528
O	0.221117	-2.141382	-1.740773
O	-1.610745	-1.51842	-2.761877
C	-0.512797	1.091143	0.763638
N	-0.935839	1.988961	1.393768
H	2.641593	0.098408	0.143246
