18

C	0.0	0.0	0.0
C	-0.185755	0.029015	-1.551988
F	1.381216	0.0	0.0
H	0.383791	-0.856281	-1.856821
C	-0.275218	1.237	0.849632
H	-0.036007	2.120707	0.254638
H	0.397933	1.182407	1.710297
H	-1.29873	1.282239	1.195323
N	-0.645323	-1.186834	0.570005
O	-0.677942	-1.240177	1.836611
O	-0.595087	-2.230461	-0.144785
N	0.448629	1.285692	-2.027875
H	0.501702	1.219133	-3.037441
H	1.402472	1.309169	-1.687158
N	-1.48804	-0.127992	-2.144143
H	-1.355964	-0.243934	-3.148299
H	-2.03691	0.701279	-1.962837
H	-2.104914	0.0	0.0
