18

C	0.0	0.0	0.0
C	-0.317276	-0.07078	-1.526877
F	1.372456	0.0	0.0
H	0.23289	0.768244	-1.968585
C	-0.406585	1.265637	0.748905
H	0.372457	1.473122	1.481203
H	-1.37228	1.132843	1.222215
H	-0.452047	2.101632	0.047045
N	-0.280746	-1.327311	0.691995
O	-1.540681	-1.823258	0.451878
O	0.682187	-2.160528	0.638429
N	-1.721873	0.169391	-1.818016
H	-1.807166	0.352749	-2.818085
H	-2.171108	-0.733641	-1.637231
N	0.142199	-1.35651	-2.069025
H	0.582594	-1.202055	-2.969238
H	0.799987	-1.795953	-1.431358
H	-2.349622	0.0	0.0
