18

C	0.0	0.0	0.0
C	-0.383739	-0.160798	-1.490591
F	1.372484	0.0	0.0
H	0.042682	0.70279	-2.012046
C	-0.478155	1.256807	0.720656
H	0.394392	1.708773	1.190029
H	-0.906812	1.964697	0.006674
H	-1.232508	0.968231	1.446653
N	-0.255978	-1.360177	0.712758
O	-1.473131	-1.900524	0.443725
O	0.742276	-2.151337	0.619662
N	-1.829804	-0.107193	-1.655145
H	-2.125749	-1.060472	-1.402901
H	-2.044449	0.051463	-2.640653
N	0.19451	-1.391489	-2.063608
H	0.984989	-1.145238	-2.647115
H	0.538844	-1.975533	-1.301114
H	-2.559184	0.0	0.0
