18

C	0.0	0.0	0.0
C	-0.292794	0.2292	-1.529802
F	1.371802	0.0	0.0
H	-0.126294	-0.756432	-1.990753
C	-0.505544	1.097545	0.890122
H	-0.19284	2.067578	0.501911
H	-1.602505	1.029605	0.909822
H	-0.114698	0.93077	1.895632
N	-0.604142	-1.251071	0.448977
O	-0.297788	-1.665653	1.602195
O	-1.766332	-1.430694	-0.132401
N	0.64868	1.252471	-2.008181
H	1.597228	0.907744	-1.950667
H	0.413216	1.39692	-2.98346
N	-1.586874	0.702019	-1.960351
H	-2.297129	0.148708	-1.474857
H	-1.693512	1.644694	-1.593154
H	-3.067934	0.0	0.0
