18

C	0.0	0.0	0.0
C	-0.396302	-0.115078	-1.492686
F	1.365662	0.0	0.0
H	-0.070288	0.868185	-1.873911
C	-0.580568	1.199196	0.686922
H	-0.183814	1.282778	1.698031
H	-1.671634	1.092056	0.716959
H	-0.311494	2.088248	0.111945
N	-0.3687	-1.259055	0.786905
O	-0.46206	-2.31667	0.169033
O	-0.465404	-1.148446	2.007499
N	-1.794729	-0.359401	-1.723123
H	-2.145449	0.285532	-2.420837
H	-2.477308	-0.259215	-0.914675
N	0.483451	-1.076771	-2.185713
H	0.076473	-1.983572	-1.979762
H	0.299511	-0.922828	-3.172729
H	-3.67954	0.0	0.0
