18

C	0.0	0.0	0.0
C	-0.434842	0.020805	-1.474402
F	1.362299	0.0	0.0
H	0.312135	0.716037	-1.892504
C	-0.529676	1.168696	0.792763
H	-0.024642	1.187608	1.760377
H	-0.331123	2.089882	0.241
H	-1.611605	1.060229	0.913973
N	-0.385904	-1.257241	0.772146
O	0.05529	-1.308823	1.920175
O	-1.097329	-2.109182	0.251142
N	-1.734295	0.605656	-1.626983
H	-2.49517	0.257718	-0.978853
H	-2.053355	0.489542	-2.582242
N	-0.125724	-1.263759	-2.124086
H	-0.150993	-1.096004	-3.123265
H	-0.878965	-1.90407	-1.905109
H	-3.722074	0.0	0.0
