18

C	0.0	0.0	0.0
C	-0.308747	-0.052373	-1.522927
F	1.378643	0.0	0.0
H	0.375534	-0.834434	-1.883507
C	-0.578094	1.131627	0.783348
H	-1.67061	1.005567	0.784132
H	-0.19043	1.122452	1.80211
H	-0.307661	2.073081	0.303648
N	-0.332185	-1.330787	0.670587
O	-0.540839	-1.319618	1.88186
O	-0.255102	-2.339331	-0.02427
N	0.153099	1.185898	-2.171908
H	1.111627	1.381849	-1.90054
H	-0.43311	1.95314	-1.860567
N	-1.662387	-0.345849	-1.858188
H	-1.923985	0.197662	-2.670531
H	-2.374657	-0.196079	-1.098382
H	-3.475039	0.0	0.0
