12
Coordinates from ORCA-job run
  C   -0.41436167823376      0.12206493451159     -0.01272794562984
  C   0.62657966262700     -0.50114711414923      0.59783168902374
  H   0.56872792610960     -0.89202516443628      1.59982102371806
  N   -1.65954269689167      0.26415424160193      0.79539996496608
  O   -2.53854815134302      0.97530709588544      0.31088489717825
  O   -1.71987543100402     -0.31866726627911      1.87098124315174
  N   -0.54038080983904      0.60063121252985     -1.25867309914592
  H   0.30833608212339      0.67032307609863     -1.79910984086229
  H   -1.31754197702074      1.21644030000167     -1.43593393195730
  N   1.88735060426408     -0.66677639889700     -0.05326619763112
  O   2.02747934966308     -0.23685492115278     -1.20871326687580
  O   2.77077711954509     -1.23344999571471      0.59050546406441
