12
Coordinates from ORCA-job run
  C   -0.38607189314989      0.18916760941403      0.04837053824113
  C   0.66734222449549     -0.51209771316663      0.54181716581477
  H   0.66684517968661     -0.95554743362707      1.52339185232643
  N   -1.57547104139718      0.30116173390617      0.94045598621805
  O   -1.47041200615092     -0.09273574589134      2.09547451027095
  O   -2.58761203561600      0.78086378649961      0.43189728580141
  N   -0.53099378545355      0.85680235181345     -1.10542195466604
  H   0.17351001197134      0.69104236671349     -1.80801937122893
  H   -1.46780702469445      1.11866963109912     -1.36726613250571
  N   1.85032649351864     -0.72991987862120     -0.22891980669175
  O   2.73956849679724     -1.39637602150585      0.30125526143352
  O   1.91977537999266     -0.25003068663379     -1.37103533501384
