12
Coordinates from ORCA-job run
  C   -0.20443406639068      0.45214872221686     -0.10273025250261
  C   1.02278720051639     -0.09786222212411     -0.14679553224456
  H   1.89229112479305      0.44854472712818     -0.48635003946460
  N   -1.37330625954167     -0.25815381074029      0.45552571480282
  O   -1.33872326437688     -0.55585086459519      1.64065084600133
  O   -2.30852442972376     -0.41402987435171     -0.32629383862149
  N   -0.54602417535251      1.72940995485470     -0.45238020743109
  H   0.13938340762839      2.23018551167897     -0.99707796596273
  H   -1.48790499545789      1.82295768222005     -0.80493154201106
  N   1.31342820685866     -1.43828914405526      0.29989638922137
  O   0.40005698399028     -2.26089613017039      0.33764615499653
  O   2.49197026705663     -1.65816455206181      0.58184027321611
