12
Coordinates from ORCA-job run
  C   -0.22889265369302      0.42506035184947     -0.15458367186911
  C   1.02764047056427     -0.05589776160393     -0.13661379520641
  H   1.87177443326285      0.51042681730417     -0.50616461263021
  N   -1.39513451937347     -0.38719052542772      0.24895486444006
  O   -2.06101130091463      0.08098435426005      1.16972624444267
  O   -1.63385258343513     -1.39394005708080     -0.40205812383516
  N   -0.63653019027025      1.64443219257004     -0.62004756805433
  H   -1.45213127408690      2.01384437862839     -0.15289360787058
  H   0.09394360824046      2.32602701063831     -0.75733690486222
  N   1.36809338507883     -1.38257145736054      0.31718568587546
  O   2.43504899280304     -1.82873519069226     -0.10610327405424
  O   0.61105163182394     -1.95244011308518      1.10093476362406
