12
Coordinates from ORCA-job run
  C   -0.38491863013865      0.19005463884053      0.04871232670544
  C   0.64745038220973     -0.55107589372037      0.52798088026933
  H   0.61838899736413     -1.04604595148509      1.48416062876188
  N   -1.59411960394116      0.27041864974021      0.91788135964327
  O   -1.52210752287976     -0.18765509788394      2.05151561131735
  O   -2.58681206850807      0.79318500760168      0.41351605686404
  N   -0.49448949918744      0.91955747749243     -1.07069318766096
  H   0.22458988421882      0.78489534283615     -1.76498091408326
  H   -1.42058007867996      1.21289296237142     -1.33707223522159
  N   1.84691848593294     -0.74042648928195     -0.22450656765553
  O   2.71719725019101     -1.44209077109989      0.29156927311982
  O   1.94848240341842     -0.20270987541118     -1.33808323205981
