12
Coordinates from ORCA-job run
  C   -0.39813716199239      0.16665771918226      0.01550617409700
  C   0.47843280785021     -0.84863971586168      0.22860973319023
  H   0.21345221731549     -1.75066241125632      0.75423902338885
  N   -1.76697622231409     -0.01966566355280      0.57742208251039
  O   -2.05737717446214     -1.11600961785621      1.03993377837858
  O   -2.50446759359699      0.96407831631104      0.53808300173518
  N   -0.26409176879610      1.31152365507924     -0.66961938902181
  H   -0.96366826467615      2.01976581460562     -0.51534171512145
  H   0.67507741314991      1.56342004853714     -0.93777690234759
  N   1.83128803790098     -0.77847343794273     -0.22509574372115
  O   2.54918040486297     -1.74632612487848      0.02776694445511
  O   2.20828730475831      0.23433141763292     -0.83472698754334
