12
Coordinates from ORCA-job run
  C   -0.19919752993912      0.45134426460570     -0.11614618269106
  C   0.95664720476632     -0.19555156208599     -0.35271209511712
  H   1.75341332822957      0.23562303273749     -0.94350150655571
  N   -1.24376012706766     -0.09088978699037      0.77687041569005
  O   -2.34428834956522     -0.24950248239695      0.25340017539114
  O   -0.94930836997817     -0.26056216062126      1.95113678570652
  N   -0.54655877656699      1.69979309969463     -0.55249638476846
  H   -1.53832342275311      1.82724797334475     -0.69407756863188
  H   0.01931384303708      2.07564568947381     -1.29780084182726
  N   1.27169065379672     -1.49277179910864      0.19488453449041
  O   0.34918335534452     -2.23486111381567      0.52738341022842
  O   2.47118819069606     -1.76551515483749      0.25305925808494
