12
Coordinates from ORCA-job run
  C   -0.36184661204879      0.21770961922016      0.09154563493081
  C   0.51708185318213     -0.78887493078585      0.33453967811703
  H   0.33062403761065     -1.56847068813767      1.05395897586832
  N   -1.63514047516544      0.17848576866721      0.86680141856271
  O   -1.73727018485147     -0.64404115307310      1.76858776958076
  O   -2.49904807103365      0.98514518074128      0.52605346332062
  N   -0.26567595371654      1.29209040300970     -0.70452830328662
  H   0.49915129011032      1.29489975255454     -1.36200470490296
  H   -1.11666662969667      1.79406610671134     -0.90068470576743
  N   1.75595186078090     -0.88842443826546     -0.37000954449176
  O   2.47667180879257     -1.84558527762790     -0.08637771219685
  O   2.03616707603600     -0.02600034301425     -1.21688196973463
