12
Coordinates from ORCA-job run
  C   -0.27065761434984      0.35139155609201     -0.24519118436882
  C   0.93266464598810     -0.23256405743519     -0.39234596206961
  H   1.61056279258438      0.02874631043625     -1.19360788871244
  N   -1.24137917151941     -0.07916087045836      0.78201280777018
  O   -1.66079474656755     -1.22553782481411      0.71693032455983
  O   -1.58931727134692      0.79866520463886      1.56868464313329
  N   -0.81705696767586      1.32055883974384     -1.04000526344964
  H   -0.17444636136105      1.79452206937107     -1.65594419709665
  H   -1.44922934379435      1.94317533201136     -0.55772639586970
  N   1.41371412246292     -1.29512570805092      0.45691833936928
  O   0.94946266559909     -1.40293981611743      1.59048294811435
  O   2.29747724998050     -2.00173103541738     -0.02920817138006
