12
Coordinates from ORCA-job run
  C   -0.38702161540703      0.19046909588432      0.02284555035005
  C   0.41089398736812     -0.84808954215801     -0.33706774787449
  H   0.02509817831458     -1.77796410140087     -0.71996484141676
  N   -1.85508473501438     -0.03054345368500     -0.11797371769770
  O   -2.57998702289012      0.83643852144796      0.36781596492430
  O   -2.23422384848161     -1.04512056776350     -0.68987559758413
  N   -0.08108682706661      1.42449013483950      0.44775230145233
  H   0.88081689449641      1.58405915555312      0.70559379314500
  H   -0.82337099937316      1.96252159236162      0.86506054072238
  N   1.83243219263625     -0.77896200789085     -0.21365732721024
  O   2.46531759845886     -1.77861208293786     -0.55452587078784
  O   2.34721619695871      0.26131325574957      0.22499695197711
