12
Coordinates from ORCA-job run
  C   -0.40849453120306      0.14038579740229     -0.01524157095933
  C   0.52990784404278     -0.75217975720261      0.39395989325908
  H   0.32273283440409     -1.53696399447790      1.10197016778405
  N   -1.76263927612350     -0.00672345180863      0.59146223841108
  O   -1.98343515101442     -0.99674543269993      1.27802835421794
  O   -2.56104243770067      0.89869920458329      0.35513824265538
  N   -0.34526250518938      1.12399881523429     -0.92387333498596
  H   -1.08883213568699      1.80342041126370     -0.91609968981259
  H   0.57553845256080      1.36978950372197     -1.25393955900397
  N   1.87676625979012     -0.69365526460712     -0.07947933305893
  O   2.18908950113796      0.18868588117600     -0.89391547129571
  O   2.65467114498226     -1.53871171258536      0.36399006278896
