12
Coordinates from ORCA-job run
  C   -0.39363647950992      0.17619108264151      0.03182982557652
  C   0.44629893910445     -0.78996535122908     -0.42165294327462
  H   0.10118720752935     -1.67758565934009     -0.92483249435132
  N   -1.84931385856595     -0.06792300168992     -0.17978624891849
  O   -2.18001733629632     -1.01305528534606     -0.88516805434250
  O   -2.61459210397386      0.70977419053118      0.38829253044892
  N   -0.13873072309008      1.36053308260685      0.60668675751689
  H   -0.90850137941049      1.81923275793286      1.06700642477399
  H   0.80974612164215      1.51253988836027      0.91434846668119
  N   1.86109390266642     -0.69660073685759     -0.24555915080871
  O   2.53403272531848     -1.63154790736563     -0.68026830726708
  O   2.33043298458578      0.29840693975571      0.32810319396522
