12
Coordinates from ORCA-job run
  C   -0.37532814281040      0.19399223972539      0.08950116913496
  C   0.44864668180154     -0.88476818701243      0.13325366787411
  H   0.13097160527059     -1.85038648554746      0.48925699511420
  N   -1.77722538017031     -0.03227107774012      0.54517614137569
  O   -2.04789453889877     -1.10500474057404      1.07063410232773
  O   -2.56492514544847      0.89113343396561      0.34528282724833
  N   -0.13470919000859      1.46751141787142     -0.25311951624155
  H   0.74547813769771      1.64923498242164     -0.71078659735358
  H   -0.93545363157782      2.05504592828979     -0.42124066262253
  N   1.80466932774715     -0.81016680365172     -0.31036977407371
  O   2.46616311275656     -1.84619502794013     -0.24002011859942
  O   2.23760716364081      0.27087432019206     -0.73856823418423
