12
Coordinates from ORCA-job run
  C   -0.37005720893240      0.21277832110657      0.06914904175288
  C   0.47350960460224     -0.82261489883654      0.31494089619673
  H   0.20326586943849     -1.66625615144986      0.92766846065184
  N   -1.72730007682702      0.11220090282948      0.67869074997032
  O   -2.54512816659249      0.95656298428138      0.31630548668290
  O   -1.93648686582157     -0.79283187237694      1.47706143290346
  N   -0.17830743274200      1.36045966660710     -0.59766562900421
  H   0.65741037555101      1.41344875391163     -1.16014767213522
  H   -1.00193898380217      1.88219554950392     -0.85156272447213
  N   1.78819371240913     -0.86753897074881     -0.24253492291656
  O   2.16764151561009      0.06885639320953     -0.96267169837548
  O   2.47019765710670     -1.85526067803747      0.03176657874545
