12
Coordinates from ORCA-job run
  C   -0.38213089359610      0.20034593822371      0.00756048344101
  C   0.36989252244542     -0.92747796298058     -0.07815816668993
  H   -0.05553210859975     -1.91696029335279     -0.07650224026752
  N   -1.85470505437743     -0.00020029636893      0.13107514901387
  O   -2.51855582224161      1.00810073003339      0.36677373119364
  O   -2.29593448809048     -1.13517708335294     -0.00056406849677
  N   -0.03185113517162      1.49255094888652     -0.04598023671717
  H   0.95392500047786      1.69577442322997      0.01633643797694
  H   -0.72030055680152      2.16950321035772      0.24037312822959
  N   1.79466508240325     -0.87237392218758     -0.16443587175299
  O   2.38585267508819     -1.95045750803115     -0.22997482410549
  O   2.35367477846380      0.23537181554265     -0.16550352182519
