12
Coordinates from ORCA-job run
  C   -0.35268318326886      0.22126060387723      0.11499064748588
  C   0.37445062141049     -0.92523840676405      0.07566787350062
  H   -0.01257512605896     -1.87516851672918      0.40420038530744
  N   -1.74895931427701      0.09596360216575      0.62304784999797
  O   -2.46028755105293      1.09146806088708      0.49672733306752
  O   -2.09046448007245     -0.97215436680289      1.11574050869157
  N   -0.01467052148397      1.48399769961233     -0.18275574975510
  H   -0.76660402294707      2.14545310412972     -0.29084279381076
  H   0.85949672640632      1.61026528966255     -0.66966108421836
  N   1.71178246906993     -0.94783617774965     -0.42643410234661
  O   2.22129450296808      0.11093981586334     -0.82495420501033
  O   2.28021987930643     -2.03995070815223     -0.43372666290984
