12
Coordinates from ORCA-job run
  C   -0.39016591539834      0.18034910950086      0.04238445194421
  C   0.42486276807006     -0.90599494400121      0.02507905240255
  H   0.05374556138958     -1.91662517967470      0.05704107628907
  N   -1.85420752769452     -0.09819905786012      0.08772442115790
  O   -2.59306615650419      0.87212453276814     -0.07268061976026
  O   -2.21708393000528     -1.25355793074437      0.27121664406042
  N   -0.10426377047998      1.48972843302851      0.07552828016034
  H   -0.85534138347600      2.12688763061007     -0.13572534927548
  H   0.85476679282986      1.74375254538105     -0.10587342567227
  N   1.84503028853451     -0.77638086426020     -0.05812278036055
  O   2.49416720339743     -1.82234118387296     -0.08229683315740
  O   2.34255606933688      0.35925690912495     -0.10527491778853
