12
Coordinates from ORCA-job run
  C   -0.18632585492746      0.45584179540599     -0.09648273225244
  C   1.00258348284292     -0.16173621360072     -0.22166885570571
  H   1.86637348398637      0.32464893953605     -0.65429237243947
  N   -1.34860967885228     -0.17907961897551      0.55674005555035
  O   -1.28810216896082     -0.34063287346309      1.76693832781757
  O   -2.31112376910416     -0.37704296751016     -0.18049970584042
  N   -0.48308025881226      1.74307067616815     -0.44741377942409
  H   -1.43918113959932      1.89101503272437     -0.73735653620680
  H   0.19205741403679      2.20269532985169     -1.03913993119151
  N   1.25443874576255     -1.50390296967810      0.24079352025632
  O   2.44197351653857     -1.80591929772751      0.36661442215802
  O   0.29799622708911     -2.24995783273117      0.44576758727817
