12
Coordinates from ORCA-job run
  C   -0.37785432180507      0.20861749936905     -0.01220996843316
  C   0.35195145252294     -0.92556832254299      0.14924213632264
  H   -0.07683920974040     -1.85913791078334      0.47262283621871
  N   -1.83095574557901      0.10499978175702      0.30589526909166
  O   -2.29335869404621     -1.00497795607125      0.53900585082890
  O   -2.45810255390770      1.16326935944044      0.31570955333687
  N   -0.02517754442484      1.42044115473104     -0.46270635464584
  H   0.96325564330952      1.59778387622442     -0.55484086750135
  H   -0.67369706781756      2.17541151147617     -0.30794102527365
  N   1.76080871578589     -0.94913696443361     -0.08691367814567
  O   2.32603047492678      0.09205144682411     -0.45566595905545
  O   2.33293885077567     -2.02375347599106      0.09780220725634
