12
Coordinates from ORCA-job run
  C   -0.27445482591859      0.37633761618558     -0.23555987487779
  C   0.93556383932549     -0.19429051261847     -0.38643166724688
  H   1.61093686546271      0.06231799844608     -1.19213895949618
  N   -1.19009913008049     -0.04119210767327      0.84594422944165
  O   -1.72757987788660     -1.13479620184707      0.72584104029742
  O   -1.32382788799132      0.75213889850336      1.77351440311594
  N   -0.85809060193353      1.31111397778148     -1.04465118203316
  H   -0.24551469132804      1.75062679994603     -1.71448202200533
  H   -1.46416187456805      1.95727204443494     -0.55875794494130
  N   1.40818152413133     -1.30805682178853      0.41170380492167
  O   2.27386369687560     -2.00505768638544     -0.11235233391644
  O   0.85618296391149     -1.52741400498468      1.48837050674039
