12
Coordinates from ORCA-job run
  C   -0.37648145221579      0.20915808392088     -0.03395872804203
  C   0.35930447881598     -0.93199577850735     -0.06291626413077
  H   -0.08237159454668     -1.91216104725420     -0.12862703064100
  N   -1.85711437820714      0.03667735698281     -0.07908953252402
  O   -2.30178793331080     -1.08342647263313     -0.29762726203622
  O   -2.52426168167016      1.05089972762266      0.11920345709765
  N   0.00145323293956      1.49542883970799     -0.02165282866029
  H   -0.70071899524447      2.17613435940782      0.21971806844577
  H   0.97737536052789      1.67266570007683      0.16136076775815
  N   1.78544459116122     -0.90661429944437      0.01783764501345
  O   2.36270853553988      0.18853895770072      0.10062795057921
  O   2.35844983621052     -1.99630542758067      0.00312375714010
