12
Coordinates from ORCA-job run
  C   -0.21219279135263      0.43602811500709     -0.14746722481595
  C   0.85604151595696     -0.30040107461263     -0.50419025099039
  H   1.53533346142886      0.00419281287839     -1.28880162156219
  N   -1.19919119044442     -0.02784360512902      0.84889782086258
  O   -1.82894176945428     -1.04279783613447      0.58885196491605
  O   -1.34065385282618      0.70893489410188      1.82232016989378
  N   -0.60535160808719      1.62894900622977     -0.68763947040036
  H   -1.09034912226569      2.23603959131626     -0.04261861466357
  H   0.08502588752409      2.10384292958396     -1.24868481791683
  N   1.16976782964026     -1.58424760768685      0.07443535550735
  O   1.89008382650070     -2.31134172486548     -0.61053645168614
  O   0.73942781337951     -1.84935550068889      1.19543314085568
