12
Coordinates from ORCA-job run
  C   -0.21679709663079      0.44547576314854     -0.10766815943631
  C   0.96016305682942     -0.15462058680059     -0.36268975804045
  H   1.73659195080086      0.31486697810564     -0.95139637057216
  N   -1.23440542497598     -0.14970295901786      0.78295103977228
  O   -0.92695420177292     -0.32456798047049      1.95307643966397
  O   -2.33094090684985     -0.34302064636716      0.26278057748480
  N   -0.61342908384394      1.68748241732340     -0.52035087807205
  H   -0.06621389947674      2.09558213770892     -1.26273057816097
  H   -1.61007178689076      1.77864272854931     -0.65609071810045
  N   1.32795485672629     -1.44699634456889      0.16313939440287
  O   0.43676061114686     -2.22783637506910      0.49196238074384
  O   2.53734192493755     -1.67530513254172      0.20701663031463
