12
Coordinates from ORCA-job run
  C   -0.23936259168028      0.43402452422933     -0.17256453381923
  C   1.00505016190416     -0.04157375288194      0.02589938356918
  H   1.87696332888775      0.58490963664808     -0.11461465195220
  N   -1.43474213379832     -0.38172274787113      0.14093043983415
  O   -2.52431696045864      0.16266580169291     -0.03159111098134
  O   -1.25479883403713     -1.51167547545660      0.57988831954578
  N   -0.56329363681238      1.65466692029487     -0.70022098139634
  H   0.19221940796114      2.31761197127137     -0.76545851906192
  H   -1.44189099217764      2.03522556017241     -0.38469722036807
  N   1.34649337951927     -1.41282667854849      0.38524087397845
  O   1.76795790231772     -1.57336377643063      1.52795143713505
  O   1.26872096837434     -2.26694198312017     -0.49076343648350
