12
Coordinates from ORCA-job run
  C   -0.21628703502869      0.43510151581914     -0.14419876129947
  C   0.96653515337370     -0.17726004546532     -0.33535864570031
  H   1.76364578901527      0.26852814034507     -0.91478543336093
  N   -1.34252229586065     -0.21553906165568      0.55688108873043
  O   -1.75683738655614      0.38609161772887      1.54523084486816
  O   -1.80232002591538     -1.23430073850597      0.06185433075670
  N   -0.59807157790326      1.65615784937548     -0.62661047146662
  H   0.14640671834090      2.24390711960395     -0.96895910330110
  H   -1.26221820329189      2.14247316338216     -0.04159087409688
  N   1.27226829886430     -1.49691498489106      0.16119231012613
  O   0.64576645259834     -1.92537818770157      1.12867426978834
  O   2.18363411236349     -2.08386638803508     -0.42332955504445
