12
Coordinates from ORCA-job run
  C   -0.41878688744397      0.10827314341592     -0.00670254349084
  C   0.65235966269319     -0.46883255670223      0.59733209107058
  H   0.62335331877841     -0.85236362230154      1.60336271128095
  N   -1.65767969463409      0.21980886906221      0.81487925669842
  O   -1.66674430611068     -0.31450615524336      1.91694326160279
  O   -2.57096657860504      0.88439628746354      0.32835393656944
  N   -0.56987248147984      0.58024206445301     -1.24997857322594
  H   -1.38521077808011      1.13812564394073     -1.44367644621872
  H   0.25979830686100      0.65646056552461     -1.81741154120495
  N   1.90629510926100     -0.60780426736258     -0.07106614919854
  O   2.81278173057909     -1.14778698316716      0.56420725544347
  O   2.01367259818106     -0.19801298908315     -1.23724325932666
