12
Coordinates from ORCA-job run
  C   -0.18655450570416      0.44070551563194     -0.19794692639347
  C   0.99843571305361     -0.18514617856552     -0.28409489095380
  H   1.84284055095822      0.25569184240832     -0.79518831190074
  N   -1.38150869692595     -0.24213618516054      0.35466987516690
  O   -1.83699187551406      0.25383826837648      1.38120520466233
  O   -1.82994144088182     -1.19022419434735     -0.27816900875829
  N   -0.38807713368349      1.74319603584336     -0.60256253807241
  H   -1.35736859644077      2.01131395565282     -0.68401245576552
  H   0.14255835091546      2.42938474852366     -0.08765943187007
  N   1.25221462680260     -1.50156661297003      0.26037343837950
  O   0.50524256749249     -1.93774240083758      1.13365041978473
  O   2.23815043992788     -2.07731479455555     -0.20126537427916
