12
Coordinates from ORCA-job run
  C   -0.18954562679961      0.46303850308481     -0.08247161509570
  C   0.96628919460656     -0.17842763695184     -0.33339355162730
  H   1.79150549144677      0.29293077026743     -0.84982352289975
  N   -1.27486161628153     -0.14081451051059      0.71717715310979
  O   -2.35412667790469     -0.23971835443143      0.13770772263597
  O   -1.03093629007137     -0.41432331543180      1.88336055224739
  N   -0.50463922217874      1.75155336160023     -0.41619411533650
  H   0.09544539638396      2.18167008992899     -1.10332645044090
  H   -1.48817525071533      1.90345291588135     -0.58877880637170
  N   1.24585394699542     -1.52305179952085      0.10923733235896
  O   2.43912195714512     -1.81798871457762      0.18412738519733
  O   0.30306869737345     -2.27732130933867      0.34237791622242
