12
Coordinates from ORCA-job run
  C   -0.38295929146336      0.18242614076859      0.08200267754784
  C   0.38385420477204     -0.90189351684490     -0.20241905891304
  H   -0.03098582339964     -1.86914113911534     -0.43139422883892
  N   -1.85867580098730     -0.02793676016077      0.03882864714088
  O   -2.27543546840409     -1.17300626962344     -0.08486844263690
  O   -2.55061845814028      0.98538413359405      0.12524368059828
  N   -0.04119326318209      1.42526057563030      0.45049722595238
  H   -0.75825920635878      2.13093862157603      0.40088773037617
  H   0.93214485212851      1.66996833379713      0.35065539006434
  N   1.81007861911565     -0.82409281564970     -0.23257004938338
  O   2.41342883725332     -1.85997932514193     -0.51343728607509
  O   2.35762079866603      0.26107202116998      0.01657371416744
