12
Coordinates from ORCA-job run
  C   -0.18564118147852      0.46385931361933     -0.08439115788604
  C   0.96257979821256     -0.19059772838374     -0.33768288013391
  H   1.78777164996755      0.26913464213975     -0.86452688625350
  N   -1.27273866230656     -0.12307791578344      0.72590036747576
  O   -1.02271243219213     -0.39908759651498      1.89022934319803
  O   -2.35836111975837     -0.20756330074171      0.15603820067113
  N   -0.48969979245287      1.75243703749743     -0.42622276272504
  H   -1.47275574010328      1.91600467782617     -0.58979031586963
  H   0.11100959821195      2.17445964361639     -1.11762084809747
  N   1.23216799934767     -1.53507322736334      0.11118080985369
  O   2.42330057273237     -1.83969197077153      0.18278308450514
  O   0.28407930981965     -2.27980357514033      0.35310304526184
