12
Coordinates from ORCA-job run
  C   -0.35378490352738      0.21382822664723      0.00987285563292
  C   0.48471195113745     -0.77022156901679      0.40647078647304
  H   0.23135325461895     -1.55903978541604      1.09601981238705
  N   -1.70181004892246      0.16826949908456      0.66265102859976
  O   -2.63291065389468      0.62491449457378      0.00170662768957
  O   -1.79537500106709     -0.41573740978284      1.73428181016051
  N   -0.24448320768428      1.15323669617370     -0.96284914833203
  H   -1.08189995509230      1.70988511507131     -1.07066861458842
  H   0.62489585254641      1.66164915176022     -1.00809203749359
  N   1.80652645608122     -0.89230180944253     -0.15022884979338
  O   2.47105399487016     -1.85600012580377      0.23483461247411
  O   2.19172226093401     -0.03748248384882     -0.95499888320954
