12
Coordinates from ORCA-job run
  C   -0.35860234742005      0.22021777799657      0.09729973323210
  C   0.51555980889236     -0.79394725201843      0.32545655999852
  H   0.33390993383498     -1.57310580057616      1.04656220461628
  N   -1.61844040800386      0.19274808192189      0.89475005703317
  O   -1.71353395918562     -0.63088503110203      1.79629862828099
  O   -2.47931376403296      1.00982489114095      0.57165921403518
  N   -0.26677155931259      1.29323581267826     -0.70077145220501
  H   0.48727811476337      1.29144271970235     -1.37048260889378
  H   -1.11510010701277      1.80609454342889     -0.87922908061531
  N   1.74088571741001     -0.90444862867565     -0.40075190055475
  O   2.45751679499210     -1.86849655042898     -0.13039104056710
  O   2.01461177507503     -0.04368056406765     -1.25140031436030
