16
Coordinates from ORCA-job run
  C   0.78973123229945      0.60735756413392      0.05860182296574
  C   -0.51986937293784     -0.09419704086664     -0.30403430074516
  Br  0.73551616983734      1.38169705771932      1.85747933940188
  H   -0.40393752423958     -0.31649015335778     -1.38150021814556
  H   0.91114903601225      1.46916730002432     -0.60358034708182
  C   1.99376830443339     -0.31168104061202     -0.04052647927509
  H   2.92194343949127      0.23653815156822      0.12529328717562
  H   1.92751494877014     -1.10386718856082      0.70631471123998
  H   2.03276128029237     -0.76114988931265     -1.03946981122743
  C   -1.74053082072798      0.79772233159849     -0.14602474799098
  H   -2.61131119210949      0.33233929981024     -0.61690490583430
  H   -1.95631648947935      0.95219759050141      0.91201210452347
  H   -1.58224295369441      1.77224816473932     -0.61318663246741
  N   -0.68947168807509     -1.30451268955331      0.49256192530687
  H   -1.66072459061015     -1.58995767458889      0.48452608670073
  H   -0.14697977926232     -2.06741178324312      0.10743816545345
