16
Coordinates from ORCA-job run
  C   0.80117828487628      0.56083437003801      0.09001193249768
  C   -0.49753185640675     -0.13350274067702     -0.31698573706911
  Br  0.77086263697124      1.00842837738281      2.00972476075365
  H   -0.36355560809465     -0.34399625865875     -1.38791387524886
  H   0.85371663235417      1.53449055889733     -0.40321901199199
  C   2.03928535943560     -0.26317498818238     -0.20363224123966
  H   1.99265559404518     -1.21402710602660      0.32426910858155
  H   2.08313865487536     -0.46816038069841     -1.27850879220151
  H   2.94548028964300      0.27201661121981      0.08370116177590
  C   -1.72584283468591      0.76202818685263     -0.16471551678387
  H   -1.92253048987694      0.97171973478036      0.88868312150202
  H   -1.59756987857529      1.71576195859451     -0.68611290361654
  H   -2.60453712052039      0.26364283375377     -0.58337858848400
  N   -0.59863102343605     -1.42865447310393      0.34881510429044
  H   -0.81013276307917     -1.28273191228319      1.33024704275011
  H   -1.36598587752565     -1.95567477188895     -0.05098556551581
