16
Coordinates from ORCA-job run
  C   0.91222860342083     -0.27749695951418     -0.28022525571626
  C   -0.59894888196988     -0.08882832872825     -0.36167574827621
  Br  1.62658053893313     -0.53221822981923     -2.10195915359333
  H   -0.78638614404865      0.77287017790720     -1.02429224312492
  H   1.11212078871848     -1.22743502494134      0.22144713501682
  C   1.66397389648325      0.87001510722365      0.36723692986945
  H   1.42175169899931      1.81768401716589     -0.11968766364466
  H   1.40271999101191      0.94011409842731      1.42566597071499
  H   2.74105074102119      0.71523896023546      0.29633617740416
  C   -1.17848500242577      0.21612255209942      1.01617414844216
  H   -0.89389726093004     -0.56384354956351      1.72690786784413
  H   -2.27052539867995      0.23387833726707      0.96047829182394
  H   -0.85468460144758      1.18719212023665      1.39225524951795
  N   -1.20792208895060     -1.32668481715118     -0.84204665882394
  H   -2.21265021907967     -1.20624335678977     -0.89914595828909
  H   -0.87592666105597     -1.53136510405519     -1.77746908916520
