16
Coordinates from ORCA-job run
  C   0.76050226599670      0.52476523423154      0.04943437472029
  C   -0.60411825136937     -0.08858528620307     -0.30827973577516
  Br  0.84555985772304      0.96535882655173      1.96386333561898
  H   -0.53611310785651     -0.27846798520800     -1.38960525399121
  H   0.85804455463334      1.49107101706074     -0.45296349783982
  C   1.93887103463405     -0.36661904398431     -0.29633378330082
  H   1.90468697491553     -0.61839249039700     -1.36167289811833
  H   2.88552930459936      0.13476152561170     -0.09133450914659
  H   1.91752189161984     -1.29065280976221      0.28365850168176
  C   -1.75752971085415      0.87650978797577     -0.07588963206020
  H   -2.67155744445553      0.45141079427862     -0.49242046304117
  H   -1.91392342115149      1.04250724032098      0.99212746526684
  H   -1.56795993206907      1.84531898803726     -0.54547140314720
  N   -0.91560821343192     -1.36317942222412      0.31970408051357
  H   -0.23163914784654     -2.06871274610667      0.07703614088376
  H   -0.91126665508727     -1.25709363018295      1.32814727773529
