17
Coordinates from ORCA-job run
  C   -0.40084214460990     -0.10466351308316     -0.78247981786143
  C   0.98756533568145     -0.06024971583727     -0.11033740838148
  H   -0.27835586583834     -0.48926606265671     -1.79848201985576
  H   1.65607959518373      0.47007935878586     -0.79686711613406
  N   -0.79871455621848      1.33594511496653     -0.97943717752907
  O   -1.73410374170232      1.78237365280489     -0.32044553395304
  O   -0.11134794570261      1.97689937602283     -1.77177833122859
  C   -1.46321244278817     -0.87641581854962     -0.03269563448624
  H   -1.15199242073633     -1.91911472686748      0.05778893504069
  H   -2.40725768695530     -0.84463849943850     -0.57775119976273
  H   -1.63815926108639     -0.46609346192733      0.96028334301527
  C   1.48049558789600     -1.43191614582492      0.02174082085654
  N   1.85615968638905     -2.53826724909582      0.14069283837198
  C   0.99249602304950      0.65515281859643      1.24430861659902
  H   0.64729139506922      1.68464917698261      1.13343402861903
  H   0.35548524443888      0.14627539262560      1.96822347895379
  H   2.00741319793000      0.68025030249606      1.64380217773607
