15

C	0.0	0.0	0.0
C	-0.523719	0.064123	-1.431474
Cl	1.797407	0.0	0.0
H	-0.206319	0.994091	-1.910926
H	-1.630672	0.073294	-1.302213
C	-0.436924	1.264	0.73248
H	-1.534285	1.26323	0.708931
H	-0.088474	1.227227	1.768862
H	-0.03577	2.166335	0.260913
N	-0.507917	-1.213256	0.582392
H	-0.283798	-1.215202	1.573709
H	-1.538126	-1.10001	0.505659
C	-0.121248	-1.064221	-2.259628
N	0.170763	-1.946757	-2.976919
H	-3.108276	0.0	0.0
