15

C	0.0	0.0	0.0
C	-0.593222	-0.030556	-1.397768
Cl	1.853162	0.0	0.0
H	-0.321362	0.865644	-1.960915
H	-1.703528	-0.035277	-1.173167
C	-0.493109	1.233815	0.716982
H	-0.12183	1.25439	1.7455
H	-0.160788	2.140384	0.207053
H	-1.593407	1.148469	0.702801
N	-0.423305	-1.164193	0.692098
H	-0.158137	-1.131266	1.666928
H	-0.068217	-2.009947	0.266458
C	-0.224945	-1.219117	-2.150869
N	0.069137	-2.188339	-2.746231
H	-3.280097	0.0	0.0
