15

C	0.0	0.0	0.0
C	-0.303597	-0.037744	-1.510907
Cl	1.802049	0.0	0.0
H	0.106318	-0.986188	-1.87615
H	0.274762	0.762521	-1.983847
C	-0.428906	1.313476	0.636432
H	0.001525	2.177462	0.120454
H	-1.525035	1.320453	0.581715
H	-0.11119	1.335249	1.684365
N	-0.550747	-1.168552	0.614529
H	-1.581363	-1.007954	0.447349
H	-0.426724	-1.079578	1.620503
C	-1.673386	0.078419	-2.056334
N	-2.438459	0.190954	-2.94904
H	-2.909845	0.0	0.0
