13
Coordinates from ORCA-job run
  C   1.18877053656843     -0.09545639859429     -0.29636818882851
  C   -0.32110281921138     -0.09838599680596     -0.61015638306787
  Cl  1.80327279740021     -1.77028700574984     -0.22370935053732
  H   -0.44892112460398     -0.69380332929858     -1.52106039772740
  H   1.73104962852634      0.39532794475722     -1.10736064501832
  C   1.47277020247643      0.59915325430800      0.95582074260657
  N   1.67971861905937      1.16645024000709      1.96327316964716
  C   -0.72378959552751      1.27822764940924     -0.91104442369775
  N   -1.04103108795457      2.38564584561874     -1.13871059604042
  C   -1.17409314474769     -0.68347872499236      0.51632296930782
  H   -1.07103761957022     -0.08946479310981      1.42613175117692
  H   -0.87224875168761     -1.71004277311872      0.72522532912516
  H   -2.22435764072781     -0.68388591243072      0.22163602305395
