13
Coordinates from ORCA-job run
  C   1.11242350096398      0.35793838888722     -0.03995561474130
  C   -0.25851237942226     -0.16260210942065     -0.50856888978651
  Cl  2.25297748955824      0.45756713842854     -1.40639934087724
  H   -0.09397806920605     -1.12559232320404     -1.00422112005623
  H   1.00502496784601      1.37065209412148      0.35747068951921
  C   1.66157280277720     -0.50846180680024      0.99931931208460
  N   2.07742272911039     -1.21366628174931      1.84142593529899
  C   -0.81189532960292      0.76585168151822     -1.49699992080750
  N   -1.28830024487048      1.51836641766138     -2.26170685808024
  C   -1.22983805699020     -0.33310664036312      0.66459181214237
  H   -2.20224082186326     -0.66164551591300      0.29540474645446
  H   -1.36849255042760      0.61316719627791      1.19223194223803
  H   -0.85516403787305     -1.07946823944440      1.36640730661136
