13
Coordinates from ORCA-job run
  C   1.19147067144092     -0.04375827923849     -0.29838341559069
  C   -0.31733674275205     -0.10239140672358     -0.61083358088549
  Cl  1.87217308507699     -1.69394836031317     -0.25066014069753
  H   -0.42296567409741     -0.69052993327263     -1.52929460092783
  H   1.71325900364811      0.47969851165827     -1.10234357555039
  C   1.44896345449958      0.64220476138902      0.96441186276040
  N   1.62921653130079      1.19907301508611      1.98259837276183
  C   -0.77410253580246      1.26092603904881     -0.89529298785901
  N   -1.13226260418994      2.35755272184836     -1.11488622263580
  C   -1.14516950719402     -0.73490629960574      0.50866902567843
  H   -1.06335148073460     -0.14965483748166      1.42618679785559
  H   -0.80375909192864     -1.75174962256702      0.70363929102148
  H   -2.19513510926726     -0.77151630982828      0.21518917406902
