13
Coordinates from ORCA-job run
  C   1.10224584272728      0.39155015646229     -0.00646755785144
  C   -0.24274851811758     -0.15545836985407     -0.51858308558965
  Cl  2.26727132888332      0.56252503007165     -1.34517880776673
  H   -0.03921358976195     -1.09843848690082     -1.03746771423842
  H   0.95663076892261      1.38933961775323      0.41595755674033
  C   1.65479187731687     -0.48790464744534      1.02005814258473
  N   2.06723014543924     -1.20905600361823      1.85026886070582
  C   -0.80311643712266      0.78541848489297     -1.49088599961486
  N   -1.28459776427954      1.54883828508829     -2.24171946004484
  C   -1.23222400700625     -0.38821536391341      0.62841791341657
  H   -1.41124271236020      0.53832011015404      1.17844472869041
  H   -2.18601880662293     -0.73602641884960      0.22952171926325
  H   -0.84900812801822     -1.14189239384100      1.31763370370483
