13
Coordinates from ORCA-job run
  C   1.13000034530380      0.29478564954783     -0.06506515000638
  C   -0.27162209273014     -0.17037592076312     -0.50021304287937
  Cl  2.26096061176277      0.27068689870793     -1.44326623640110
  H   -0.16413253044437     -1.16020250313629     -0.95685920031385
  H   1.08149033016427      1.32888196405742      0.28639847506239
  C   1.64126568546739     -0.55297277488463      1.00844107478980
  N   2.02102997915816     -1.24430136048154      1.87860820979070
  C   -0.78466181176112      0.74724869502125     -1.51983322273317
  N   -1.22705041234523      1.49798066299095     -2.30655917973202
  C   -1.23848943107786     -0.23974285459477      0.68694039415685
  H   -2.23058193483924     -0.53121129992956      0.33957127863452
  H   -0.89665987564244     -0.97473105798215      1.41688790404359
  H   -1.32154886301598      0.73395390144668      1.17494869558803
