13
Coordinates from ORCA-job run
  C   1.19110483280070     -0.05603118837841     -0.29793848283898
  C   -0.31835153503155     -0.09643392218570     -0.61168186651782
  Cl  1.85411882137779     -1.71354249239414     -0.25873928942093
  H   -0.42968875941790     -0.68019522010126     -1.53226851725441
  H   1.71884697130609      0.46637935016098     -1.09869223995134
  C   1.45440217610687      0.62045633927917      0.96856904090501
  N   1.63903518842395      1.17098588121158      1.98954539524488
  C   -0.75903571490432      1.27287198214491     -0.89169451020931
  N   -1.10547946866962      2.37437032493943     -1.10542999312642
  C   -1.15356155636544     -0.72388062969373      0.50508141710343
  H   -0.81979658724689     -1.74352698862327      0.69906735315610
  H   -1.06938665471876     -0.14058098436798      1.42359707749537
  H   -2.20320771366092     -0.75287245199158      0.20958461541442
