13
Coordinates from ORCA-job run
  C   1.11022470830117     -0.15897123866425      0.12872305253005
  C   -0.33332639083515      0.10958092766498     -0.33344790524975
  Cl  1.21192804031008     -0.33474632438886      1.89940923225929
  H   -0.28032205491981      0.24707488409627     -1.42091508298483
  H   1.43748734628033     -1.11031211437647     -0.29923820755125
  C   2.01245508577865      0.89678044711715     -0.32233565105046
  N   2.72244486473724      1.74269884873083     -0.72192679492373
  C   -0.83162827173998      1.35959829193858      0.24364524443505
  N   -1.26008044526333      2.34814525485431      0.70984301175074
  C   -1.27157990627798     -1.05873953250717     -0.02386727747057
  H   -2.26334044500997     -0.85581110325985     -0.43035096516435
  H   -0.89126985498572     -1.97510325191533     -0.48177273077122
  H   -1.36299267637554     -1.21119508929019      1.05123407419101
