13
Coordinates from ORCA-job run
  C   1.18124511843121     -0.05847523941737     -0.33347607785634
  C   -0.33717449622749     -0.10363817121585     -0.59957397959421
  Cl  1.84680553890583     -1.71464370405492     -0.29304184582630
  H   -0.47598341737283     -0.69579470176414     -1.51102865880769
  H   1.68300803615027      0.45368736876252     -1.15730907948902
  C   1.48372487240977      0.63670088093921      0.91417545406454
  N   1.70051276057701      1.20683018050356      1.91782722384918
  C   -0.78858619881495      1.26251712099112     -0.87801274966384
  N   -1.14328193448756      2.36137790857371     -1.09231268978293
  C   -1.13641974065818     -0.72245682488044      0.54786896726170
  H   -0.80131552327296     -1.74299796548261      0.73451825910276
  H   -1.01785162084091     -0.13593511146937      1.46048481163247
  H   -2.19568339479922     -0.74717174148542      0.28888036510966
