17

C	-0.519933	0.005331	-1.425676
C	0.0	0.0	0.0
Cl	0.195293	1.275809	-2.426552
H	1.095256	0.0	0.0
H	-1.604194	0.12237	-1.466089
N	-0.271102	-1.328851	-2.086741
O	-1.26885	-2.033582	-2.252019
O	0.878366	-1.633807	-2.360219
C	-0.475962	-1.260236	0.721534
H	-0.019703	-2.156992	0.298011
H	-0.164177	-1.205496	1.767044
H	-1.566244	-1.371504	0.687546
C	-0.483861	1.257615	0.714956
H	-1.579968	1.305407	0.747913
H	-0.108651	1.253619	1.740924
H	-0.105203	2.159528	0.231904
Br	3.585974	0.0	0.0
