17

C	-0.372702	0.022657	-1.472003
C	0.0	0.0	0.0
Cl	-0.013125	-1.476477	-2.335615
H	1.096835	0.0	0.0
H	0.151577	0.82739	-1.983085
N	-1.837759	0.343992	-1.64457
O	-2.099664	1.502719	-1.969566
O	-2.665241	-0.523434	-1.382537
C	-0.505539	-1.205407	0.777762
H	-0.154255	-2.139401	0.338557
H	-0.105286	-1.149719	1.793071
H	-1.597511	-1.231728	0.831539
C	-0.435957	1.312432	0.65195
H	-1.523289	1.376651	0.769952
H	0.02323	1.378535	1.640528
H	-0.099578	2.177496	0.075183
Br	3.562811	0.0	0.0
