17

C	-0.529469	0.025042	-1.422675
C	0.0	0.0	0.0
Cl	0.182129	1.29734	-2.419402
H	1.095276	0.0	0.0
H	-1.612682	0.150397	-1.447478
N	-0.305634	-1.306247	-2.096065
O	-1.311531	-2.008329	-2.228723
O	0.834684	-1.617676	-2.406381
C	-0.47523	-1.265429	0.711432
H	-1.566057	-1.370857	0.683814
H	-0.155965	-1.221508	1.755151
H	-0.026575	-2.160656	0.276453
C	-0.476718	1.252361	0.730552
H	-1.572495	1.299035	0.775565
H	-0.103809	2.159233	0.252647
H	-0.089767	1.238573	1.751933
Br	3.61271	0.0	0.0
