17

C	-0.408872	-0.048926	-1.455907
C	0.0	0.0	0.0
Cl	-2.173479	-0.246187	-1.700428
H	1.096407	0.0	0.0
H	0.078831	-0.875428	-1.968021
N	0.015219	1.173898	-2.229815
O	0.917099	1.002816	-3.04569
O	-0.553526	2.234727	-1.99135
C	-0.408325	-1.308954	0.676652
H	-0.096099	-2.174479	0.08563
H	-1.487743	-1.367819	0.842186
H	0.101209	-1.373964	1.640383
C	-0.507223	1.206397	0.776601
H	-0.083353	2.136901	0.401312
H	-1.598205	1.282069	0.743177
H	-0.196767	1.09797	1.818936
Br	3.555132	0.0	0.0
