16

C	-0.414477	0.082034	-1.484927
C	0.0	0.0	0.0
Br	-2.350736	0.48562	-1.614255
H	1.094297	0.0	0.0
C	0.386111	1.095227	-2.299065
H	0.154728	0.966774	-3.357689
H	1.448247	0.904053	-2.113789
H	0.149094	2.108741	-1.988143
C	-0.243089	-1.246418	-2.071438
N	-0.097284	-2.299655	-2.574387
C	-0.530116	-1.184026	0.656379
N	-0.92716	-2.160201	1.176215
N	-0.411841	1.226621	0.767136
O	-0.055246	2.302637	0.300726
O	-1.038967	1.070811	1.810436
Br	3.301923	0.0	0.0
