16

C	-0.404193	0.030185	-1.488436
C	0.0	0.0	0.0
Br	-2.371586	0.162495	-1.672634
H	1.094274	0.0	0.0
C	0.266428	1.171013	-2.252802
H	0.064641	1.051512	-3.317439
H	1.344534	1.126386	-2.060215
H	-0.119671	2.132819	-1.917064
C	-0.026985	-1.253901	-2.078312
N	0.281299	-2.285234	-2.552022
C	-0.523736	-1.165007	0.695613
N	-0.902388	-2.125353	1.256153
N	-0.461455	1.251625	0.691876
O	-1.431304	1.17062	1.446304
O	0.171729	2.271818	0.432874
Br	3.332495	0.0	0.0
