16

C	-0.435558	-0.033031	-1.478131
C	0.0	0.0	0.0
Br	0.12807	1.652472	-2.309292
H	1.110074	0.0	0.0
C	0.292779	-1.187718	-2.166013
H	1.366279	-1.076137	-1.995198
H	-0.048295	-2.135845	-1.737788
H	0.073824	-1.180445	-3.234231
C	-1.880769	-0.135268	-1.666565
N	-3.030715	-0.252342	-1.885042
C	-0.511887	-1.171739	0.696896
N	-0.918024	-2.129273	1.246024
N	-0.52431	1.221655	0.703897
O	-1.748037	1.320218	0.774007
O	0.29498	2.017066	1.142923
Br	3.369276	0.0	0.0
