17
Coordinates from ORCA-job run
  C   -0.70877112961044     -0.56481880321147      0.16904461526911
  C   0.66286574431831     -0.19662064025008     -0.36630309566475
  F   -0.69840194963133     -1.78222694821601      0.72975209032817
  H   0.91655342987797     -1.07603828480756     -0.96868411191843
  N   -1.26525425510557      0.40466665520568      1.19375259701758
  O   -0.90558887703681      1.57232366088239      1.08965501924647
  O   -2.03554605924299     -0.06154494257223      2.02054484809367
  N   -1.71067272147417     -0.59350731272307     -0.97678153665532
  O   -1.51779017893578     -1.49686379407555     -1.77640310232439
  O   -2.58030248018020      0.26386791996717     -1.00163175590100
  C   1.67966957228590     -0.05775697889215      0.76536923955706
  H   1.65165324457753     -0.91529739556435      1.44218961051656
  H   2.68255306406257      0.00151348340906      0.33779937836853
  H   1.49967266878451      0.85312814753101      1.33843142965941
  N   0.52871806977841      0.92041068874013     -1.28083607451628
  H   1.29680756471831      0.93275859583529     -1.93735490622252
  H   0.50383429281378      1.79700594874173     -0.77754424485387
