17
Coordinates from ORCA-job run
  C   -0.84861987197087     -0.06204633652563     -0.38103580456010
  C   0.66587382187169      0.00707432916115     -0.46954817063552
  F   -1.39020506241080      0.31513568313573     -1.55488202189460
  H   0.91634202118170     -0.66731759978794     -1.30069430001883
  N   -1.41692457484454     -1.44093798005436     -0.10290409041313
  O   -2.59059179121796     -1.47151029522260      0.24574144638292
  O   -0.68639167272282     -2.39839241792512     -0.33484178284698
  N   -1.39520988660462      0.83851962653590      0.70297498646452
  O   -2.00372967530540      1.83578605062389      0.35764421446385
  O   -1.14585569555849      0.45903605198481      1.84115188293876
  C   1.41631158421992     -0.44057517605617      0.77510824483875
  H   2.48201604911396     -0.47641368202956      0.53437787024351
  H   1.11447689819650     -1.43337735687327      1.10218050303266
  H   1.26557179635365      0.26738771872751      1.58867707397675
  N   0.95392350386144      1.41186417647859     -0.73415371864243
  H   1.93636155929908      1.59630221153176     -0.58020364827935
  H   0.72765099653755      1.66046499629532     -1.68859268505079
