17
Coordinates from ORCA-job run
  C   -0.77202835357359      0.03028989404768      0.29194279888372
  C   0.59831274656233      0.12933568993849     -0.34397221458878
  F   -0.74891655506000      0.37592396342334      1.57878914409263
  H   0.47074141709569     -0.16004708984236     -1.38728086575457
  N   -1.75490744964020      0.94518362766176     -0.43159825242282
  O   -2.36064172301710      1.75405273907267      0.25083677834708
  O   -1.83143011929596      0.76487484089210     -1.63904835527754
  N   -1.37842810424493     -1.36177780436860      0.19126660311866
  O   -2.06539194273399     -1.72764902685474      1.13621350127117
  O   -1.13794292114654     -1.97759586340360     -0.84097523947177
  C   1.58583757451317     -0.80322958070949      0.35149182564630
  H   1.29975969467553     -1.85256866272383      0.25498026475779
  H   1.66657981060469     -0.55674127292527      1.41291362854930
  H   2.57065983112605     -0.68082500745180     -0.10327478252037
  N   0.93050353992521      1.54597671924357     -0.29573716130862
  H   1.58823537887076      1.78241570783819     -1.02541507122488
  H   1.33905717533888      1.79038112616190      0.59786739790269
