17
Coordinates from ORCA-job run
  C   -0.78350286699023      0.05324643440433      0.28737617693065
  C   0.60765607413724      0.13326344230425     -0.31559210661426
  F   -0.80050411003599      0.39760782605662      1.57009733078249
  H   0.51186482739442     -0.17965897183083     -1.35596312061734
  N   -1.76553107382324      0.94919747338256     -0.45553565712975
  O   -1.56276846889163      1.10801884202559     -1.65168862890884
  O   -2.68465830873694      1.40142002371471      0.21327728898403
  N   -1.35501311196774     -1.35220079466377      0.16204895515086
  O   -1.42829116656408     -1.77561174834134     -0.98671726142542
  O   -1.64866135710746     -1.93496842843380      1.19547233564668
  C   1.54716048935542     -0.80556459271813      0.43118611842495
  H   2.54315984966918     -0.73713901937425     -0.00977656793620
  H   1.22469227711233     -1.84723348582609      0.37193625516806
  H   1.61111529872498     -0.52563106541714      1.48520172927759
  N   0.98916964460448      1.53467163935212     -0.22939375062585
  H   1.24139144259276      1.90630535078529     -1.13271872075631
  H   1.75172056052651      1.67527707457989      0.41778962364865
