17
Coordinates from ORCA-job run
  C   -0.87565654579573     -0.01914065057342     -0.45387608166908
  C   0.64650430569404      0.01993345128398     -0.51349086248097
  F   -1.40778044557977      0.15558874217494     -1.66429450995575
  H   0.85711335401839     -0.57051889239054     -1.41224375729613
  N   -1.34884636695805     -1.36864671991923      0.06272165542624
  O   -1.69152279021020     -1.43926301486906      1.23627519556110
  O   -1.26919392993798     -2.27920453840004     -0.75107429401787
  N   -1.48486913170191      1.01945129939893      0.46798864085215
  O   -2.63060815022195      1.35577652596125      0.20833030054815
  O   -0.78997271399972      1.40686505828887      1.39959907405299
  C   1.34840130237538     -0.63403246871145      0.67295490691562
  H   1.08915735725649     -1.69035504963588      0.77393559436373
  H   1.10917096971915     -0.12269953864257      1.60448491664453
  H   2.42597500531103     -0.57421477730700      0.50600382343074
  N   1.00257267518147      1.40221501150525     -0.79267650883558
  H   1.22201862279858      1.89141505944259      0.06551425638428
  H   1.80053648205082      1.44783050239338     -1.41015234992414
