17
Coordinates from ORCA-job run
  C   -0.75657408051671     -0.50858156297011      0.13628798636862
  C   0.67145555564610     -0.25470647178144     -0.31023599579698
  F   -0.87115307318416     -1.70164717630764      0.73627132779004
  H   0.90386497785086     -1.17097327361204     -0.86439684212548
  N   -1.31505786635133      0.53482012331147      1.08460921031675
  O   -0.86373743828126      1.66947354399499      0.97294282434546
  O   -2.17705811504985      0.15440348835672      1.86343043640281
  N   -1.67539095213030     -0.51269564792990     -1.07779973115040
  O   -2.47664580076209      0.40170059213023     -1.19524800668855
  O   -1.49268253511350     -1.45790774398664     -1.83002295757278
  C   1.61468491397702     -0.14322720581963      0.88620154150724
  H   1.45919988600629      0.79803880489154      1.41561778078002
  H   1.48013218120290     -0.97153578285400      1.58623140826473
  H   2.64650446704713     -0.16716585490930      0.53000858783892
  N   0.67995889899880      0.83423664343996     -1.26775199498745
  H   1.48941422882205      0.76813970718003     -1.86905004661333
  H   0.68508475183807      1.72862781686576     -0.79609552867961
