17
Coordinates from ORCA-job run
  C   -0.81875769142971     -0.07687009433943     -0.38146099813553
  C   0.70305212575326     -0.01414007519425     -0.52328480011034
  F   -1.39602296548428      0.10832920050994     -1.58083020239773
  H   0.88215224745760     -0.71403099926234     -1.34904284256076
  N   -1.24744088599653     -1.43525984588765      0.13637550346716
  O   -1.24877087076543     -2.33002870884837     -0.69800842266589
  O   -1.46921448196365     -1.52520515602383      1.33794252499808
  N   -1.44850664742492      0.93522719228286      0.55793073641280
  O   -2.65563190391367      1.08529791950160      0.42835968675269
  O   -0.71248503388729      1.50497150945821      1.35594678867166
  C   1.46541742774518     -0.50818343386789      0.69695885434383
  H   1.21745539027754     -1.54228061292716      0.94095857782280
  H   1.27105894332427      0.11277339581250      1.57007860630719
  H   2.52843254278549     -0.45864670271201      0.45952029932001
  N   1.17435501351011      1.28661765769073     -0.94661614602100
  H   0.70916534989580      1.59862642339006     -1.78936786167441
  H   1.04574144011624      1.97280233041701     -0.21446030453058
