17
Coordinates from ORCA-job run
  C   -0.83748215190674     -0.22556682263058     -0.31297176575196
  C   0.61059658466395      0.20979890024448     -0.44213283492244
  F   -1.16909019150928     -1.09582634929513     -1.27702734115210
  H   0.66649249997524      0.50853504146905     -1.49485966273780
  N   -1.18568746630888     -0.86417760354118      1.01791297015732
  O   -0.53799566360282     -0.48622178765223      1.98803784764321
  O   -2.09159858208076     -1.68476266872263      1.00669548182301
  N   -1.74754164902285      0.98681871010316     -0.45401227671742
  O   -2.36874700713713      1.35706351506025      0.53040016565606
  O   -1.74508662902481      1.47596848053426     -1.57350255599272
  C   1.56354450798385     -0.96041878327537     -0.20513005676482
  H   2.57158773392444     -0.66491934697133     -0.50285867978563
  H   1.58725286207414     -1.23322449371165      0.85108727141651
  H   1.28152890667321     -1.83746232498977     -0.79293451562826
  N   0.81667536352277      1.40653241113791      0.35024084127760
  H   0.98703914069058      1.17236974983773      1.31900213288396
  H   1.59851174108508      1.93649337240305     -0.00894702140450
