17
Coordinates from ORCA-job run
  C   -0.88192078674165     -0.05414029453211     -0.39201997384230
  C   0.63758060040150      0.03882477038415     -0.49296770826800
  F   -1.42749093720198      0.19906111912595     -1.59114991643954
  H   0.86055687400503     -0.56370257439199     -1.38151505809685
  N   -1.35119163517775     -1.44438471575813      0.00098849218827
  O   -2.10251714348630     -1.56916164209624      0.95944034074523
  O   -0.92148603720807     -2.33129133988657     -0.72890161828691
  N   -1.46219349174566      0.92340109119606      0.60474919266457
  O   -0.94046433156054      0.90854107780816      1.71123129694751
  O   -2.38642666378894      1.62363179797956      0.22514270370780
  C   1.40672408792861     -0.54102557857604      0.68420824744400
  H   1.10717926792157     -1.56746693727133      0.90087709601747
  H   2.46786435609572     -0.55423813071748      0.42506123055340
  H   1.26456470359549      0.05969438905640      1.58065488878306
  N   0.91941891598698      1.44980337521343     -0.71030187121587
  H   1.67302269707163      1.77189532035904     -0.12080529462610
  H   1.13677952390435      1.65155827210710     -1.67469204827569
