17
Coordinates from ORCA-job run
  C   -0.81286782039047     -0.21681384977708     -0.37701597003091
  C   0.62906729358422      0.25653426268076     -0.38810650382660
  F   -1.06868862220729     -1.01451013045210     -1.42338898906766
  H   0.73591844436900      0.64088740819921     -1.40860993166828
  N   -1.22013488233006     -0.96593125991459      0.87755185540768
  O   -2.10821783187772     -1.79619606774042      0.74997425722244
  O   -0.63327020576587     -0.65907836464930      1.90949525934592
  N   -1.74306287674265      0.98421570797172     -0.47478832323090
  O   -1.69089783164782      1.56056738607047     -1.55080389130870
  O   -2.42623362171875      1.26296547958666      0.49867134699025
  C   1.59659125301485     -0.90898623385027     -0.19094430817111
  H   1.56886253207774     -1.26575692157989      0.83978921403098
  H   1.36956162196423     -1.74129742299028     -0.86173680889241
  H   2.61164698454817     -0.56941199165490     -0.40650026161478
  N   0.76056935600485      1.38918639125227      0.50793820108184
  H   0.88634830134561      1.08043805232336      1.46252344653150
  H   1.54580790577193      1.96418755452438      0.23595140720076
