17
Coordinates from ORCA-job run
  C   -0.79284737333222      0.00142625969100     -0.43860884492648
  C   0.73606053595469     -0.02053557692957     -0.47661095665625
  F   -1.27446640420674      0.30865307477338     -1.65501883088016
  H   0.93162180714560     -0.67011370852835     -1.33897516646657
  N   -1.33330511763318     -1.36124694628023     -0.05402746117504
  O   -1.63565133184893     -1.52449068744914      1.12194057298492
  O   -1.33357200046829     -2.19076270036933     -0.95332950823163
  N   -1.42811042307751      0.97986285204664      0.53250066012060
  O   -2.61542377821411      1.20454416965582      0.34156504549353
  O   -0.71697098166302      1.45274220622495      1.41213979996421
  C   1.38229111833180     -0.64578214778551      0.75040288669031
  H   1.06595412653065     -1.67994670325036      0.89460497210611
  H   2.46089076886058     -0.63758096972463      0.59109933586238
  H   1.15615087479582     -0.08250773009671      1.65444668939560
  N   1.30873917977773      1.27539531790762     -0.77025612590223
  H   1.17059195720763      1.91385772411532      0.00223801998513
  H   0.91904704183952      1.67548556599914     -1.61411108836437
