17
Coordinates from ORCA-job run
  C   -0.76572843266665     -0.17684671753195     -0.36931916291304
  C   0.73045318899764      0.14671188390195     -0.43682248300613
  F   -1.10248866207741     -1.09844540260954     -1.28625403304577
  H   0.89882747576905      0.34194914593093     -1.50077855353223
  N   -1.14873930184377     -0.69594075491935      0.99495739459167
  O   -1.47497517275619     -1.86874488162708      1.08731412601250
  O   -1.02704458407185      0.12346560575463      1.90034692820855
  N   -1.67506169697779      1.01021692708392     -0.63749750695394
  O   -2.81983571101320      0.92606745961463     -0.21104379194754
  O   -1.20775122686300      1.90175062797276     -1.33852520594941
  C   1.51254963226750     -1.09370076735405     -0.01784037885129
  H   1.42660777671285     -1.25942779773798      1.05973993613414
  H   1.16958962610768     -1.99057379694001     -0.53552436988115
  H   2.56465936811390     -0.92692087790583     -0.24656913021309
  N   1.18303829278356      1.29809104071105      0.30340859602997
  H   0.77004116116913      2.14906523239559     -0.05244748328802
  H   0.96685826634854      1.21228307326031      1.28785511860473
