17
Coordinates from ORCA-job run
  C   -0.73450529466548     -0.12037026928649     -0.44486964177572
  C   0.75553008782638      0.22432477257528     -0.35492290649399
  F   -0.98843882904700     -0.89280813782832     -1.51360030745351
  H   0.99022239666053      0.59858189422479     -1.35678697131633
  N   -1.19933478571353     -0.84793222775665      0.79316628320406
  O   -1.48184608814264     -2.03077870661870      0.68546252577302
  O   -1.18148056032060     -0.16964319176720      1.81579927383100
  N   -1.65226119756654      1.08159490485683     -0.58916517749028
  O   -1.15192703412821      2.10093228893692     -1.05295360355071
  O   -2.83132199979226      0.89263087314822     -0.31728462098076
  C   1.53426923212626     -1.06167347046639     -0.09803487360878
  H   2.59542025624478     -0.84770812181364     -0.22161966906654
  H   1.24624210477927     -1.86116676117246     -0.78172798673984
  H   1.38016350421859     -1.40915722612105      0.92745809604073
  N   1.13540710860390      1.23652383642741      0.59886125555679
  H   0.86691943165538      0.97665731902016      1.53891509051935
  H   0.71894166726112      2.12899222364138      0.37230323355148
