17
Coordinates from ORCA-job run
  C   -0.79119543127069     -0.12657945410864     -0.47624621819091
  C   0.72032540164417     -0.01654691594868     -0.38050874530440
  F   -1.18513803188224      0.11695133826775     -1.74085142230410
  H   1.08841529129313     -0.75966083669992     -1.10218065363151
  N   -1.36267231946095     -1.48998796203996     -0.13457437886842
  O   -2.57038821625557     -1.52458773312326      0.06570789652361
  O   -0.58951856690703     -2.44102385434925     -0.17697859333922
  N   -1.49063563103174      0.85633187057328      0.43458263121497
  O   -1.38064799466036      0.59777699842537      1.62730831525150
  O   -2.07019049178952      1.79484316448189     -0.08244077087204
  C   1.31456611602904     -0.31724380242018      0.98656264495817
  H   1.04696487215521      0.46067932457074      1.70005628060487
  H   2.40279792650215     -0.34133564384666      0.88583068938635
  H   0.99356234913081     -1.28319655206933      1.37083496111868
  N   1.01130937599464      1.36471898804375     -0.74582776336749
  H   1.96274777922565      1.59504945250799     -0.49173189396807
  H   0.90069757128330      1.51381161773509     -1.74054297921197
