17
Coordinates from ORCA-job run
  C   -0.87233675322687     -0.02526511782583     -0.46052351858097
  C   0.64989757446358      0.03551363154816     -0.50743374356955
  F   -1.39672270996494      0.15969751492741     -1.67263217677543
  H   0.87622723808446     -0.54079205506115     -1.41152257896229
  N   -1.33104608516493     -1.38804286549596      0.03321182995662
  O   -1.23524417934728     -2.28540312998924     -0.79345408794492
  O   -1.67842051240962     -1.48052563265600      1.20384820071260
  N   -1.50228407377509      0.99200117447568      0.47108249855012
  O   -2.64989925030900      1.31798490620692      0.20636614490423
  O   -0.82019493632089      1.37438657952270      1.41406012900579
  C   1.35166892809675     -0.62383549188475      0.67610908876343
  H   2.42953304864971     -0.54789618330230      0.51787361806846
  H   1.10574656041077     -1.68460837237734      0.76250847961708
  H   1.09861863562484     -0.12737705237294      1.61202337910303
  N   0.98860338763206      1.42622920109998     -0.76456588755659
  H   1.78298743807163      1.49325678229942     -1.38453701067491
  H   1.20386568948478      1.90467611088526      0.10058563538331
