17
Coordinates from ORCA-job run
  C   -0.78644883378961     -0.00024097047538     -0.45046481517136
  C   0.74289661017446     -0.02367821275546     -0.46526838978375
  F   -1.24931571131514      0.30103025952931     -1.67578898611821
  H   0.95077528296107     -0.67779605441779     -1.32131877837393
  N   -1.33406250761211     -1.36073592939438     -0.06754909877384
  O   -1.65453321126369     -1.51723716801656      1.10463571791355
  O   -1.32199836514224     -2.19488227892481     -0.96232090449703
  N   -1.43518868222315      0.98396108744285      0.50571836463831
  O   -2.61854871893639      1.21098268796343      0.29392440737693
  O   -0.73758262741583      1.45790198210817      1.39547229790298
  C   1.37072249559928     -0.64285725185037      0.77434256561754
  H   1.13746510867329     -0.07062357999375      1.67091087189776
  H   2.45113806213759     -0.64263883947886      0.62770763517663
  H   1.04602794996364     -1.67365513875215      0.92356089186145
  N   1.32073158744634      1.27026853302038     -0.75680536090290
  H   1.17187031774584      1.91297848667206      0.01011390983122
  H   0.94505124299664      1.66622238732334     -1.60887032859535
