15
Coordinates from ORCA-job run
  C   1.03366916039682     -0.06339801286825     -0.25049337972518
  C   -0.48121532628643     -0.23921675240193     -0.08572246623594
  Cl  1.46432346809696     -0.71740737163188     -1.93802639370712
  H   -0.74398511528346     -1.20880712202919     -0.52173239220837
  H   1.29988724016533      0.99141581206923     -0.34431249768795
  N   1.76781554210977     -0.64668889517928      0.79927788060181
  H   2.76155994325346     -0.66019159187680      0.61746377158890
  H   1.42857401357713     -1.56654411857969      1.04301521435815
  C   -1.22354709681143      0.85742205752450     -0.84621604726537
  H   -0.93883524245694      0.88458393176485     -1.90013439421512
  H   -2.30280375032776      0.69164868929688     -0.79212819140174
  H   -1.00937002381893      1.83350386982676     -0.39981017716323
  N   -0.80827206228019     -0.32299759411792      1.33870653395754
  H   -0.43250179504075      0.47777203811736      1.83350100344390
  H   -1.81629895529357     -0.31109493991465      1.44661153565969
