15
Coordinates from ORCA-job run
  C   0.95084199058428     -0.42108906273697     -0.52230846453172
  C   -0.54652194687286     -0.27582988582239     -0.24560604688091
  Cl  1.31540700118322     -2.22713993237269     -0.67623326103032
  H   -1.06512786711540     -0.96037808806582     -0.92308787653650
  H   1.20668006531116     -0.02688124829262     -1.50664692636166
  N   1.69728340154105      0.22227996035374      0.48833331904720
  H   2.69281477221982      0.14918777133702      0.32832429126375
  H   1.46019008826929     -0.20407632247563      1.37745670674066
  C   -0.99341484449319      1.15258793865094     -0.53597202068856
  H   -0.45638321484622      1.84884325862222      0.11121233280873
  H   -0.79240400027433      1.43129869041415     -1.57332710808579
  H   -2.06741401747007      1.25191451481832     -0.36025429487143
  N   -0.79506257187495     -0.65791360243175      1.14517501679091
  H   -1.14253643717115      0.12758212797867      1.67822485778997
  H   -1.46335241899063     -1.41038611997720      1.21370947454568
