15
Coordinates from ORCA-job run
  C   1.01642841184576     -0.06912625766232     -0.17633009976312
  C   -0.50013156095368     -0.08821240501267     -0.02349927054833
  Cl  1.46267835773972     -0.40577622643162     -1.92544161465928
  H   -0.83291710303210     -1.11486620398900     -0.26148038731063
  H   1.38321057942759      0.93843336491438      0.02119772759334
  N   1.62164163937490     -0.98735399835811      0.72765475926549
  H   1.40736935447860     -1.94086916657095      0.45956979115930
  H   2.62708158265158     -0.87899088378790      0.74925598192413
  C   -1.20924301358580      0.88537899522980     -0.95054780043692
  H   -1.08976816207176      0.61320104770946     -1.99819665961841
  H   -0.82030661062166      1.89387009698370     -0.79209878089309
  H   -2.27880423968146      0.89827949818819     -0.72349791140797
  N   -0.75925235967105      0.30983668227150      1.35681898092027
  H   -0.27526476132949     -0.31823875769919      1.98582851608290
  H   -1.75272211457116      0.26443421421473      1.54776676769233
