15
Coordinates from ORCA-job run
  C   0.97492099570241     -0.09090025937909     -0.11833481378662
  C   -0.55528677559617     -0.15408358567544     -0.07506025588062
  Cl  1.55040164428544     -0.27858795471657     -1.85622188659444
  H   -0.84362910678866     -1.15378259452858     -0.42786419089367
  H   1.31362398789304      0.90550304382367      0.17446672672940
  N   1.54741171189394     -1.06067192426023      0.75206925388667
  H   1.34571184876529     -1.99665052621251      0.41958323577860
  H   2.55141702198260     -0.95495546595761      0.81724727565406
  C   -1.22035562310257      0.88952511481718     -0.95744656482607
  H   -1.01380366049323      0.72886869984973     -2.01392572027349
  H   -2.29850546034890      0.85160123035738     -0.79542696137153
  H   -0.86933381138256      1.89242025226941     -0.69053291762619
  N   -1.04993576911398     -0.00050725470802      1.28871433513600
  H   -0.96141555071660      0.97052843584778      1.56978927814855
  H   -0.47122145298005     -0.54930721152710      1.91394320591934
