16

C	-0.198633	0.018079	-1.440157
C	0.05767	-0.111381	0.058241
Cl	0.099853	-1.537044	-2.245833
H	1.119505	-0.35808	0.151279
H	-0.057787	0.897379	0.467653
N	-1.69399	0.367348	-1.588409
O	-2.508229	-0.486024	-1.914939
O	-1.970894	1.523576	-1.27232
N	0.531429	1.032891	-2.124339
H	1.528449	0.878114	-1.918099
H	0.293899	1.918343	-1.688547
C	-0.841372	-1.092815	0.798215
H	-1.890752	-0.786123	0.769183
H	-0.769614	-2.095076	0.373281
H	-0.540271	-1.147114	1.847357
Cl	3.461509	0.726064	-0.723971
