16

C	-0.288888	-0.014941	-1.45324
C	-0.148085	-0.113859	0.046874
Cl	-0.142377	-1.786295	-2.127855
H	0.861269	-0.501618	0.221772
H	-0.87245	-0.839254	0.416218
N	-1.734393	0.292857	-1.889245
O	-2.640012	0.053036	-1.096825
O	-1.882946	0.748818	-3.017508
N	0.547703	0.899015	-2.024115
H	0.547173	0.904286	-3.032424
H	1.487839	0.934719	-1.596841
C	-0.29595	1.236023	0.74197
H	0.523187	1.895598	0.459215
H	-1.250534	1.710257	0.502298
H	-0.252453	1.090635	1.824892
Cl	3.32438	0.89037	-0.520837
