17
Coordinates from ORCA-job run
  C   0.56702906508382      0.08017324796860     -0.81435296424972
  C   -0.80397059135627      0.33669979490734     -0.15400860335477
  H   0.78632907519845      0.95227814529380     -1.43955575872388
  H   -1.51551532807672      0.61362286194953     -0.93645429429081
  C   0.44467250610665     -1.08131271504095     -1.69627859797779
  N   0.33915231476878     -2.02653717813829     -2.38528742023844
  C   1.70696003147281     -0.11405629583033      0.19045631895084
  H   1.80895971514872      0.76669061904213      0.82709092807288
  H   1.53931826385091     -0.98719263539157      0.82164907606284
  H   2.64801186750097     -0.25654213515206     -0.34293290881511
  N   -0.63274261085106      1.59931914170938      0.65153049903526
  O   -0.66653096564215      1.52341778915909      1.87691694914248
  O   -0.42524257771203      2.62307585125882      0.00337395820195
  C   -1.34071036234719     -0.79435897753838      0.69392917941103
  H   -2.30378923190109     -0.51815432790647      1.12455264713303
  H   -1.48363679071725     -1.67612964375387      0.06600788861052
  H   -0.66829438052736     -1.04199354253678      1.51336310302970
