17
Coordinates from ORCA-job run
  C   0.74327299507363      0.06561022865199     -0.65911267591830
  C   -0.75890917891352      0.26770467577140     -0.36912148365296
  H   1.06252469932291      0.90672110046521     -1.28373638683628
  H   -1.27166893505438      0.44049007212415     -1.31904761283477
  C   0.90087718073978     -1.15864975374114     -1.44548333514177
  N   1.01559807356216     -2.15353006453904     -2.05896276014086
  C   1.61245635384769      0.02141780527591      0.60163931094679
  H   2.66120295916191     -0.08995386279572      0.32220127916857
  H   1.34204429782712     -0.81634507229223      1.24496106475240
  H   1.51002996864989      0.94864361677226      1.16832528547028
  N   -0.85574002272163      1.59020926445613      0.34783086244436
  O   -0.55150943165496      2.58054693270602     -0.31389589121173
  O   -1.18210034103836      1.59412921997995      1.53183865927456
  C   -1.42541446305968     -0.83948028832940      0.41590056096054
  H   -1.36058164098579     -1.77034101691466     -0.15097340636080
  H   -0.96348914656097     -0.97984420667820      1.39147084707627
  H   -2.47859336819581     -0.60632865091262      0.57616568200370
