17
Coordinates from ORCA-job run
  C   0.82269320215202     -0.22188797230948      0.20079092358167
  C   -0.54503137223190      0.45660348744517      0.06184205638880
  H   0.71147007039401     -1.04804777660537      0.91064737143236
  H   -0.45668922725164      1.37048641175442     -0.52920902540126
  C   1.77925183581546      0.73001314894863      0.77461015856380
  N   2.54218331484934      1.50917755259572      1.21049441663514
  C   1.34287473053739     -0.74951126773808     -1.14049456822922
  H   0.71198163814638     -1.56016749337257     -1.50621272086358
  H   1.36711685292245      0.04691712545936     -1.88793820915898
  H   2.35621148610345     -1.13625446926256     -1.02381347094153
  N   -0.98071193579976      0.92325446981550      1.42212254372192
  O   -0.99541141952219      0.07773020227396      2.31444613983722
  O   -1.31803253852531      2.09853908301894      1.53531739643003
  C   -1.62832316982607     -0.45833635398235     -0.48326187092319
  H   -2.59879681921260      0.03918813843871     -0.42609664724552
  H   -1.43669120392471     -0.69689165232691     -1.52971592619854
  H   -1.67409544462631     -1.38281263415307      0.09547143237087
