17
Coordinates from ORCA-job run
  C   0.65902042581162     -0.54156296685559     -0.32908622617323
  C   -0.76804890169729      0.01863365261808     -0.20881012057526
  H   0.55652766173693     -1.48610457558880     -0.87834083131491
  H   -1.18638892442179      0.09202707126554     -1.21450051138956
  C   1.23017722949839     -0.87640179268314      0.97852574315095
  N   1.71490249312493     -1.16888226884561      2.00723200192170
  C   1.59318092401934      0.38939966707418     -1.10944171920567
  H   1.14351020857860      0.65813794271562     -2.06766398809914
  H   1.78580855444694      1.30488272378200     -0.54777900594650
  H   2.54900504880671     -0.10258316696218     -1.29489369169235
  N   -0.67485830463153      1.44169263574268      0.25607380244509
  O   -0.34424653819653      1.62448341506974      1.42528524865410
  O   -0.90050809915738      2.32036419041513     -0.57488229326841
  C   -1.66969343674389     -0.76847973261637      0.72017947438334
  H   -1.27210842493238     -0.76400911145028      1.73487811275328
  H   -1.74136430746542     -1.80170803913310      0.37221971121699
  H   -2.67391560877724     -0.33988964454790      0.73200429313956
