13

C	0.0	0.0	0.0
C	-0.472579	0.119571	-1.427827
F	1.356582	0.0	0.0
H	-1.560821	0.198953	-1.430724
H	-0.172049	-0.792093	-1.953171
H	-0.012177	0.979527	-1.911266
N	-0.322663	1.314145	0.749031
O	-0.000454	2.342441	0.155986
O	-0.773296	1.258161	1.884129
N	-0.509394	-1.068569	0.775138
H	-0.474167	-1.903506	0.199863
H	-1.503565	-0.868916	0.926818
Cl	-3.652621	0.0	0.0
