13

C	0.0	0.0	0.0
C	-0.39841	0.181461	-1.499807
F	1.376034	0.0	0.0
H	0.359682	0.886544	-1.864229
H	-0.381624	-0.923535	0.438203
C	-0.432078	1.171827	0.776689
N	-0.6456	2.164304	1.365358
N	-1.693367	0.686287	-1.854573
H	-1.758272	1.659946	-1.583116
H	-2.462051	0.21588	-1.358964
C	-0.122974	-1.100528	-2.17456
N	0.128974	-2.125376	-2.687993
Cl	-4.111712	0.0	0.0
