13

C	0.0	0.0	0.0
C	-0.355688	-0.511898	-1.445899
F	1.377186	0.0	0.0
H	0.503559	-0.150656	-2.025646
H	-0.387691	-0.632236	0.798717
C	-0.437213	1.393041	0.170221
N	-0.664662	2.535837	0.30694
N	-1.552676	-0.092821	-2.123449
H	-1.47447	0.898069	-2.316488
H	-2.372725	-0.200437	-1.513023
C	-0.234414	-1.981556	-1.423712
N	-0.085802	-3.145978	-1.395861
Cl	-3.795496	0.0	0.0
