13

C	0.0	0.0	0.0
C	-0.513294	0.167394	-1.445704
F	1.380391	0.0	0.0
H	-1.49686	0.63991	-1.370755
H	-0.377555	-0.932965	0.416253
C	-0.381416	1.133528	0.863767
N	-0.503224	2.067059	1.564836
N	-0.708556	-1.083965	-2.159417
H	-1.571376	-1.479094	-1.79651
H	0.056761	-1.720965	-1.970131
C	0.394253	1.052118	-2.192533
N	1.103036	1.766242	-2.797072
Cl	-3.265499	0.0	0.0
