13

C	0.0	0.0	0.0
C	-0.402008	0.094029	-1.507354
F	1.376061	0.0	0.0
H	0.348101	0.785573	-1.911743
H	-0.37939	-0.899032	0.489093
C	-0.437834	1.2103	0.708664
N	-0.683571	2.225722	1.243441
N	-1.702588	0.567005	-1.880537
H	-1.778036	1.551007	-1.652808
H	-2.467174	0.111759	-1.365284
C	-0.119552	-1.220167	-2.11144
N	0.089836	-2.270484	-2.592694
Cl	-4.130565	0.0	0.0
