13

C	0.0	0.0	0.0
C	-0.540684	0.035288	-1.446507
F	1.371186	0.0	0.0
H	-1.39798	0.71639	-1.458062
H	-0.371195	-0.898519	0.4914
C	-0.394352	1.203287	0.758323
N	-0.528169	2.194604	1.371631
N	-0.923607	-1.328164	-1.826746
H	-1.131603	-1.334824	-2.819906
H	-1.819868	-1.453243	-1.350676
C	0.484586	0.550601	-2.359975
N	1.255607	0.970135	-3.139388
Cl	-3.285999	0.0	0.0
