13

C	0.0	0.0	0.0
C	-0.510718	0.182633	-1.41918
F	1.381557	0.0	0.0
H	-1.608377	0.196376	-1.313083
H	-0.367711	-0.959046	0.365134
C	-0.408005	1.09419	0.897927
N	-0.55779	2.004822	1.622911
N	-0.102385	-0.972707	-2.210554
H	-0.699653	-1.047251	-3.023765
H	0.855003	-0.862129	-2.52255
C	-0.044462	1.461145	-1.984921
N	0.339779	2.437641	-2.51396
Cl	-3.411027	0.0	0.0
