13

C	0.0	0.0	0.0
C	-0.388492	-0.481425	-1.44034
F	1.377101	0.0	0.0
H	0.430876	-0.078962	-2.048452
H	-0.379136	-0.646102	0.792222
C	-0.43277	1.389863	0.204011
N	-0.652167	2.534564	0.342588
N	-1.632029	-0.083309	-2.038222
H	-2.431445	-0.245719	-1.410679
H	-1.609546	0.915582	-2.204872
C	-0.231184	-1.946116	-1.464194
N	-0.061864	-3.107504	-1.465226
Cl	-3.988369	0.0	0.0
