13

C	0.0	0.0	0.0
C	-0.568432	0.282686	-1.399738
F	1.373436	0.0	0.0
H	-1.506493	0.828881	-1.246854
H	-0.363457	-0.971304	0.335625
C	-0.383879	1.053611	0.962457
N	-0.5167	1.920007	1.742863
N	-0.805041	-1.001882	-2.06919
H	-1.725583	-1.283936	-1.730765
H	-0.894243	-0.843539	-3.067361
C	0.350376	1.12133	-2.170183
N	1.056924	1.794113	-2.823925
Cl	-3.353064	0.0	0.0
