13

C	0.0	0.0	0.0
C	-0.373689	0.070762	-1.528288
F	1.383185	0.0	0.0
H	0.619027	0.112351	-1.992649
H	-0.377467	-0.885262	0.505589
C	-0.385423	1.234434	0.702925
N	-0.432024	2.276581	1.242898
N	-1.114318	1.202555	-2.043816
H	-2.020211	1.195085	-1.572001
H	-0.63338	2.055105	-1.779047
C	-0.956586	-1.198555	-1.97882
N	-1.263754	-2.248164	-2.403728
Cl	-3.072029	0.0	0.0
