13

C	0.0	0.0	0.0
C	-0.400775	-0.278111	-1.482952
F	1.377279	0.0	0.0
H	0.350837	0.289781	-2.045915
H	-0.378186	-0.750896	0.695484
C	-0.43394	1.347591	0.396829
N	-0.664714	2.458279	0.69727
N	-1.701653	0.087672	-1.964701
H	-2.465636	-0.219412	-1.349043
H	-1.775896	1.097724	-1.992454
C	-0.11722	-1.701307	-1.745559
N	0.140194	-2.829635	-1.941223
Cl	-4.130185	0.0	0.0
