13

C	0.0	0.0	0.0
C	-0.499432	-0.047044	-1.421727
Cl	1.760007	0.0	0.0
H	-1.597144	-0.130672	-1.39753
H	-0.380849	0.847744	0.558865
H	-0.035818	-0.852756	-1.98379
N	-0.412539	-1.247122	0.737628
O	-0.510469	-2.277793	0.081031
O	-0.527252	-1.141282	1.951281
N	-0.163615	1.218439	-2.12304
O	0.00287	1.145613	-3.339778
O	-0.115689	2.254919	-1.464711
Br	-3.519628	0.0	0.0
