13

C	0.0	0.0	0.0
C	-0.56471	-0.007533	-1.395008
Cl	1.751431	0.0	0.0
H	-1.664429	-0.053905	-1.298649
H	-0.369563	0.835735	0.584792
H	-0.176211	-0.82409	-1.995704
N	-0.425535	-1.253529	0.723573
O	-0.595747	-1.146802	1.930642
O	-0.489202	-2.284659	0.063003
N	-0.240937	1.260339	-2.09214
O	-0.146446	2.282624	-1.417462
O	-0.148076	1.209952	-3.317824
Br	-3.624534	0.0	0.0
