13

C	0.0	0.0	0.0
C	-0.603197	-0.202782	-1.376459
Cl	1.750659	0.0	0.0
H	-1.679108	-0.374467	-1.24953
H	-0.379263	0.929612	0.418133
H	-0.418368	0.702861	-1.954846
N	-0.419124	-1.072859	0.978715
O	-0.721092	-0.691298	2.101887
O	-0.353915	-2.230275	0.583944
N	-0.011614	-1.31508	-2.176107
O	1.056631	-1.083066	-2.747832
O	-0.63901	-2.367067	-2.255036
Br	-3.696469	0.0	0.0
