13

C	0.0	0.0	0.0
C	-0.197982	-0.35727	-1.492674
Cl	1.759667	0.0	0.0
H	0.304938	0.434261	-2.045112
H	-0.429981	0.934983	0.340277
H	0.316774	-1.301629	-1.645572
N	-0.42475	-1.083156	0.954512
O	-0.57922	-0.729012	2.115499
O	-0.464137	-2.227522	0.52181
N	-1.488813	-0.527768	-2.233037
O	-1.909363	0.460441	-2.824779
O	-1.910406	-1.672304	-2.336795
Br	-3.365107	0.0	0.0
