13

C	0.0	0.0	0.0
C	-0.185448	-0.385423	-1.489148
Cl	1.766409	0.0	0.0
H	0.237369	0.447482	-2.049227
H	-0.417485	0.947447	0.314078
H	0.414797	-1.276244	-1.649777
N	-0.408685	-1.05502	0.987841
O	-0.459118	-2.208563	0.583948
O	-0.528857	-0.67012	2.141902
N	-1.455199	-0.696286	-2.219151
O	-1.900745	0.194569	-2.935539
O	-1.827741	-1.861974	-2.193537
Br	-3.29038	0.0	0.0
