13

C	-0.380663	0.083679	-1.461581
C	0.0	0.0	0.0
Br	-2.295125	0.500642	-1.756274
H	1.096638	0.0	0.0
H	0.160845	0.933884	-1.880901
C	-0.073367	-1.12842	-2.210842
N	0.140337	-2.107148	-2.823063
C	-0.52118	-1.193617	0.650592
N	-0.911979	-2.143513	1.225475
N	-0.319411	1.249522	0.673605
H	0.455851	1.450114	1.300509
H	-1.179913	1.186182	1.203595
H	2.590291	0.0	0.0
