13

C	-0.548794	0.078569	-1.423605
C	0.0	0.0	0.0
Br	-0.11074	-1.534127	-2.450379
H	1.094055	0.0	0.0
H	-1.639975	0.127176	-1.417239
C	-0.038397	1.255103	-2.122793
N	0.305047	2.196298	-2.73682
C	-0.522149	-1.166397	0.695402
N	-0.95117	-2.079438	1.303168
N	-0.34127	1.255993	0.67395
H	0.526028	1.604108	1.078687
H	-1.018282	1.121866	1.412065
H	2.624026	0.0	0.0
