13

C	-0.276271	0.056339	-1.492121
C	0.0	0.0	0.0
Br	-2.151052	0.53925	-1.948596
H	1.097715	0.0	0.0
H	0.328348	0.868524	-1.905709
C	0.034732	-1.184	-2.188122
N	0.272655	-2.186239	-2.75462
C	-0.573757	-1.183126	0.619408
N	-1.008229	-2.150798	1.128381
N	-0.321192	1.207502	0.730436
H	-1.126583	1.684315	0.349568
H	0.49641	1.805591	0.69286
H	2.57568	0.0	0.0
