13

C	-0.484253	-0.137923	-1.443843
C	0.0	0.0	0.0
Br	0.216072	1.303977	-2.561367
H	1.101033	0.0	0.0
H	-0.082742	-1.061121	-1.870813
C	-1.938521	-0.125945	-1.548742
N	-3.112539	-0.123347	-1.610938
C	-0.43545	-1.185406	0.734076
N	-0.778634	-2.141854	1.328706
N	-0.416408	1.250807	0.60566
H	0.386019	1.621515	1.105195
H	-1.189144	1.132048	1.246065
H	2.637903	0.0	0.0
