13

C	-0.402507	0.007326	-1.486746
C	0.0	0.0	0.0
Br	0.276264	1.610421	-2.388388
H	1.095211	0.0	0.0
H	0.076075	-0.838145	-1.988223
C	-1.846666	-0.024353	-1.678873
N	-3.018464	-0.040268	-1.777647
C	-0.472606	-1.26615	0.555632
N	-0.859653	-2.291679	0.982915
N	-0.43715	1.117566	0.800252
H	-1.354091	1.458118	0.531324
H	0.251252	1.856555	0.700502
H	2.654084	0.0	0.0
