13

C	-0.395095	0.048247	-1.458031
C	0.0	0.0	0.0
Br	-2.324941	0.413568	-1.735808
H	1.099362	0.0	0.0
H	0.117513	0.905468	-1.898708
C	-0.065891	-1.168581	-2.188603
N	0.180587	-2.146427	-2.791799
C	-0.513181	-1.178514	0.682705
N	-0.908572	-2.109689	1.284249
N	-0.317363	1.263124	0.650602
H	0.468821	1.485442	1.255559
H	-1.161431	1.198516	1.204597
H	2.594795	0.0	0.0
