13

C	-0.552241	0.036941	-1.426267
C	0.0	0.0	0.0
Br	-0.104996	-1.592013	-2.421814
H	1.099698	0.0	0.0
H	-1.6443	0.076212	-1.418779
C	-0.064179	1.199871	-2.162812
N	0.254053	2.136777	-2.796925
C	-0.506819	-1.152149	0.724209
N	-0.923418	-2.052018	1.358047
N	-0.347341	1.274135	0.63771
H	-0.965307	1.145127	1.427758
H	0.53162	1.662677	0.977587
H	2.621863	0.0	0.0
