15

C	0.0	0.0	0.0
C	-0.582689	0.07742	-1.400121
Br	1.951193	0.0	0.0
H	-1.695795	0.247012	-1.071506
H	-0.323285	-0.949457	0.421356
C	-0.423561	1.05777	0.919513
N	-0.589955	1.870912	1.751161
C	-0.45926	-1.224311	-2.154914
H	-1.068028	-1.95879	-1.623637
H	0.574428	-1.576946	-2.227766
H	-0.856297	-1.11666	-3.163212
N	-0.032813	1.222705	-2.146311
O	0.116644	2.282456	-1.534916
O	0.210925	1.086847	-3.351781
F	-2.643507	0.0	0.0
