15

C	0.0	0.0	0.0
C	-0.579711	0.028274	-1.403136
Br	1.951465	0.0	0.0
H	-1.691137	0.209757	-1.081192
H	-0.323582	-0.935183	0.451725
C	-0.420629	1.084983	0.886773
N	-0.579426	1.921162	1.696981
C	-0.453544	-1.299382	-2.108798
H	-0.846194	-1.230636	-3.122695
H	-1.066854	-2.011723	-1.554089
H	0.578215	-1.657667	-2.16475
N	-0.023524	1.145316	-2.185367
O	0.053164	2.242858	-1.628315
O	0.299764	0.950522	-3.364686
F	-2.63909	0.0	0.0
