15

C	0.0	0.0	0.0
C	-0.222108	-0.008208	-1.553995
Br	1.949796	0.0	0.0
H	0.514542	0.675594	-1.98091
H	-0.377578	-0.905198	0.456994
C	-0.53234	1.195414	0.634781
N	-0.703253	2.209396	1.208217
C	-1.54837	0.275979	-2.239789
H	-1.343072	0.283048	-3.319084
H	-1.919497	1.247813	-1.926566
H	-2.294585	-0.448848	-1.938367
N	0.229663	-1.355032	-2.064355
O	0.791507	-1.369874	-3.160102
O	-0.04165	-2.355923	-1.406928
F	-2.392447	0.0	0.0
