16

C	-0.369347	-0.000231	-1.478992
C	0.0	0.0	0.0
Br	0.136423	1.687607	-2.372826
H	1.095958	0.0	0.0
H	0.286106	-0.727642	-1.972984
N	-1.789862	-0.18702	-1.754859
H	-2.066937	-1.063919	-1.326104
H	-1.924479	-0.288091	-2.754824
N	-0.322629	-1.300667	0.611412
H	-1.237051	-1.663851	0.369829
H	0.394465	-1.960353	0.339861
C	-0.623043	1.118903	0.806968
H	-0.304945	2.094578	0.436511
H	-1.719675	1.083339	0.787459
H	-0.285466	1.013679	1.839749
F	2.684202	0.0	0.0
