16

C	-0.556071	-0.020767	-1.418055
C	0.0	0.0	0.0
Br	-0.185992	1.664987	-2.366111
H	1.099777	0.0	0.0
H	0.00098	-0.770243	-1.979488
N	-1.97842	-0.302868	-1.562712
H	-2.494564	0.443248	-1.106203
H	-2.108569	-1.141994	-1.000928
N	-0.353006	-1.349277	0.536402
H	0.540869	-1.776625	0.769673
H	-0.865529	-1.251126	1.406851
C	-0.546993	1.098704	0.887456
H	-0.040231	1.044364	1.854459
H	-0.350544	2.086863	0.468971
H	-1.629325	1.003634	1.061145
F	2.681841	0.0	0.0
