16

C	-0.229435	0.262846	-1.488402
C	0.0	0.0	0.0
Br	-0.569478	-1.596696	-2.500637
H	1.104305	0.0	0.0
H	-1.179305	0.74966	-1.742408
N	0.886734	0.900149	-1.978484
H	0.772454	1.785369	-2.434412
H	1.745762	0.705522	-1.419825
N	-0.686169	-1.156534	0.582624
H	-0.354839	-1.219257	1.54212
H	-0.33245	-1.989147	0.120011
C	-0.464617	1.257568	0.71199
H	-0.012352	2.143833	0.257943
H	-0.145917	1.250263	1.760054
H	-1.558127	1.345069	0.683381
F	2.778823	0.0	0.0
