16

C	-0.423998	-0.052884	-1.465457
C	0.0	0.0	0.0
Br	0.091188	1.618877	-2.402422
H	1.095481	0.0	0.0
H	0.181437	-0.8169	-1.95773
N	-1.823044	-0.293041	-1.784439
H	-2.041653	-1.266391	-1.605553
H	-2.404359	0.281374	-1.18463
N	-0.317637	-1.292389	0.642256
H	0.481897	-1.897309	0.488192
H	-1.145253	-1.731261	0.253768
C	-0.608843	1.129974	0.805414
H	-1.70477	1.057615	0.87912
H	-0.210267	1.064233	1.819088
H	-0.348732	2.106213	0.39262
F	2.676635	0.0	0.0
