13
Coordinates from ORCA-job run
  C   -0.72136852554900      0.47346908406883      0.00422490847648
  C   0.70606859590939      0.58027386112112     -0.51143832898693
  Br  -0.81612821654296      1.27162882512117      1.80284790382613
  H   0.99265876102529      1.64133291765904     -0.53911622962417
  H   -1.36770047543012      1.11384030503217     -0.60005396445890
  H   0.69255260987370      0.21797824385461     -1.54646571198257
  C   -1.24792684532064     -0.94647400409019      0.04940316650726
  H   -0.62074126607084     -1.56493406482251      0.68859218795772
  H   -2.27697034326871     -0.97362597252417      0.41011704560972
  H   -1.22248977731604     -1.36516844037207     -0.96217821199821
  N   1.61180509302507     -0.26886275933312      0.25172398843248
  H   1.76253334639304      0.13840546204939      1.16675858750436
  H   2.50970704327183     -0.31686345776427     -0.21241534126337
