20

C	-0.463795	0.053035	-1.463291
C	0.0	0.0	0.0
Br	0.019239	-1.687009	-2.320424
H	1.102712	0.0	0.0
C	-1.971065	0.19565	-1.614708
H	-2.478369	-0.560167	-1.014666
H	-2.270189	0.092187	-2.659919
H	-2.278641	1.188817	-1.269595
C	0.311647	1.112659	-2.234916
H	0.093602	1.046261	-3.304077
H	1.386356	0.987599	-2.068347
H	0.01622	2.110746	-1.891873
N	-0.568235	-1.166033	0.694328
H	-0.289713	-1.087115	1.668562
H	-0.09014	-1.989992	0.342518
C	-0.441944	1.244081	0.770297
H	0.056263	1.237098	1.74473
H	-0.144602	2.168525	0.273025
H	-1.523606	1.244685	0.936515
Br	3.698496	0.0	0.0
