20

C	-0.309824	-0.002373	-1.498954
C	0.0	0.0	0.0
Br	-2.273512	0.191515	-1.822542
H	1.105795	0.0	0.0
C	0.388848	1.147623	-2.20887
H	0.235164	1.07702	-3.288643
H	1.45985	1.079237	-1.987855
H	0.021203	2.119475	-1.878454
C	0.113351	-1.327622	-2.111923
H	1.183374	-1.460337	-1.913034
H	-0.050812	-1.325554	-3.192317
H	-0.446988	-2.151078	-1.669619
N	-0.506139	-1.224752	0.643065
H	-0.641423	-1.028771	1.629209
H	0.232855	-1.920231	0.60104
C	-0.499389	1.214878	0.760623
H	-0.04121	1.224218	1.754215
H	-0.227219	2.14958	0.27035
H	-1.58741	1.176208	0.868272
Br	3.644951	0.0	0.0
