13
Coordinates from ORCA-job run
  C   -0.58012520395809     -0.42165684558491     -0.39052963410400
  C   0.74659381970323      0.29257773063756     -0.63726420475645
  Cl  -1.45499637338826     -0.68030131565112     -1.91115231287806
  H   0.53206746132606      1.18951807691221     -1.22108282485585
  H   1.36229717389376     -0.37283462286686     -1.24803070884689
  C   -0.38385295004745     -1.68749560649566      0.30155542767483
  N   -0.15155597509242     -2.72380824190901      0.80369663387376
  N   -1.45974924500197      0.48261416109011      0.48442786639721
  O   -2.19184862556792     -0.06776022872362      1.29307447575995
  O   -1.37413532046033      1.68196143812758      0.26049320853147
  N   1.33692084951767      0.56995387918348      0.65414861415710
  H   2.26155665801045      0.18068400027133      0.75230303311034
  H   1.35682773106528      1.55754757500893      0.85836042593659
