13
Coordinates from ORCA-job run
  C   -0.58874852289837     -0.42637151313824     -0.37129667906648
  C   0.74511078304966      0.26163109221824     -0.65237617018591
  Cl  -1.48020254680882     -0.72236667864900     -1.87560903905971
  H   1.34657393649413     -0.43148771649126     -1.24632147897969
  H   0.53682966864967      1.14165311234111     -1.26364648099719
  C   -0.40293308364639     -1.67192562621270      0.35932860219112
  N   -0.17984908388127     -2.69492293645940      0.89201191507335
  N   -1.44885893052311      0.51690640596583      0.48069936164353
  O   -2.18366294533709      0.00217871628462      1.31014954047468
  O   -1.34731290220366      1.70759147353843      0.21997635246342
  N   1.35059804853560      0.57208605245820      0.62445969484962
  H   1.38056193956715      1.56518455426973      0.79878621172862
  H   2.27289363900250      0.17784306387444      0.72483816986463
