13
Coordinates from ORCA-job run
  C   -0.44603734645607     -0.60156354676627     -0.10754135430214
  C   0.94422711518969      0.02567208268034      0.05168791846053
  Cl  -0.72076504723978     -1.10794783768635     -1.77074216216416
  H   1.67618959956624     -0.73507555554690     -0.24698113861125
  H   1.07422567594390      0.23139270899884      1.11547022354339
  C   -0.63262195365562     -1.72853696870368      0.79710253464436
  N   -0.73051560135192     -2.64385653321825      1.52770033166473
  N   -1.46016470690609      0.49260874725866      0.29863916518817
  O   -1.34917219624627      0.82853038772639      1.47013557181851
  O   -2.22684042013884      0.93119111067827     -0.53462494731951
  N   0.98541411363280      1.26527061629547     -0.69084274000975
  H   1.26914893742703      1.11905459638828     -1.64926823577504
  H   1.61591183023493      1.92526019189523     -0.25973516713784
