13
Coordinates from ORCA-job run
  C   -0.52569814828030     -0.44192424014502     -0.04217068871212
  C   0.58992786996390      0.59031979568274     -0.27273340380966
  Cl  -0.54962574748217     -1.62531412469922     -1.34449075440234
  H   0.36713342322594      1.08239199324806     -1.22845801769447
  H   0.50048842760906      1.32864794838089      0.52876793161088
  C   -0.38464494311729     -1.11336537551548      1.24131661077847
  N   -0.25010613794740     -1.65348039972486      2.27580782175312
  N   -1.84105136136830      0.36153607520098     -0.03143089339962
  O   -2.11515131802920      0.87063870451098      1.04830073939035
  O   -2.42957513047392      0.50546866822368     -1.09014244337277
  N   1.87161649562417     -0.06885208385925     -0.20263615748353
  H   2.56762758131851      0.51779797017794      0.23220621541378
  H   2.19805898895700     -0.35386493148145     -1.11433696007209
