13
Coordinates from ORCA-job run
  C   -0.61675114216331     -0.39699970891850     -0.36041168987520
  C   0.73508859344397      0.24002282490271     -0.67277816910053
  Cl  -1.56622556150467     -0.63003335727415     -1.84004457604039
  H   1.29078320419696     -0.46792167582003     -1.29298227545650
  H   0.54580014021552      1.13678812674983     -1.26566397513018
  C   -0.46188572562953     -1.66185017939802      0.34381660405752
  N   -0.28054843512119     -2.70290654177085      0.85694976117683
  N   -1.40799799577781      0.56777877413749      0.53361146265468
  O   -1.26702011571739      1.75667174054669      0.28299396901424
  O   -2.12166065570673      0.07329433791716      1.39312970266797
  N   1.38987177345374      0.50741126647320      0.58987822794376
  H   2.30087397381773      0.08060023778444      0.65457899602943
  H   1.46167194649272      1.49614415467000      0.77692196205836
