13
Coordinates from ORCA-job run
  C   -0.49279335630460     -0.54246051536847     -0.18976788320731
  C   0.94489445930977     -0.03984485909639     -0.00971279055678
  Cl  -0.89620421859006     -0.69832431978453     -1.89567602107356
  H   1.14791733755173     -0.05319942913979      1.06240219884511
  H   1.60401750224571     -0.76922722911217     -0.49686955899836
  C   -0.70609502167489     -1.81124595923464      0.49430754790808
  N   -0.82383512175686     -2.84434381408156      1.04201429853044
  N   -1.40286081541632      0.50884566501209      0.48661534226873
  O   -1.20329373253183      0.60248318074898      1.69036015455103
  O   -2.18214903687607      1.14557835803647     -0.19287187383368
  N   1.03127474155807      1.31584003246794     -0.50364707182977
  H   1.25003806644829      1.34282076651951     -1.48947471574058
  H   1.72908919603706      1.84207812303255      0.00132037313667
