13
Coordinates from ORCA-job run
  C   -0.51707389241959     -0.42062986940407     -0.15610444302438
  C   0.61794379814375      0.61507191370816     -0.12566292056997
  Cl  -0.41625128135520     -1.40536112802264     -1.60964923267704
  H   0.45784242956009      1.22427080047899      0.76704174708102
  H   0.48674222658611      1.25075122475151     -1.01164299594353
  C   -0.50501310467165     -1.26872312058194      1.02688250130878
  N   -0.48293302302178     -1.94920143734946      1.98420695144406
  N   -1.82969682766162      0.39153921283345     -0.14867531652862
  O   -2.41591751043861      0.56400645982716     -1.20347749472770
  O   -2.10857751995533      0.86674688712952      0.94562067589520
  N   1.88490742624086     -0.07059647752057     -0.03765927765615
  H   2.28099486586020     -0.24554628768652     -0.94971868288998
  H   2.54803241313279      0.44867182183640      0.51783848828831
