13
Coordinates from ORCA-job run
  C   -0.60744403418048     -0.48787657356142     -0.24377601494952
  C   0.65346747089344      0.19823536752064     -0.76359855761645
  Cl  -1.65069068099527     -0.99999992370738     -1.58350799657860
  H   1.21503327161254     -0.54711233533245     -1.33257553817804
  H   0.33924472775819      0.98616393335466     -1.45058405667536
  C   -0.28381277282724     -1.62410127076821      0.60721386444967
  N   0.04478922983550     -2.56308203571184      1.23200479272471
  N   -1.40657215897558      0.52952864066250      0.58187667274215
  O   -1.38461931333543      1.68105959372381      0.17008223133342
  O   -2.02296734155704      0.10117669772229      1.54596652928127
  N   1.38555733936979      0.68727392959738      0.38500702574000
  H   2.33277441907121      0.34389715657420      0.41772113740003
  H   1.38423984333036      1.69483681992583      0.43416991032671
