13
Coordinates from ORCA-job run
  C   -0.44180222329777     -0.57295772749934     -0.10279640703296
  C   1.02255916805702     -0.05246180040552     -0.10980818568400
  Cl  -1.01946579266002     -0.84864163309610     -1.74087616139250
  H   1.61470267968730     -0.81511879470735     -0.62148913224946
  H   1.34355680713737     -0.01176904426837      0.93379146236507
  C   -0.57079655533366     -1.78660507879288      0.68875798794336
  N   -0.60808859702734     -2.78294211129514      1.31134551446521
  N   -1.26841769122176      0.52950996217996      0.57950917453989
  O   -1.95560600555748      1.26219918287625     -0.11119127684901
  O   -1.06455838189140      0.61690599976617      1.78456881042848
  N   1.22991126814507      1.22487107421474     -0.72550224520355
  H   0.81240558796993      1.98309663922219     -0.20415369051999
  H   0.90559973599275      1.25091333180540     -1.68215585081055
