13
Coordinates from ORCA-job run
  C   -0.43542275453527     -0.57204876470235     -0.12981049530318
  C   1.02610236878479     -0.04667469084393     -0.07580453849585
  Cl  -0.95530713461971     -0.81634087709405     -1.79199436211192
  H   1.31119518934393     -0.02680644632935      0.97872658914177
  H   1.63847237216046     -0.79629362826060     -0.58289613317311
  C   -0.58658177179666     -1.80188541335538      0.63241041309603
  N   -0.64186189161300     -2.81107452998908      1.23258638269698
  N   -1.28974912620300      0.51338562621803      0.54586776615315
  O   -1.12353275110655      0.57988366674381      1.75803726478368
  O   -1.96107328068258      1.25375821962784     -0.15209212752759
  N   1.24884911616262      1.24418781419427     -0.65705725054454
  H   0.95747505381327      1.28928059527788     -1.62355402676588
  H   0.81043461029171      1.98962842851295     -0.13441948194957
