13
Coordinates from ORCA-job run
  C   -0.44670008421461     -0.45327434398504     -0.17199444525606
  C   1.03767221769369     -0.04326853825159     -0.04162698744572
  Cl  -1.01214361478783     -0.28047947587966     -1.84218044365646
  H   1.60143299014950     -0.81409890191868     -0.57414612529340
  H   1.29010768825214     -0.12296390242039      1.01848693519425
  C   -0.64883993464874     -1.82434212780145      0.27738717501362
  N   -0.72166493510643     -2.93563980375603      0.65400540938160
  N   -1.35986636543960      0.42677310530731      0.70820966819825
  O   -0.81795387943974      1.32303422055685      1.34508473961687
  O   -2.54706214397191      0.14266235453173      0.70361099825816
  N   1.42279908438835      1.24967007637577     -0.52996334727426
  H   0.95079131058931      1.98599308242554     -0.02622518061120
  H   1.25142766653592      1.34693425481562     -1.52064839612563
