13
Coordinates from ORCA-job run
  C   -0.58840536433860     -0.41891649379033     -0.37699383710374
  C   0.75968884370826      0.24568723728290     -0.64406038641334
  Cl  -1.46793683151848     -0.70269942211558     -1.89066194702472
  H   1.35770610522475     -0.46342651077931     -1.22205059234539
  H   0.57641248561520      1.12382611064697     -1.26667428724958
  C   -0.43395045372406     -1.66572651512034      0.35890238646272
  N   -0.24027889898627     -2.69240052508194      0.89597127360683
  N   -1.44484935248073      0.53927772906175      0.46294447640885
  O   -2.22491191227937      0.03490701566175      1.25675974565796
  O   -1.29626006545461      1.73069890324526      0.22743818901443
  N   1.35687994218319      0.54785984565577      0.63858947264792
  H   2.29281294698929      0.18412418210350      0.72698441576789
  H   1.35409255506145      1.53778844322960      0.83285109057018
