18
Coordinates from ORCA-job run
  C   0.58890907884556     -0.04718844171176     -0.47375439760972
  C   -0.55909657359639      0.07152606822852      0.53411360930835
  F   -0.00212505041175     -0.12096926889116     -1.74944323573502
  H   -0.10133825379666      0.18826627672629      1.52579359679325
  N   1.27898217746152     -1.29682806237644     -0.27992825748145
  H   1.51453554386664     -1.41982337351387      0.69702105826852
  H   2.13927026440593     -1.30399404920325     -0.81553912124437
  C   1.48852344728063      1.17430002832141     -0.50552712010269
  H   1.99903312571521      1.28599649103179      0.45424074884294
  H   2.23966188344089      1.04360994633580     -1.28940013804821
  H   0.91133629254368      2.07534280896674     -0.70183238961974
  C   -1.44599565707985     -1.17326931497759      0.52838303163779
  H   -2.27936223279580     -1.03411023249889      1.22307902529214
  H   -1.85051277784941     -1.33048028949240     -0.47352035659767
  H   -0.90234256654418     -2.07483434188358      0.81253547066271
  N   -1.27926330355122      1.31250985581072      0.24903256350998
  H   -2.02449777880998      1.42933161325483      0.92558580544650
  H   -1.71471761912483      1.22061428587284     -0.66283989332331
