18
Coordinates from ORCA-job run
  C   0.54712905151119      0.42886603110068     -0.44785712985885
  C   -0.85446256738984      0.08286272780149      0.06055707807687
  F   0.73285399104630      1.81105718231116     -0.16976775238023
  H   -1.53624214834597      0.74205018038212     -0.50864242559159
  N   0.58506213748577      0.20721947191349     -1.85751919979895
  H   1.51488218088501      0.37806016656022     -2.22089097550095
  H   -0.05840668494910      0.84122562458741     -2.31840571684658
  C   1.66645100832027     -0.31444925897504      0.24246411278401
  H   1.70416125819903     -0.04137209646957      1.29647874540815
  H   2.62325027905329     -0.03940276568497     -0.20936538396713
  H   1.51075417057029     -1.38788114167646      0.15251170551648
  C   -1.04300286394799      0.38085911054218      1.53899418707379
  H   -0.45327618700352     -0.31055626876697      2.14322039063552
  H   -2.09361225995947      0.25186226355767      1.81488723377819
  H   -0.75525284128432      1.40668019492864      1.76974374464161
  N   -1.08599403096390     -1.33586964843794     -0.18851824706102
  H   -2.03113713229158     -1.58193949849117      0.08008065310557
  H   -0.97315736093546     -1.52127227518292     -1.17797102001490
