18
Coordinates from ORCA-job run
  C   0.52802340122176     -0.13082724113725     -0.46361732661966
  C   -0.58889463017426      0.08915840691715      0.57341135537470
  F   -0.11632202066164     -0.47036353170076     -1.67376116190232
  H   -0.10065215253052      0.38622074597025      1.51135972535043
  N   1.34523380970375     -1.24173852106952     -0.08149978268723
  H   2.27766689041863     -1.18193652484265     -0.46708871757498
  H   1.39919854901815     -1.35410171364432      0.92021925722884
  C   1.32312560226982      1.12366992459156     -0.78118970226306
  H   0.68823659171736      1.90524027948517     -1.19846151365771
  H   2.08511130207183      0.88473588565161     -1.52776927841570
  H   1.81946532264497      1.49909392839630      0.11717953459172
  C   -1.39054584654993     -1.18823419240281      0.80206370876191
  H   -2.17931992217839     -0.98267357448790      1.52630754790619
  H   -1.85039627751962     -1.50408113654174     -0.13645643958929
  H   -0.77633180518647     -2.01465838691216      1.15972045936076
  N   -1.52187570271969      1.15306903728306      0.22091421854270
  H   -1.88142491665864      0.97533443709289     -0.71046884231694
  H   -1.05929819488712      2.05309217735113      0.20713695790964
