18
Coordinates from ORCA-job run
  C   0.59483202347398      0.24637973776563     -0.51328744384235
  C   -0.76931765908556      0.29485023914769      0.17639090431218
  F   0.48527223736464      1.22232309729015     -1.56661708662790
  H   -0.89865395367314      1.33505160780571      0.51361247824288
  N   0.82575383688265     -1.04223144875546     -1.04348083639352
  H   1.64748533167530     -1.05443769583367     -1.63321949477291
  H   0.00805794749392     -1.33906355916138     -1.56355375291561
  C   1.74895925834530      0.71765478506097      0.34153188235788
  H   2.64166084915509      0.80965563071734     -0.28177541030094
  H   1.53170226029174      1.69940193997890      0.76639757022903
  H   1.95433206286930      0.00707280278788      1.14116670067141
  C   -0.85349065302663     -0.63831532299840      1.37262633808319
  H   -0.65998083278519     -1.66446819340498      1.05972477613510
  H   -1.85047255702928     -0.58710930817633      1.82055191919088
  H   -0.13387348809850     -0.36262166904241      2.14506598918990
  N   -1.76876471182668     -0.09586213209720     -0.82041002901512
  H   -2.67889107585131     -0.17168493663322     -0.38306580126970
  H   -1.82261087617563      0.62340442554878     -1.53165870327440
