16
Coordinates from ORCA-job run
  C   -0.63672063880036     -0.40249263897998     -0.32346135292060
  C   0.81744615151926     -0.06649672473802     -0.01760954202905
  H   -0.71591037156903     -0.82924793465021     -1.32327347233027
  H   1.41103832921689     -0.98023626680330      0.00797930941314
  N   -1.46064675763299      0.73670683736362     -0.17186241073883
  H   -2.36358546089742      0.60237281031270     -0.60493781589396
  H   -1.60634022418279      0.93415295424396      0.81073919547763
  N   -1.00285865205299     -1.56641881975545      0.61628740096088
  O   -0.33206418498058     -2.58638479440714      0.49545829775941
  O   -1.93132774576969     -1.39782540940708      1.39788360009745
  N   0.92362536424397      0.66330669283686      1.18884189044997
  H   0.62443115387495      1.62022495691106      1.04588397065967
  H   1.87338128240805      0.67592386013263      1.53327510146055
  N   1.33966745968839      0.69060669586410     -1.25270903771747
  O   1.29781472887574      0.07872987982264     -2.31518525142932
  O   1.76404956605859      1.82807790125362     -1.08730988321918
