16
Coordinates from ORCA-job run
  C   0.46032242158163      0.46515066242751     -0.28681234438436
  C   -0.45850161764578     -0.59486216957911      0.29989566094463
  H   -0.09840111009204      1.11356106511772     -0.97147019217296
  H   0.05350104739509     -1.13533651226249      1.09333093197161
  N   1.64238336115021     -0.16254793009594     -0.82785975242978
  H   1.37354602180421     -0.85902289519307     -1.51021478223904
  H   2.21250399218105      0.53545176544980     -1.29055678223669
  N   0.95907124473215      1.40044079696766      0.78476656801764
  O   0.70770889319365      1.14363884206062      1.95784409252021
  O   1.62056069256951      2.34923354010833      0.37406333896944
  N   -0.99431719474246     -1.49836004176188     -0.66778202866936
  H   -0.51146007152454     -2.37977592394275     -0.71700733239675
  H   -1.16292210981448     -1.09362162576826     -1.57651124165412
  N   -1.63426145329388      0.08426350169672      0.96714850904129
  O   -2.04980324244005     -0.40970106799311      2.00531667277373
  O   -2.12193087505427      1.04148799276826      0.36684868194453
