16
Coordinates from ORCA-job run
  C   0.48631265807539      0.42138651703162     -0.36696682114795
  C   -0.56579153395549     -0.51387751638397      0.19612704798632
  H   0.02873656229726      1.12517920109340     -1.05930446815762
  H   -0.14699515268993     -1.13317279934648      0.99690793857925
  N   1.50363874220208     -0.34066954810776     -1.02426279419869
  H   2.12439097700762      0.25793058136775     -1.55366956643879
  H   2.04484411517578     -0.88046534872670     -0.35838041129236
  N   1.06338090902248      1.27890450357839      0.74318731260851
  O   1.46795734434497      2.38968280384509      0.41689060947092
  O   1.17202062972695      0.76380223334831      1.85537770741603
  N   -1.19605359884721     -1.21511584542164     -0.88729999527489
  H   -1.70574580159897     -2.01740235596357     -0.54143352052752
  H   -0.48294515593898     -1.51605672389185     -1.53980998748901
  N   -1.65229661687718      0.27869239758739      0.88091719449840
  O   -1.69010280183980      1.49470625141267      0.71832709248479
  O   -2.45235127610496     -0.39352435142265      1.52339266148261
