16
Coordinates from ORCA-job run
  C   -0.64232932660551     -0.05347553765527      0.26241736831010
  C   0.87621738271754      0.09343967446309      0.49845089611918
  Br  -1.37921718495000     -1.10565343755101      1.72998626389066
  H   1.01650862164520      0.58699303918064      1.46600717548266
  C   -0.99642918225040     -0.67201465021373     -1.06486524849735
  H   -2.07156758413568     -0.81325257211160     -1.14826688811277
  H   -0.48009079201605     -1.62695035662167     -1.14803437486243
  H   -0.66588628927383     -0.01234589134578     -1.87139041746117
  N   -1.28449930558946      1.32560642649639      0.39789364412698
  O   -2.31713412146261      1.52092619511174     -0.23078574315417
  O   -0.73245912698624      2.12464965338708      1.14853504428299
  C   1.41406488688360      0.98393706475451     -0.53713801853854
  N   1.85013553070994      1.68128230837149     -1.37509831502565
  N   1.51462954379841     -1.21465584294478      0.38585891524105
  H   2.50838484056393     -1.09833947515183      0.23025012890122
  H   1.38967210695117     -1.72114659816928      1.25417956929724
