16
Coordinates from ORCA-job run
  C   -0.67505166959385     -0.02886306375177      0.30325302392164
  C   0.84160603097606      0.05753963007313      0.57800871629466
  Br  -1.52892699322288     -0.94728950411407      1.78351144587014
  H   0.96912300825249      0.50091370625957      1.56677987132262
  C   -1.01202046258312     -0.70310805031190     -1.00208345656653
  H   -2.08909563027523     -0.73193249950900     -1.15122848996209
  H   -0.62953182213357     -1.72381312457238     -0.97594357633255
  H   -0.56041210871236     -0.15434763651685     -1.83302805268845
  N   -1.22481540130950      1.39465288189797      0.33256391144464
  O   -0.73195816649050      2.15110000103131      1.16366914013521
  O   -2.12301358979717      1.67066878050772     -0.45340693988422
  C   1.44084402520775      0.97400646358493     -0.41228024660522
  N   1.93766568173978      1.63975602047193     -1.24378868974436
  N   1.42843452137286     -1.26931617933560      0.56031290459022
  H   2.24236895548143     -1.29917496740938      1.15945794656173
  H   1.71578362108782     -1.52879245830561     -0.37479750835744
