16
Coordinates from ORCA-job run
  C   -0.64975918113627      0.00868117146817      0.32417706147949
  C   0.87656020499066     -0.15668413355695      0.43070537204891
  Br  -1.38364986123882      0.31459293847619      2.09727683990864
  H   1.00914388588920     -1.08279452298934      1.00111776081411
  C   -1.31316600200941     -1.19101812852707     -0.31589167607277
  H   -0.90673317492470     -1.32710548607709     -1.31856424881230
  H   -2.38969997095711     -1.04069116150596     -0.36493277813488
  H   -1.10294636246952     -2.08034187502318      0.28059561395895
  N   -0.98498330420093      1.24540817083175     -0.50283414714460
  O   -0.06102682639002      2.00948054994658     -0.77365613860648
  O   -2.15255858367893      1.38332981291248     -0.83953615743713
  C   1.52960080205378      0.91180431387953      1.20988378847104
  N   2.14623656280888      1.70851958289258      1.81393069362392
  N   1.44249553877641     -0.36179541909741     -0.89283331215233
  H   2.31231207542934     -0.87411237041538     -0.82214903355477
  H   1.62917419705747      0.53272655678510     -1.32828963838981
