16
Coordinates from ORCA-job run
  C   -0.61578865259358      0.06025061364223      0.38029133514161
  C   0.90259447029138     -0.18898227430935      0.35719530092129
  Br  -1.16576181787846      0.48626075408374      2.19468790104989
  H   1.03670155398525     -1.09757847284790      0.95484254827277
  C   -1.39903145683593     -1.12573930335559     -0.13831285137661
  H   -1.18155132140350     -1.99921048368555      0.47867904943861
  H   -1.09602794977068     -1.32770112127632     -1.16614043201574
  H   -2.46590247145357     -0.91624197725385     -0.09639461345541
  N   -0.95801256409217      1.27745813028106     -0.47282828776270
  O   -2.14183282137023      1.46383707741946     -0.71665744215478
  O   -0.02356795159184      1.97891618930256     -0.85407725416315
  C   1.68243240034863      0.86955937083178      1.02554793806757
  N   2.39498388519892      1.65439601543741      1.53172734466689
  N   1.33159668054842     -0.47879499468281     -1.00130401088111
  H   1.52870016972731      0.38510849261839     -1.49062375619652
  H   2.17246784689006     -1.04153801620529     -0.98763276955261
