16
Coordinates from ORCA-job run
  C   -0.63927839776126     -0.07292001229259      0.36719109898021
  C   0.89726391137663      0.01077603969702      0.49102299744615
  Br  -1.32813152628979     -1.15621912654246      1.82094583730482
  H   1.12525736872959      0.34821813152630      1.50321323594710
  C   -1.10649666032697     -0.61128935975005     -0.96111407039160
  H   -0.71804914939597     -1.62273982297837     -1.08312362815983
  H   -2.19305963420716     -0.64177957869801     -1.00063293918228
  H   -0.74706955698003      0.02952681704051     -1.77088605145462
  N   -1.19186466378977      1.33071258547500      0.60388021860746
  O   -2.16990414055747      1.67150199420757     -0.05029681207380
  O   -0.61840638625155      2.00468151217575      1.45405008515571
  C   1.38321687714524      1.03770239724524     -0.45176888227349
  N   1.78475440615438      1.79586266790241     -1.25504137186810
  N   1.48713962942237     -1.29614492617384      0.26989309197892
  H   1.67573797491381     -1.45008168020948     -0.71247742280146
  H   2.35988994781794     -1.37580763862501      0.77414461278483
