15

C	-0.313121	-0.051523	-1.507764
C	0.0	0.0	0.0
Cl	0.008994	1.614776	-2.221654
H	1.10352	0.0	0.0
N	0.522159	-1.063405	-2.046573
H	0.431386	-1.133725	-3.051416
H	1.494225	-0.875724	-1.788268
C	-1.725607	-0.332261	-1.792956
N	-2.848293	-0.549511	-2.061747
N	-0.54354	-1.223481	0.607298
H	-0.033107	-1.993533	0.185198
H	-0.287968	-1.211792	1.5899
C	-0.560102	1.166973	0.668727
N	-0.990337	2.088737	1.254937
Br	3.447671	0.0	0.0
