15

C	-0.477616	-0.028475	-1.455522
C	0.0	0.0	0.0
Cl	-2.375518	-0.158073	-1.3856
H	1.094977	0.0	0.0
N	-0.04343	1.085611	-2.176061
H	-0.350532	1.092161	-3.137172
H	-0.239403	1.961582	-1.711257
C	-0.075941	-1.269933	-2.118515
N	0.261927	-2.239089	-2.68873
N	-0.419383	-1.192211	0.703604
H	-1.32476	-1.081017	1.139894
H	0.279153	-1.422546	1.398886
C	-0.442826	1.26242	0.613771
N	-0.805793	2.2599	1.119385
Br	3.396432	0.0	0.0
