15

C	-0.342455	0.04113	-1.492766
C	0.0	0.0	0.0
Cl	-2.129508	0.247743	-1.72657
H	1.097417	0.0	0.0
N	0.338243	1.160775	-2.071097
H	1.322218	1.108775	-1.803147
H	0.261105	1.147967	-3.080449
C	-0.01828	-1.260251	-2.108794
N	0.287177	-2.240609	-2.680088
N	-0.476727	-1.213433	0.626582
H	0.180544	-1.494142	1.342835
H	-1.390485	-1.081065	1.039832
C	-0.454698	1.234134	0.65454
N	-0.835875	2.158969	1.271426
Br	3.383782	0.0	0.0
