15

C	-0.541544	-0.025128	-1.442405
C	0.0	0.0	0.0
Cl	0.0139	-1.500129	-2.266394
H	1.094465	0.0	0.0
N	-1.996351	-0.047564	-1.407067
H	-2.322118	0.854362	-1.06871
H	-2.350085	-0.173109	-2.349673
C	-0.026156	1.12575	-2.208006
N	0.278662	2.095466	-2.798332
N	-0.422856	-1.183317	0.716725
H	-1.342892	-1.076327	1.118045
H	0.258709	-1.386738	1.435949
C	-0.475031	1.253156	0.615649
N	-0.930611	2.207576	1.130838
Br	3.41785	0.0	0.0
