15

C	-0.307124	0.118769	-1.497837
C	0.0	0.0	0.0
Cl	-2.083627	0.378898	-1.772248
H	1.103265	0.0	0.0
N	0.418489	1.243386	-2.005812
H	0.370652	1.275815	-3.017383
H	1.39536	1.152913	-1.715628
C	0.001107	-1.16001	-2.166503
N	0.286424	-2.106349	-2.802885
N	-0.48397	-1.243801	0.555657
H	-1.386684	-1.127584	0.996011
H	0.182866	-1.585118	1.23532
C	-0.470642	1.198688	0.702902
N	-0.912751	2.09045	1.326623
Br	3.400537	0.0	0.0
