15

C	-0.314342	0.018759	-1.507514
C	0.0	0.0	0.0
Cl	0.024375	1.713184	-2.144281
H	1.106469	0.0	0.0
N	0.509017	-0.976533	-2.095041
H	1.484915	-0.806328	-1.836828
H	0.409886	-1.003402	-3.10212
C	-1.73071	-0.23331	-1.800076
N	-2.856678	-0.423702	-2.074409
N	-0.546308	-1.247378	0.551852
H	-0.301723	-1.275828	1.536694
H	-0.031412	-1.999182	0.103381
C	-0.561155	1.135917	0.719595
N	-1.022567	2.00853	1.355001
Br	3.450044	0.0	0.0
