15

C	-0.500838	0.268835	-1.421699
C	0.0	0.0	0.0
Cl	-2.396029	0.154012	-1.340862
H	1.104516	0.0	0.0
N	-0.057873	1.496382	-1.918072
H	-0.184479	2.259081	-1.268113
H	-0.412966	1.716935	-2.836644
C	-0.13235	-0.824588	-2.323777
N	0.15296	-1.657207	-3.102084
N	-0.414123	-1.310692	0.451577
H	-1.282235	-1.28568	0.967519
H	0.325367	-1.712747	1.013489
C	-0.432613	1.109117	0.864272
N	-0.805127	1.992536	1.545655
Br	3.390728	0.0	0.0
