15

C	-0.556319	0.101254	-1.435959
C	0.0	0.0	0.0
Cl	0.302779	-1.199308	-2.420012
H	1.096456	0.0	0.0
N	-1.962022	-0.071902	-1.401423
H	-2.146231	-0.904019	-0.848514
H	-2.349744	-0.160196	-2.331309
C	-0.21781	1.376298	-2.074277
N	-0.018322	2.400558	-2.612948
N	-0.492834	-1.264661	0.581568
H	0.265189	-1.933349	0.485731
H	-0.646236	-1.133841	1.573569
C	-0.491736	1.133466	0.782467
N	-0.882475	2.011326	1.458796
Br	3.420089	0.0	0.0
