15

C	-0.553958	-0.006311	-1.441712
C	0.0	0.0	0.0
Cl	0.35196	-1.319773	-2.346951
H	1.102672	0.0	0.0
N	-1.954242	-0.235916	-1.396067
H	-2.332182	-0.375343	-2.324709
H	-2.093868	-1.066204	-0.826523
C	-0.274124	1.245209	-2.150448
N	-0.12019	2.248496	-2.742238
N	-0.46518	-1.228148	0.667555
H	-0.848711	-1.007514	1.57789
H	0.352026	-1.812169	0.809863
C	-0.494743	1.185427	0.697342
N	-0.904154	2.10476	1.303643
Br	3.413662	0.0	0.0
