15

C	-0.538796	0.087831	-1.439103
C	0.0	0.0	0.0
Cl	0.303105	-1.194907	-2.420144
H	1.104746	0.0	0.0
N	-1.946886	-0.129349	-1.46087
H	-2.431129	0.413209	-2.157219
H	-2.352614	-0.053141	-0.538026
C	-0.161795	1.364462	-2.057271
N	0.026938	2.39896	-2.580726
N	-0.549389	-1.205333	0.646559
H	0.044568	-1.386569	1.448708
H	-0.39026	-1.977784	0.008726
C	-0.488402	1.174044	0.734951
N	-0.911806	2.091892	1.334392
Br	3.432954	0.0	0.0
