15

C	-0.53913	0.017696	-1.444224
C	0.0	0.0	0.0
Cl	-0.08385	1.573342	-2.226046
H	1.094003	0.0	0.0
N	0.019252	-1.081791	-2.159674
H	-0.546838	-1.336954	-2.957296
H	0.106218	-1.86075	-1.515284
C	-2.017605	-0.008456	-1.400478
N	-3.188314	-0.110727	-1.351202
N	-0.375907	-1.274377	0.611605
H	-1.242028	-1.205717	1.129402
H	0.368389	-1.552265	1.239321
C	-0.49284	1.158394	0.752293
N	-0.915992	2.025515	1.42358
Br	3.412502	0.0	0.0
