13
Coordinates from ORCA-job run
  C   -0.60756529130082      0.06889789618062      0.11501726427535
  C   0.80587079630998     -0.44312860725285     -0.11698170697379
  H   -0.75107157412667      0.30209929886139      1.17335806826767
  H   1.01136181382364     -0.63183038470871     -1.16905327891134
  H   0.98510787929191     -1.34239353714701      0.47103603436629
  N   -1.61392973263062     -1.03195828164565     -0.19498692740637
  O   -1.23797838322048     -2.17961902160002      0.01253536759371
  O   -2.72471570201525     -0.67706758948756     -0.56099186769556
  C   -0.90033545909295      1.24546182674623     -0.69374155932798
  N   -1.07287286344977      2.20314070671779     -1.35104161583784
  N   1.78774036528072      0.58655389105426      0.34908446841844
  O   2.82431097399640      0.68916272359128     -0.29514742222374
  O   1.49407717713392      1.21068107869022      1.36591317545515
