13
Coordinates from ORCA-job run
  C   -0.60750174314452      0.14248748550296      0.28616456618707
  C   0.80284348783835      0.54316676750048     -0.08298433482605
  H   -0.64196323500127     -0.34665772403618      1.26085040828195
  H   0.88190955503596      0.85956993835674     -1.12029914133937
  H   1.16217808725967      1.33797708897375      0.57351155611153
  N   -1.15231718872712     -0.89731088410173     -0.68466692212870
  O   -0.50153105354242     -1.11732011811325     -1.69772884959265
  O   -2.20884626679600     -1.41447322707011     -0.35297295203463
  C   -1.49958489487571      1.29676356215976      0.26502100276155
  N   -2.18802799781837      2.24794682469562      0.24958591559979
  N   1.74594946435681     -0.60971627468680      0.08831080107404
  O   1.35888978389820     -1.57322030401132      0.74276793177708
  O   2.84900200151640     -0.47021313516993     -0.42155998187161
