13
Coordinates from ORCA-job run
  C   -0.30033261428500      0.09190432260785      0.35884886330035
  C   0.90351950784581     -0.71696823755123     -0.12403838409851
  F   -0.05544783583743      0.47817920394793      1.66478877105050
  H   0.67038572531280     -1.18129541475758     -1.08706844755338
  H   1.05002544748033     -1.52326640351472      0.59606513209987
  N   -1.44076999000727     -0.80353111940677      0.45305787663926
  H   -2.05741367937655     -0.46846020750453      1.18366211649735
  H   -1.94969044887383     -0.81341391062164     -0.42150045454133
  N   -0.43328052898506      1.28885383409152     -0.41091426960343
  H   -1.30823097920033      1.75902822458195     -0.22099424356052
  H   -0.32566107397463      1.13139581324811     -1.40270946463386
  C   2.12479209890572      0.07541390110060     -0.24250369474087
  N   3.12310437099542      0.68215999377853     -0.34569380085542
