13
Coordinates from ORCA-job run
  C   -0.25325824368888      0.22466322328165      0.33600542912808
  C   1.10666331132206      0.06013997383414     -0.34241511441987
  F   -0.03582144866259      0.35197270857685      1.69657759084379
  H   0.98541938195167      0.12962534734373     -1.42770316395780
  H   1.71824169614907      0.90813228734684     -0.03095060681409
  N   -1.04476892558679     -0.95078878853950      0.14956566817746
  H   -2.00052807373567     -0.80778296699859      0.44747400977020
  H   -1.01907407822939     -1.29445100633158     -0.79978856547591
  N   -0.80829478441992      1.50643826859816     -0.06430226000005
  H   -1.39853915579272      1.85246512135614      0.68281035523483
  H   -1.37108385926147      1.39774922388529     -0.89821242814696
  C   1.77722667321312     -1.19180857297424     -0.00126608591856
  N   2.34381750674151     -2.18635481937890      0.25420517157889
