15

C	0.0	0.0	0.0
C	-0.373574	0.000567	-1.503504
F	1.342975	0.0	0.0
H	0.5354	-0.380702	-1.987971
N	-0.418126	1.165463	0.862378
O	-0.553036	2.258181	0.322266
O	-0.335491	0.948235	2.068597
C	-0.434726	-1.254676	0.61826
N	-0.502804	-2.335323	1.090008
N	-0.457341	1.378502	-2.123111
O	-1.516427	1.763563	-2.554573
O	0.613313	1.977361	-2.209959
C	-1.48202	-0.840142	-1.941042
N	-2.201004	-1.570228	-2.514832
F	-2.222554	0.0	0.0
