15

C	0.0	0.0	0.0
C	-0.38223	-0.168099	-1.49326
F	1.346078	0.0	0.0
H	0.443818	-0.756082	-1.908455
N	-0.410595	1.280285	0.701446
O	-0.541715	2.287613	0.023832
O	-0.4182	1.218857	1.923488
C	-0.459214	-1.156385	0.772418
N	-0.524013	-2.164992	1.374286
N	-0.271878	1.134273	-2.265661
O	0.872295	1.560213	-2.395054
O	-1.286239	1.632162	-2.72798
C	-1.636996	-0.847055	-1.804825
N	-2.336403	-1.537033	-2.456845
F	-2.267868	0.0	0.0
