12
Coordinates from ORCA-job run
  C   -0.50131326595756      0.10851133590451      0.18749526603344
  C   0.95049812092658      0.54500502041964     -0.06697103885612
  Br  -1.62977471109464      0.95311186000328     -1.26976722314176
  H   1.54655781116039      0.22598528854183      0.79391458307131
  H   1.00510014965942      1.63149409231485     -0.15324025860951
  C   -0.97773735503840      0.70977847564684      1.43285916263240
  N   -1.33066573787732      1.18614938696398      2.44731454946833
  N   -0.59917179431562     -1.29687325317442      0.25353424717564
  H   -1.53290335311486     -1.61034988778656      0.48580978694948
  H   -0.28996284642873     -1.73789898697923     -0.60540314207131
  C   1.47662328075266     -0.08374190521756     -1.27453582714064
  N   1.88274970132808     -0.63117142663715     -2.23001010551126
