12
Coordinates from ORCA-job run
  C   -0.58810322688168      0.08474983425445      0.01483410400823
  C   0.84893216320724     -0.27192197971886     -0.42830502547806
  Br  -1.38017429478885      1.20632731059528     -1.39045304304102
  H   1.27249548413562     -0.94331317171510      0.32717845097918
  H   0.78957709235376     -0.81807219605822     -1.37427062524042
  C   -0.54269395990474      0.86658110179953      1.25257162265333
  N   -0.46934844197161      1.44833967817116      2.27092539308270
  N   -1.45066265400010     -1.04937429960353      0.21164042246743
  H   -1.47792368816251     -1.63225021106817     -0.61667292420532
  H   -1.15398710962890     -1.59412051635590      1.01380901594306
  C   1.72163057480586      0.88716146489944     -0.58426508400141
  N   2.43025806083591      1.81589298479993     -0.69699230716770
