12
Coordinates from ORCA-job run
  C   -0.52561354780781      0.16325908889616      0.02827903023830
  C   0.98681981540433      0.42878770162169      0.01955220437715
  Br  -1.36852032779267      1.16715014363975     -1.42579588727545
  H   1.43119547500237     -0.08730087865735      0.87910979554133
  H   1.17384893366965      1.49781133657487      0.14569718050703
  C   -1.08352001832807      0.69291433329051      1.28467979915398
  N   -1.50710099111930      1.04703868259740      2.32332258803731
  N   -0.77525611153192     -1.23592419188156     -0.19453685963260
  H   -1.76950204842200     -1.42846275219409     -0.22687880946232
  H   -0.35641527109601     -1.78840358456666      0.54726198546978
  C   1.62121163285756     -0.04573919111562     -1.20670702942008
  N   2.17285245916388     -0.41213068820510     -2.17498399753441
