12
Coordinates from ORCA-job run
  C   -0.53748147427255      0.11816029114673      0.02210787187314
  C   0.94532760323952      0.51545319747343     -0.02089814523304
  Br  -1.47197608657264      0.93512363858941     -1.49193325677902
  H   1.03703844055114      1.60311010333134      0.02626561552245
  H   1.43714389768945      0.10409286806580      0.86875663575321
  C   -1.13592979342467      0.68572835276656      1.24286133249621
  N   -1.58333528529967      1.07287957292026      2.25950478632897
  N   -0.66204671201346     -1.31003333896941     -0.09711314586396
  H   -0.19493168302807     -1.76798404125838      0.67945342520737
  H   -1.63515692396411     -1.59175942852374     -0.10796493993955
  C   1.61353529733998      0.01106415301859     -1.21689681619692
  N   2.18781271975508     -0.37483536856059     -2.16414336316886
