15

C	-0.025975	0.004196	-1.522269
C	0.0	0.0	0.0
Cl	-1.682981	0.115198	-2.261909
H	1.090589	0.0	0.0
H	-0.481379	0.886723	0.395903
N	0.682789	1.233653	-1.848497
H	1.595697	1.109993	-1.388283
H	0.829333	1.263703	-2.852396
N	0.572488	-1.228074	-1.979043
H	0.751211	-1.146538	-2.97457
H	1.470371	-1.262003	-1.488906
N	-0.60148	-1.180708	0.62539
O	-1.719496	-1.038033	1.138826
O	0.029523	-2.236547	0.631335
F	2.650606	0.0	0.0
