15

C	-0.044597	-0.026616	-1.521513
C	0.0	0.0	0.0
Cl	-1.714688	-0.220893	-2.224688
H	1.090589	0.0	0.0
H	-0.47184	-0.886213	0.411116
N	0.480546	1.22543	-2.016359
H	1.384226	1.320367	-1.550052
H	0.643033	1.12893	-3.013729
N	0.708784	-1.225721	-1.843039
H	1.611359	-1.077231	-1.370432
H	0.868168	-1.252297	-2.844866
N	-0.597757	1.182007	0.626059
O	-1.685407	1.030015	1.197288
O	0.013248	2.249144	0.580254
F	2.646558	0.0	0.0
