15

C	-0.180363	0.038601	-1.52662
C	0.0	0.0	0.0
Cl	-0.014978	-1.782031	-1.991334
H	1.08876	0.0	0.0
H	-0.49578	-0.823713	0.502421
N	-1.423445	0.55783	-1.963439
H	-1.447832	0.543569	-2.975326
H	-2.192928	0.016129	-1.592605
N	0.895251	0.707375	-2.194827
H	0.755535	1.691127	-1.97898
H	1.748628	0.437407	-1.673737
N	-0.488332	1.24491	0.606984
O	-0.06899	2.317113	0.169494
O	-1.287146	1.155263	1.547795
F	2.613559	0.0	0.0
