15

C	-0.220752	0.020352	-1.519716
C	0.0	0.0	0.0
Cl	-0.012036	-1.642779	-2.200797
H	1.087107	0.0	0.0
H	-0.380701	0.948163	0.38967
N	-1.540233	0.459611	-1.894321
H	-1.515403	0.714406	-2.876275
H	-1.785431	1.273625	-1.344078
N	0.848988	0.819319	-2.098417
H	0.673188	1.77787	-1.805522
H	1.717061	0.535612	-1.603359
N	-0.695173	-1.050728	0.751792
O	-1.7872	-0.755327	1.258975
O	-0.168723	-2.157835	0.846233
F	2.640841	0.0	0.0
