15

C	-0.233198	0.146616	-1.509669
C	0.0	0.0	0.0
Cl	-0.215425	-1.506571	-2.360516
H	1.091402	0.0	0.0
H	-0.402512	0.894064	0.475224
N	-1.550929	0.665174	-1.835427
H	-1.653251	0.691193	-2.84523
H	-1.557334	1.62678	-1.505358
N	0.854824	0.960149	-1.925373
H	1.728551	0.662385	-1.444655
H	0.955953	0.967686	-2.931118
N	-0.64802	-1.139065	0.657965
O	-1.674597	-0.907117	1.309625
O	-0.130721	-2.250905	0.56141
F	2.657951	0.0	0.0
