15

C	-0.220126	0.107869	-1.514015
C	0.0	0.0	0.0
Cl	-0.465512	-1.715996	-2.075981
H	1.087411	0.0	0.0
H	-0.460939	-0.87042	0.45003
N	-1.473888	0.713696	-1.916368
H	-1.35055	1.706478	-1.740934
H	-1.589155	0.583405	-2.916988
N	0.939618	0.656498	-2.063791
H	1.790413	0.406556	-1.518259
H	1.022541	0.530847	-3.062521
N	-0.478927	1.174417	0.742817
O	-0.43772	2.287136	0.2119
O	-0.852687	0.986191	1.902552
F	2.643867	0.0	0.0
