15

C	-0.185571	-0.016199	-1.525441
C	0.0	0.0	0.0
Cl	-0.00161	1.807759	-1.964809
H	1.090251	0.0	0.0
H	-0.490939	0.81839	0.515934
N	0.880614	-0.686865	-2.207506
H	1.737482	-0.42896	-1.687771
H	0.732692	-1.671627	-2.00137
N	-1.436146	-0.515321	-1.965883
H	-1.463233	-0.485476	-2.97767
H	-2.198651	0.028921	-1.585162
N	-0.483615	-1.250585	0.598461
O	-0.095304	-2.319829	0.126059
O	-1.24179	-1.168602	1.572784
F	2.608704	0.0	0.0
