15

C	0.0	0.0	0.0
C	-0.382243	-0.052967	-1.509227
F	1.368399	0.0	0.0
H	-1.366647	-0.480066	-1.657112
C	-0.696109	1.118219	0.654579
N	-0.658602	2.105619	1.321667
C	-0.474197	-1.237188	0.665566
N	-0.538457	-2.247976	1.271024
N	0.622956	-0.890443	-2.255847
O	1.331085	-0.360319	-3.105496
O	0.614025	-2.078973	-1.955242
N	-0.36862	1.295422	-2.141157
O	0.467974	2.102699	-1.749914
O	-1.176985	1.464185	-3.051933
H	-2.180929	0.0	0.0
