15

C	0.0	0.0	0.0
C	-0.39475	-0.034958	-1.503229
F	1.368535	0.0	0.0
H	-1.375357	0.39974	-1.659491
C	-0.581065	1.21159	0.621265
N	-0.539911	2.244993	1.201436
C	-0.545138	-1.152683	0.72965
N	-0.577708	-2.118475	1.414127
N	-0.404524	-1.412296	-2.065735
O	0.472275	-2.182709	-1.685624
O	-1.264312	-1.646347	-2.912414
N	0.616558	0.749994	-2.307941
O	1.217199	0.194001	-3.222087
O	0.699231	1.932507	-1.998446
H	-2.183441	0.0	0.0
