16

C	0.0	0.0	0.0
C	-0.329343	0.075761	-1.53114
Cl	1.783357	0.0	0.0
H	-0.076751	-0.90756	-1.936317
H	0.412495	0.775797	-1.928431
C	-0.610545	1.113849	0.795513
H	-0.275928	1.095935	1.831854
H	-0.334983	2.066425	0.334406
H	-1.700698	0.936541	0.714536
N	-0.415215	-1.335391	0.609927
O	-0.581752	-2.289871	-0.140283
O	-0.495348	-1.379716	1.833249
N	-1.636233	0.486291	-1.965431
H	-1.708907	1.48853	-1.825686
H	-2.361094	0.107426	-1.298407
F	-3.151618	0.0	0.0
