16

C	0.0	0.0	0.0
C	-0.326707	0.065737	-1.529982
Cl	1.7836	0.0	0.0
H	-0.012341	-0.899145	-1.93886
H	0.378807	0.807494	-1.917916
C	-0.626429	1.103528	0.796429
H	-0.377343	2.059972	0.328904
H	-0.283029	1.097	1.829588
H	-1.714941	0.907798	0.722422
N	-0.404002	-1.340377	0.608316
O	-0.595021	-2.286635	-0.146021
O	-0.454412	-1.393697	1.832998
N	-1.65401	0.401181	-1.970691
H	-2.364654	0.034621	-1.281707
H	-1.766587	1.40464	-1.877839
F	-3.18403	0.0	0.0
