16

C	0.0	0.0	0.0
C	-0.563533	-0.066092	-1.410184
Cl	1.765136	0.0	0.0
H	-0.334837	0.911082	-1.850084
H	-1.653384	-0.133117	-1.217252
C	-0.554333	1.199081	0.732052
H	-1.650999	1.059705	0.66599
H	-0.195686	1.220664	1.760122
H	-0.227156	2.103842	0.212924
N	-0.404156	-1.254485	0.781995
O	-0.364437	-1.188336	2.006114
O	-0.684374	-2.267597	0.148014
N	0.033314	-1.095979	-2.270121
H	-0.433347	-1.969782	-2.057604
H	-0.199456	-0.857641	-3.227318
F	-2.945844	0.0	0.0
