16

C	0.0	0.0	0.0
C	-0.54748	0.072811	-1.415097
Cl	1.785606	0.0	0.0
H	-0.223195	-0.811505	-1.97024
H	-1.640202	0.040494	-1.217013
C	-0.519868	1.107962	0.874973
H	-0.229098	2.051475	0.413534
H	-1.614117	0.965779	0.841691
H	-0.114764	1.033302	1.883459
N	-0.385655	-1.349306	0.599877
O	-0.536199	-1.412465	1.812762
O	-0.445539	-2.310033	-0.161789
N	-0.146062	1.33621	-2.038025
H	-0.897665	1.651093	-2.637234
H	0.676174	1.196278	-2.612734
F	-2.906496	0.0	0.0
