16

C	0.0	0.0	0.0
C	-0.367631	0.186519	-1.513562
Cl	1.775165	0.0	0.0
H	0.394199	-0.350173	-2.083669
H	-0.189856	1.258362	-1.681213
C	-0.645772	0.990756	0.920032
H	-1.734251	0.815037	0.798559
H	-0.335615	0.841733	1.953895
H	-0.377373	1.998457	0.594628
N	-0.354168	-1.415914	0.444315
O	-0.336378	-2.29481	-0.414244
O	-0.569306	-1.605192	1.637126
N	-1.667472	-0.18252	-1.991963
H	-2.406152	0.045078	-1.272483
H	-1.688999	-1.193818	-2.055622
F	-3.235737	0.0	0.0
