16

C	0.0	0.0	0.0
C	-0.56083	0.03719	-1.412271
Cl	1.77491	0.0	0.0
H	-0.348076	1.049935	-1.772368
H	-1.649467	-0.058987	-1.227263
C	-0.552556	1.142064	0.817417
H	-0.229102	2.081623	0.362384
H	-0.19218	1.091666	1.843778
H	-1.649037	1.005202	0.742608
N	-0.395008	-1.309525	0.687688
O	-0.630635	-2.283919	-0.019149
O	-0.386574	-1.328002	1.912849
N	0.051276	-0.906695	-2.356054
H	-0.263172	-0.639673	-3.28172
H	-0.343976	-1.817435	-2.16121
F	-2.941673	0.0	0.0
