16

C	-0.022054	0.00876	-1.552493
C	0.0	0.0	0.0
F	-1.320491	0.093949	-2.030073
H	1.092035	0.0	0.0
N	0.729534	1.082873	-2.139212
H	1.640242	1.01795	-1.678064
H	0.324667	1.96316	-1.846132
N	0.544761	-1.261137	-1.914136
H	1.441952	-1.296084	-1.424498
H	0.75396	-1.196703	-2.905745
C	-0.59543	-1.183066	0.579221
N	-1.049521	-2.151278	1.066262
N	-0.547086	1.214919	0.63955
O	-0.19282	2.311851	0.205353
O	-1.302542	1.075545	1.600565
F	2.545686	0.0	0.0
