16

C	-0.282598	-0.014695	-1.508162
C	0.0	0.0	0.0
F	-1.63959	-0.394594	-1.709715
H	1.090736	0.0	0.0
N	0.023932	1.19906	-2.14685
H	-0.507787	1.964257	-1.763802
H	-0.121544	1.076741	-3.138863
N	0.523149	-1.047586	-2.109672
H	0.199132	-1.943125	-1.75936
H	1.464285	-0.89055	-1.736299
C	-0.450579	-1.237611	0.608055
N	-0.749282	-2.279371	1.062494
N	-0.493436	1.133551	0.817156
O	-0.489462	0.978504	2.036567
O	-0.824903	2.184387	0.262988
F	2.491899	0.0	0.0
