15
Coordinates from ORCA-job run
  C   -0.50095273643582      0.08902886604922     -0.01790799240196
  C   0.88072129760680      0.11283090202085      0.60373975926837
  Br  -1.80954765593066     -0.43774224058659      1.29915659403999
  H   0.93678599219338      0.87564433215163      1.37801468896660
  H   1.62666616836849      0.29622800683314     -0.17158239546806
  C   -0.85697686891733      1.45454054107248     -0.58535851334432
  H   -0.10750706830845      1.75105374463722     -1.32206386617342
  H   -1.83582538318954      1.41138736732518     -1.06553841915432
  H   -0.89575230120512      2.19230738177955      0.21656486814676
  N   -0.50897667583885     -0.88112908726942     -1.20843995512729
  O   0.42682053408355     -0.70725796962891     -1.98289013471312
  O   -1.43463688608982     -1.66020641357825     -1.34619897493758
  N   1.25530326429269     -1.18045642240554      1.24893807121204
  O   1.88895593448339     -1.10926028235083      2.29655415631455
  O   0.93492238488729     -2.20696872604975      0.65801211337176
