15
Coordinates from ORCA-job run
  C   -0.67160794904155      0.07830069403714     -0.01302245194402
  C   0.22404472549207     -0.51199337802069      1.05879013418094
  Br  -2.46626652508408      0.10960701371216      0.75565914913044
  H   0.18568714055683      0.08656560773572      1.96722055780594
  H   -0.06024739150708     -1.54074887194893      1.27719288451352
  C   -0.28924102154646      1.46400209851612     -0.47437977546648
  H   0.67169631541562      1.43208140238002     -0.98811135334836
  H   -0.22371701379646      2.12256184941481      0.39380518192357
  H   -1.03583016368209      1.85659679952200     -1.16101567316903
  N   -0.76070813428747     -0.88948647445408     -1.19403898944545
  O   -0.86996607863203     -0.39328193048509     -2.30672492740559
  O   -0.75356030489926     -2.08361049971851     -0.92618911435448
  N   1.66096747378949     -0.55293142277374      0.63652783727829
  O   1.89635146188089     -0.66000758068475     -0.56485716865737
  O   2.49139746534157     -0.51765530723219      1.53714370895810
