15
Coordinates from ORCA-job run
  C   -0.50565981416993      0.05208086922353     -0.00027955820220
  C   0.88388589459832      0.09839184705582      0.60259480865713
  Br  -1.74155298855134     -0.74884199797666      1.24701175474728
  H   1.59715846692903      0.43858254881098     -0.15015352102377
  H   0.90026644937364      0.75318357731254      1.47175320693459
  C   -0.97655588712467      1.44974645983399     -0.37158280665161
  H   -1.05373642813275      2.06690720428379      0.52397533912272
  H   -0.26782967225592      1.90082975248997     -1.06917160549888
  H   -1.95946578817504      1.39556886651784     -0.84221773686016
  N   -0.46652006041144     -0.74545854853986     -1.31250254397763
  O   -1.33150642283000     -1.57078569374250     -1.54350460018110
  O   0.43470743474652     -0.39493082227887     -2.06773584399038
  N   1.36524497797827     -1.23781942224154      1.06390165270200
  O   2.00097922012296     -1.26253950663208      2.11231876405509
  O   1.11958461790234     -2.19491513411695      0.33659269016690
