15
Coordinates from ORCA-job run
  C   -0.52568230252119     -0.05483080803305     -0.12824116481952
  C   0.67689486218656     -0.79441370128145      0.44972475026608
  Br  -1.98039681892735     -0.04618853699810      1.16083578537554
  H   1.46281807147822     -0.85646128918389     -0.30371219870148
  H   0.40066288416215     -1.78302443285498      0.80283090702266
  C   -0.25062318886829      1.34711118147606     -0.62199348514264
  H   0.06109432730127      1.98444648108933      0.20277189554419
  H   0.55222932658660      1.32122011777236     -1.36421806239538
  H   -1.15009038024920      1.75512693475800     -1.07833542283836
  N   -1.02639187452655     -0.88911653942876     -1.31702991947989
  O   -1.86263684600207     -0.36679825313778     -2.03933470029655
  O   -0.55295582868095     -2.01384345573900     -1.45276269454741
  N   1.25104860397811     -0.05190548385154      1.60914967189057
  O   0.99905797884429     -0.48170652151218      2.73137618800320
  O   1.94497118523841      0.93038430692499      1.34893845011900
