15
Coordinates from ORCA-job run
  C   -0.52814668044299     -0.03514552877125     -0.12406083095931
  C   0.64754439110099     -0.81319771166901      0.45839979887320
  Br  -1.97123674156861      0.05463723198639      1.17519253134929
  H   0.33420011519987     -1.78397702262936      0.82956545501101
  H   1.42523214355627     -0.91938561371898     -0.29866559720881
  C   -0.20054123034666      1.34591179020522     -0.64392226939128
  H   -1.08622333291730      1.78167192498468     -1.10158415431373
  H   0.59514095712710      1.27485654421172     -1.39091634442900
  H   0.14253091748644      1.98420887373368      0.16750537595424
  N   -1.07131303103588     -0.86852946638048     -1.29464451104738
  O   -1.89192866054619     -0.32559296599426     -2.01966460320837
  O   -0.64362627182359     -2.01318594008454     -1.41473131564607
  N   1.25940652618038     -0.07623247477468      1.60214289213492
  O   1.00089206224054     -0.47986535883724      2.73256412811888
  O   1.98806883578964      0.87482571773813      1.32181944476242
