15
Coordinates from ORCA-job run
  C   -0.67425908648902      0.01359583772491      0.04748326967797
  C   0.36530346024345     -0.50246288197787      1.02346110644408
  Br  -2.38777579005981     -0.13808998419706      0.97167431954761
  H   0.35199644398150      0.07786109501170      1.94433894003095
  H   0.19962791946288     -1.55640762978303      1.24391441304678
  C   -0.46751915331247      1.43596920736888     -0.41450745410043
  H   0.44265440694089      1.50384075580148     -1.01058788920624
  H   -0.38793780287640      2.08570519568853      0.45911813608373
  H   -1.30592273363175      1.76432674329434     -1.02463192305347
  N   -0.77659739178518     -0.94183383766254     -1.14209674592455
  O   -0.63466245005348     -2.13348905420200     -0.90176325395716
  O   -1.02844108280854     -0.44319415195284     -2.23033210879167
  N   1.75628097559386     -0.40031528454901      0.47611075150825
  O   2.65681635948275     -0.29978456062181      1.30129235378665
  O   1.89243592531131     -0.46672144994370     -0.74347391509251
