15
Coordinates from ORCA-job run
  C   -0.49955079552852      0.05337142457997     -0.07394594274023
  C   0.78742718952174      0.09332339140824      0.72525983883090
  Br  -1.90535181165966     -0.74960278313854      0.97700765391622
  H   0.67886003410767      0.74569106161649      1.58962251125288
  H   1.60354181081704      0.43340709976599      0.08535534283479
  C   -0.90868843829107      1.45365136991699     -0.50385297267362
  H   -1.11557105240674      2.06716819188889      0.37346122608875
  H   -1.81193531614922      1.40360800061980     -1.11395801484307
  H   -0.10469765568577      1.90623899595268     -1.08790938700383
  N   -0.27146357929316     -0.73887785701508     -1.36977115273494
  O   0.73002011833374     -0.38654022622034     -1.98495118654308
  O   -1.09517003980896     -1.56118111203238     -1.72780345348653
  N   1.19206814817771     -1.24570259275219      1.24695435870727
  O   1.05697387494468     -2.19859597617846      0.48585298446903
  O   1.66353751292051     -1.27695898841206      2.37867819392545
