15
Coordinates from ORCA-job run
  C   -0.49829985224835      0.09837035848970     -0.02573101689631
  C   0.87486173423058      0.09565297970118      0.61522476756119
  Br  -1.83512358845993     -0.40936869358148      1.27062400294215
  H   0.93572994001272      0.85782530580681      1.38975072612986
  H   1.63474930645812      0.26279601301278     -0.15018503442658
  C   -0.82240164908084      1.47138246481570     -0.59397482034981
  H   -0.86032185245693      2.20731977014316      0.20967501308268
  H   -1.79473563987891      1.44669911653669     -1.08847522540510
  H   -0.05707076006304      1.75691042739382     -1.31861714940710
  N   -0.50622078037339     -0.86864809914632     -1.21912338417103
  O   -1.43921900993792     -1.63664141203593     -1.36870073632193
  O   0.44056336558216     -0.70564293886291     -1.98243825871552
  N   1.21364926990015     -1.20473672471667      1.26595550071113
  O   0.89306038570209     -2.22418654106338      0.66307953882232
  O   1.82077913061348     -1.14673202649316      2.32993607644404
