15
Coordinates from ORCA-job run
  C   -0.52712910328632     -0.03962194450381     -0.12849975491045
  C   0.62150091454270     -0.76456430901116      0.56622221927139
  Br  -1.98889667326888      0.23713329165895      1.12217060569962
  H   1.40849485550189     -0.97755208559251     -0.15793788224144
  H   0.28043002105674     -1.67601732616039      1.04707158883483
  C   -0.15948095647222      1.26061958485956     -0.80603183940539
  H   0.64526787743684      1.08200962037284     -1.52482657554392
  H   0.18674523851827      1.98537206901844     -0.07223604417531
  H   -1.02756215789883      1.65694399626225     -1.32864751232603
  N   -1.06960359012161     -0.99792671575174     -1.19954821243772
  O   -0.66702973193359     -2.15756172050400     -1.17137648096182
  O   -1.86541424396725     -0.53016824223278     -2.00061849778852
  N   1.23096404285592      0.09423643490660      1.62280011618082
  O   0.94330631225759     -0.16112879835903      2.78885775855324
  O   1.98740719477872      0.98722614503678      1.24260051125071
