15
Coordinates from ORCA-job run
  C   -0.49251537723986      0.01330576790989     -0.12582042578528
  C   0.68852542130198      0.03684756693643      0.82339198745924
  Br  -1.88757289541644     -1.11704588005349      0.58224126337823
  H   1.51683075691325      0.57733042302710      0.36197262183479
  H   0.40812738060831      0.49680533355326      1.76906492308220
  C   -1.02833322868744      1.41881753402646     -0.35061077568591
  H   -1.85042365300110      1.39071368487706     -1.06750552910219
  H   -0.23173741882861      2.05540586015495     -0.74119046230576
  H   -1.40016157921980      1.83015697140175      0.58822954985908
  N   -0.03184218903183     -0.49119238851506     -1.50136860909411
  O   0.97549241041235      0.07504712905580     -1.91398092606137
  O   -0.70181933231885     -1.31427538808415     -2.09837698447144
  N   1.20530783160839     -1.32626106952971      1.14715645138878
  O   1.26745022132102     -2.12813415930578      0.22052754651798
  O   1.56267165157863     -1.51952138545450      2.30426936898576
