15
Coordinates from ORCA-job run
  C   -0.70272746569145      0.05784863475580      0.05180736985840
  C   0.31470320794073     -0.44068948237037      1.07803738629281
  Br  -2.39042253933045      0.14203986493608      1.00697036492374
  H   0.06582337297829     -1.45064229481532      1.40026457354548
  H   0.31127500520744      0.24077847713612      1.92884861958410
  C   -0.41552239808348      1.39378870773004     -0.60437133314989
  H   0.50798082770722      1.33660061638867     -1.17809071917191
  H   -0.31002614214569      2.16651443934976      0.15708237465312
  H   -1.24611026771232      1.65416163942918     -1.26289046676027
  N   -0.80072878072594     -0.98048738627325     -1.06938860720635
  O   -1.88360868775417     -1.42982442486916     -1.40759696582046
  O   0.29011975366009     -1.23749738946372     -1.57360904108862
  N   1.73201276120700     -0.47957433799575      0.59492853663095
  O   2.28086129153854     -1.57508035363389      0.56338341712855
  O   2.24637006120419      0.60006328969581      0.31562449058036
