12
Coordinates from ORCA-job run
  C   -0.70237157414693     -0.12493824006818     -0.38026243612702
  C   0.66651649108803     -0.24135567529000      0.32258254009568
  Cl  -1.50520079732454     -1.75448877535380     -0.21780443575524
  H   0.48284161834026     -0.50221612287948      1.37269892735563
  H   -0.55294350644429      0.01786675310682     -1.45041211195757
  N   -1.42988398455143      0.95750745434144      0.15899957604515
  H   -2.24730031895236      1.17722185091938     -0.39377705045423
  H   -1.71014251158861      0.79075242425954      1.11757714714226
  C   1.37631322182532      1.04173075989152      0.26969100570785
  N   1.96139471900744      2.05820926111983      0.22633264737004
  C   1.49482498578659     -1.29553962135684     -0.27075132704833
  N   2.16595165696051     -2.12775006869021     -0.75487448237423
