12
Coordinates from ORCA-job run
  C   -0.73051585285779      0.26569536044199     -0.32088413074449
  C   0.78063756080869      0.25340444253758     -0.01611889684484
  Cl  -1.12018073860385     -1.19971608445681     -1.32302077732636
  H   0.98833053054341      1.18337259558129      0.52697273417064
  H   -0.94225432603084      1.11920638922726     -0.96571836031418
  N   -1.45200561645689      0.38236201804070      0.89139398109410
  H   -1.36992367945351     -0.45331897692189      1.45962419103631
  H   -2.43209103873376      0.56505742355715      0.72045515470379
  C   1.59250571458586      0.23575054109726     -1.23451334270331
  N   2.24041697406467      0.26761269848482     -2.21248595528843
  C   1.11385414437676     -0.86835643836319      0.86655505954957
  N   1.33122632775723     -1.75206996922615      1.60774034266720
