12
Coordinates from ORCA-job run
  C   -0.75237700791948      0.17208794282940     -0.26230771567120
  C   0.77667715512799      0.15463154689953     -0.05297190776384
  Cl  -1.25204392639881     -1.31438100239793     -1.08830278751951
  H   1.03332279787901      1.06729232554873      0.50186051217730
  H   -0.98506488885418      0.99453304341944     -0.94974119780253
  N   -1.38289883731794      0.24419406311025      1.03321611883648
  H   -2.34552077767794     -0.06289251453884      0.97850159484032
  H   -1.37172119159589      1.19988952025065      1.37182199310848
  C   1.49321532650904      0.19245407634749     -1.33092763925364
  N   2.04720306117746      0.25300808666866     -2.36376731846090
  C   1.19026961335953     -0.99408147651794      0.75686462910752
  N   1.54893867571122     -1.90473561161945      1.40375371840151
