12
Coordinates from ORCA-job run
  C   -0.72329757845660     -0.00802326404033     -0.37897596203840
  C   0.73887168404285      0.28084706709410      0.02014345275891
  Cl  -0.85012542980576     -1.66291389250865     -1.00164386543617
  H   0.76195335211494      1.29486431801838      0.44222688134042
  H   -0.97632517274545      0.65129415231087     -1.21836457116639
  N   -1.54647515556841      0.13069489372394      0.79691410932581
  H   -2.44404018439745     -0.31543062167776      0.65651365981317
  H   -1.70615344189064      1.11259144934781      0.99405919994025
  C   1.62538231638169      0.26468898390534     -1.14690545351452
  N   2.31157697078775      0.27763013408823     -2.09899548813728
  C   1.20322070839123     -0.64715055313768      1.05457457016440
  N   1.60341193114585     -1.37809266712425      1.88045346694981
