12
Coordinates from ORCA-job run
  C   -0.71507154501226     -0.22610111702470     -0.32399386950020
  C   0.68667588056975     -0.29643607994040      0.32098677936177
  Cl  -1.43451840418204     -1.84831810432854     -0.24271654728370
  H   0.54685754066509     -0.67916582015392      1.33813718023863
  H   -0.60574922183517      0.00391806145515     -1.39058170861787
  N   -1.51953201946885      0.69086376331389      0.44441487669559
  H   -2.49690561590432      0.58277553603509      0.20316807229308
  H   -1.24551099234845      1.64630986405528      0.24033099784518
  C   1.25333350046819      1.05403292895920      0.39628818093871
  N   1.64566912982283      2.15940796670434      0.44846355969024
  C   1.58478474172415     -1.18576069986802     -0.41980271807291
  N   2.29996700550105     -1.90052629920740     -1.01569480358854
