12
Coordinates from ORCA-job run
  C   -0.73803706167324      0.22880955052085     -0.26444310247852
  C   0.70258262415350     -0.32837935092145     -0.25093314944615
  Cl  -1.47393186120532     -0.20053903261843     -1.82325119548648
  H   0.62503849412317     -1.40604891389617     -0.43315823014246
  H   -0.69719665653694      1.32433143084319     -0.24006141109828
  N   -1.47592889516331     -0.40338816021166      0.80066222516267
  H   -2.46831004846384     -0.24371628742777      0.67840543199987
  H   -1.19886222704102     -0.00999534814301      1.69408367134117
  C   1.29303677600773     -0.11218189497955      1.07384902709329
  N   1.70040058481322      0.06455402903140      2.16074751805457
  C   1.53539361228608      0.28810441219037     -1.28670125393878
  N   2.19581465869996      0.79944956561221     -2.11119953106088
