12
Coordinates from ORCA-job run
  C   -0.80630105485716      0.12785331585552     -0.40707760442220
  C   0.70589687317517      0.25730662099856     -0.04648211835361
  Cl  -1.02417237962018     -1.38490503220944     -1.31886842714707
  H   0.82354645588833      1.21934584224693      0.46950155121139
  H   -1.05155355940537      0.95039412363660     -1.08257129924040
  N   -1.69410085274162      0.15248967854849      0.70812011009196
  H   -1.48021109247847     -0.56735063700647      1.38735571272926
  H   -1.72537104254371      1.06280887403038      1.14778341626774
  C   1.56456318371915      0.27616813293707     -1.23195093883505
  N   2.23344683438312      0.33134165830438     -2.19506659054825
  C   1.09631392629479     -0.79958582428266      0.88894876088213
  N   1.35894270818595     -1.62586675305941      1.68030742736412
