12
Coordinates from ORCA-job run
  C   -0.75225139090185     -0.12776190349549     -0.26774510275177
  C   0.68790725311787     -0.23884118913183      0.27521179568467
  Cl  -1.61723864792324     -1.64699785276612      0.25138546991907
  H   0.62858789701491     -0.32060613264510      1.36809037764915
  H   -0.73598880878710     -0.16271043081418     -1.35699010995435
  N   -1.34097875931347      1.07700354903549      0.17249822991925
  H   -1.50331819508020      1.08095420361663      1.17190949080020
  H   -2.20951154022010      1.27140029238820     -0.30677853182920
  C   1.45584603814114      0.96309104557539     -0.06929438476681
  N   2.08796989041713      1.91251936174689     -0.34587417200530
  C   1.37168911808678     -1.43113498859353     -0.23486048293486
  N   1.92728714544811     -2.37491595491634     -0.65655257973007
