12
Coordinates from ORCA-job run
  C   -0.78993687379720     -0.14857501577604     -0.41955739574332
  C   0.73811341520272     -0.36133548694222     -0.38076888177610
  Cl  -1.57273540325736     -1.74337383069453     -0.44822518088634
  H   1.02464968948831     -0.95897488819782     -1.25361083951538
  H   -1.03227477464438      0.32015738242236     -1.38176475179830
  N   -1.20347543116074      0.56927249674709      0.75493862407996
  H   -0.88766509704617      1.53228185569271      0.70534281089691
  H   -2.21231403784523      0.56506320951773      0.83756250738692
  C   1.15291306880545     -1.07319169237169      0.83124836018982
  N   1.51608771359338     -1.66486352680039      1.77699822088975
  C   1.39980266104259      0.94513181024615     -0.46766068439369
  N   1.86583506961863      2.01940768615667     -0.55450278933023
