12
Coordinates from ORCA-job run
  C   -0.80895516871895     -0.13839037949835     -0.38632879349053
  C   0.71762528119602     -0.36066542249395     -0.41737987488399
  Cl  -1.60270551992172     -1.72844091460385     -0.40737802279975
  H   0.96313548715785     -0.94648863537389     -1.31049250927527
  H   -1.09020932491633      0.34695326611642     -1.32951906034973
  N   -1.16676336169402      0.56137701197387      0.81659454950672
  H   -0.83640616209623      1.51989021455889      0.77533746981381
  H   -2.17180029004130      0.57189703038517      0.93650084844649
  C   1.18076524553482     -1.09214205383710      0.76534807394873
  N   1.58407850898251     -1.69494612130315      1.68750986716288
  C   1.38329955382165      0.94342757126086     -0.51418490599329
  N   1.84893575069569      2.01652843281508     -0.61600764208607
