12
Coordinates from ORCA-job run
  C   -0.71682063786236      0.13349592470484     -0.42063605549422
  C   0.75672761274214      0.31606457429322     -0.00681114341176
  Cl  -0.90296159049874     -1.52357980701268     -1.14379913853083
  H   0.84431818545512      1.34634037688604      0.35907958644029
  H   -0.93230971067903      0.82744084275738     -1.23370996189321
  N   -1.55253804676491      0.41006671738398      0.68815019270501
  H   -1.46057063073271     -0.29371823363209      1.41222865722775
  H   -2.52382703817112      0.46699116526279      0.41148764103862
  C   1.67565910146310      0.14316106077659     -1.13362374487739
  N   2.40697929595453      0.04639322907162     -2.04629569424960
  C   1.09222785415154     -0.58467051350580      1.09995804302454
  N   1.31111560494244     -1.28898533698590      2.01297161802080
