12
Coordinates from ORCA-job run
  C   -0.74491576152393     -0.21378041615682     -0.45119475142317
  C   0.60350593581821     -0.31230333367148      0.33000546060633
  Cl  -1.49503262603112     -1.82942318406982     -0.36140614279844
  H   0.37351714098178     -0.65870163071440      1.34501975864659
  H   -0.52144048869835     -0.01829124794901     -1.50162060056670
  N   -1.65228280042163      0.77426807100564      0.02590252152465
  H   -1.84067508906854      0.68543327215364      1.01604866230533
  H   -1.33785314705190      1.71052858775229     -0.19334547133193
  C   1.20497933224624      1.02184963277675      0.41066880161637
  N   1.61501957061217      2.12045894617633      0.47201424872638
  C   1.53252998866862     -1.26004525714251     -0.28882342618456
  N   2.26364794446849     -2.02099344016061     -0.80326906112088
