12
Coordinates from ORCA-job run
  C   -0.78356472691098      0.28392372097837     -0.33092510215593
  C   0.65229091778341     -0.31740037293767     -0.21012212294556
  Cl  -1.43320087515231     -0.28020275694170     -1.89333649682379
  H   0.56409434666235     -1.40622232097346     -0.30919908382746
  H   -0.69844939403660      1.37062296342568     -0.38904958147322
  N   -1.67617927442236     -0.05995947363640      0.72351466839098
  H   -1.73873968251802     -1.05879973816458      0.87219140040532
  H   -1.44055105529070      0.41415416572094      1.58557454589836
  C   1.18991749960015     -0.00104719252194      1.11605117181601
  N   1.56273228685718      0.28458334153381      2.19227579743034
  C   1.54854835525074      0.17645276238295     -1.25764396388441
  N   2.25310160217716      0.59289490113399     -2.09933123283058
