12
Coordinates from ORCA-job run
  C   -0.71947018233814      0.16532066833530     -0.40470658580170
  C   0.77231419193148      0.27288876635635     -0.03167786746834
  Cl  -1.01599244275474     -1.49116784105505     -1.09075317218961
  H   0.92690133446165      1.30391928129482      0.30900535871074
  H   -0.91736000056591      0.85595648279583     -1.22506526843744
  N   -1.50908874687769      0.50816706190255      0.71926131646647
  H   -2.48269908734439      0.61430914706438      0.46637807445558
  H   -1.43678228460674     -0.18597127729271      1.45472881125965
  C   1.65081348364914      0.02689961142854     -1.17720716335742
  N   2.35362301270628     -0.11852860725760     -2.10582638085894
  C   1.08610790572084     -0.62385848599276      1.08449784944682
  N   1.29163281601818     -1.32593480757966      2.00236502777417
