12
Coordinates from ORCA-job run
  C   -0.76650075284107     -0.00195833000920     -0.49227495912555
  C   0.68872823001045      0.31073689972553     -0.02262439558597
  Cl  -0.78706629047701     -1.65275457539065     -1.15580642697792
  H   0.68457626244487      1.34984229383822      0.33204360509434
  H   -0.99611066043286      0.67970188970756     -1.31426136916506
  N   -1.76374247749295      0.12514540716403      0.51859551490732
  H   -1.57395390471765     -0.45963567709454      1.32314301173176
  H   -1.89954666326819      1.08757222637668      0.79838228232998
  C   1.66186470324319      0.20999039707766     -1.11140697726891
  N   2.41826684944217      0.14228848302235     -2.00665159135076
  C   1.05084002497399     -0.54755342383185      1.10699177163413
  N   1.28464467911507     -1.24237559058582      2.02386953377663
