12
Coordinates from ORCA-job run
  C   -0.80404019443900     -0.15816866898176     -0.38671300352342
  C   0.72572739439049     -0.36351944145934     -0.40420203753842
  Cl  -1.57952024387487     -1.75652458027112     -0.36947315376399
  H   0.98270607267391     -0.96920079795094     -1.28063318218126
  H   -1.08481425463935      0.30005809402688     -1.34354337206800
  N   -1.17572382118991      0.56991070602900      0.79524083114760
  H   -0.86734915482706      1.53394934741002      0.72372051271823
  H   -2.18049937489671      0.56188374267403      0.91732125609026
  C   1.18893977566428     -1.05725323154793      0.80076691619210
  N   1.58935999557372     -1.62797567259348      1.74424817825922
  C   1.37591299770887      0.94555173307491     -0.53248565181217
  N   1.83030080785569      2.02028876958972     -0.66324729352020
