12
Coordinates from ORCA-job run
  C   -0.76543913650796     -0.11140116717129     -0.23641395926713
  C   0.69363341789522     -0.25327133915132      0.24570744758266
  Cl  -1.64331566611971     -1.60607400045280      0.32981340731168
  H   0.67866043521519     -0.32424241469328      1.34092852867754
  H   -0.79655426799720     -0.15312972956126     -1.32510405987675
  N   -1.30615484950116      1.10979886674958      0.22001890065745
  H   -2.18948684853461      1.32205872269369     -0.22334333095191
  H   -1.42565231730722      1.12346998104461      1.22537404118176
  C   1.47438358195137      0.92712755525366     -0.14109408180970
  N   2.11285637402317      1.86326769971179     -0.44696300972843
  C   1.32618170250547     -1.46683038361839     -0.27982552682489
  N   1.84188757437746     -2.42977379080499     -0.70909835695225
