12
Coordinates from ORCA-job run
  C   -0.74569007990936      0.03017970044780     -0.32825465577974
  C   0.75602690806852      0.23659768874948     -0.03792629689376
  Cl  -1.01537136020093     -1.62795950917400     -0.89296483896383
  H   0.86811745895342      1.25591385900369      0.35580167188949
  H   -1.01568762218342      0.68433327288706     -1.16627638084427
  N   -1.47510709479794      0.25179317444857      0.89655899316824
  H   -2.39157417228783     -0.17438969111973      0.84721271562957
  H   -1.59420904140726      1.24636485773667      1.05409143672766
  C   1.55679267705965      0.13990959545826     -1.26176613764777
  N   2.17774618098572      0.08407486757578     -2.25616565260178
  C   1.23412405286300     -0.69579132598455      0.98611243525464
  N   1.64383209285640     -1.43202649002907      1.80257671006155
