12
Coordinates from ORCA-job run
  C   -0.81259988392596      0.18740238030956     -0.36849472123620
  C   0.72119868150480      0.20122532771381     -0.08441947323352
  Cl  -1.19463810216840     -1.31326241497218     -1.24473034843771
  H   0.93935776653016      1.15740311949201      0.40934771040548
  H   -1.02603913187594      1.01929311465724     -1.04335487977141
  N   -1.63876366552704      0.29541983869399      0.78878252535341
  H   -1.57267844210419      1.20962999793540      1.21655679910257
  H   -1.44853701709703     -0.43222504507902      1.46684711975747
  C   1.51851242610116      0.13771493542427     -1.31055905860132
  N   2.13812241485938      0.12543243969608     -2.30754088290217
  C   1.07385391553095     -0.87209802890197      0.84721559335628
  N   1.30321103817213     -1.71593566496917      1.63034961620715
