12
Coordinates from ORCA-job run
  C   -0.85249564074489     -0.08706419766763     -0.48306996512915
  C   0.68366768230107     -0.36788599376285     -0.43833210616361
  Cl  -1.65123728740567     -1.67669247345499     -0.63389920273628
  H   0.96193194046704     -0.98582099257961     -1.29900915280310
  H   -1.05438903660205      0.46182538665813     -1.40500576412970
  N   -1.38928383235362      0.63423736011914      0.61684263629439
  H   -1.11730230462919      1.60823274562931      0.60041867713753
  H   -1.16751753829229      0.21051288370737      1.50895270527412
  C   1.03492714975588     -1.07505554888420      0.79460584212417
  N   1.27451998672406     -1.61401850555098      1.80958254633018
  C   1.39113564132975      0.91379523308540     -0.50853129070523
  N   1.88704323944994      1.97693410270093     -0.56055492549335
