12
Coordinates from ORCA-job run
  C   -0.71387341591293      0.32937729211948     -0.18746061153527
  C   0.69718291202329     -0.29475230057649     -0.18187006832305
  Cl  -1.40471839535528      0.02728987543976     -1.84781478834275
  H   0.59042843882295     -1.36736017171664     -0.38879928171683
  H   -0.63471568052854      1.41292972958068     -0.10021236939119
  N   -1.47454211089582     -0.19104058935008      0.88155441080169
  H   -1.68920071822586     -1.17257857401773      0.75622532863176
  H   -2.33391965403395      0.32297475859842      1.01994406954509
  C   1.32330981972105     -0.12597806062900      1.13435898705287
  N   1.84111425047457      0.01563269251337      2.17809186452128
  C   1.55376747430236      0.28548766028321     -1.22066957202127
  N   2.24516707960817      0.75901768775502     -2.04234796922237
