12
Coordinates from ORCA-job run
  C   -0.74794075718027      0.21127782970674     -0.24987368476117
  C   0.70644845722483     -0.30882248291391     -0.26474463330426
  Cl  -1.49703369426532     -0.21919748204701     -1.80212128276291
  H   0.65411619978354     -1.38573364080024     -0.45984129972223
  H   -0.73456934866833      1.30712666307130     -0.21339793074065
  N   -1.45262280920205     -0.45155584023603      0.81922316827891
  H   -2.45067089554658     -0.31787544429319      0.71286242361562
  H   -1.17334190543420     -0.05900910139565      1.71235239782010
  C   1.31141152127090     -0.09243010239496      1.05330270614143
  N   1.73705035274585      0.09525616264636      2.13126957326956
  C   1.50743848376973      0.34150224818705     -1.30513146149716
  N   2.14071439550188      0.87646119046953     -2.13589997633724
