12
Coordinates from ORCA-job run
  C   -0.71573889546957      0.28776772454066     -0.26641365337919
  C   0.70341779560677     -0.32236488255962     -0.25742305788707
  Cl  -1.37943168345740      0.10093207132919     -1.90344230863591
  H   0.60094152357358     -1.36111612464948     -0.59052534967213
  H   -0.64088425877823      1.36755115101581     -0.09076038627235
  N   -1.52988621609423     -0.45236069137834      0.66548485125606
  H   -1.29392871170350     -0.18751057590476      1.61623927372313
  H   -2.50908093372288     -0.24460413803318      0.51291064217511
  C   1.22636650599193     -0.30839421150087      1.11252135364109
  N   1.59320866404267     -0.26080187142584      2.22679809800413
  C   1.61210886732730      0.39552821049115     -1.15472073826208
  N   2.33190734268356      0.98437333807527     -1.87066872469077
