12
Coordinates from ORCA-job run
  C   -0.75329855964927      0.09531085249764     -0.29889137542914
  C   0.77093643051555      0.16772165864057     -0.06849733489473
  Cl  -1.19061871095164     -1.53222769258049     -0.84802979421087
  H   0.98875269787268      1.17299224617939      0.31703597966212
  H   -0.99770512723931      0.77109392442794     -1.12757875878128
  N   -1.41124870343090      0.37847888893039      0.95318963277305
  H   -2.36609057790026      0.04372449707060      0.93720623123232
  H   -1.42679173220786      1.37884129233055      1.11829350566275
  C   1.51039706557806      0.00071883650203     -1.32289152291028
  N   2.08125753024297     -0.10744428319484     -2.34264471139090
  C   1.20506653125983     -0.80324027552337      0.93918447397005
  N   1.58934315591017     -1.56696994528041      1.74262367431689
