12
Coordinates from ORCA-job run
  C   -0.78368178308678     -0.00271960023417     -0.45034685090642
  C   0.71824704224707     -0.35018448351474     -0.42001694937746
  Cl  -1.67298420427837     -1.59629824970476     -0.59362222294017
  H   0.93639360534106     -1.03967692153293     -1.24214088612940
  H   -1.00135156766068      0.52382252123943     -1.37952106007219
  N   -1.13470857586031      0.79475175237541      0.65447975585517
  H   -1.05156560054860      0.30056983739318      1.53479450672439
  H   -2.06337748060761      1.18378713552733      0.56872292848756
  C   1.06346626186716     -1.01121148492133      0.84264441735309
  N   1.33569780951487     -1.51704295828306      1.86619845024797
  C   1.51455265652420      0.86852113979878     -0.59746150011075
  N   2.13731183654798      1.84568131185686     -0.78373058913179
