12
Coordinates from ORCA-job run
  C   -0.72030440733272      0.30870497537533     -0.30810347322496
  C   0.79520445702028      0.19610192922223     -0.04968212014713
  Cl  -1.24995068860930     -1.16156545698151     -1.23646554561434
  H   1.08872524357435      1.12959833223341      0.44574839167501
  H   -0.89086553691984      1.14962887694528     -0.98105320284543
  N   -1.39001032984883      0.52582709197438      0.91994129609424
  H   -1.34898495525804     -0.29071825817943      1.51956478158974
  H   -2.35975092078323      0.77241703503991      0.77185754416272
  C   1.56284732396881      0.06687564806968     -1.28979276923456
  N   2.17932200080479      0.00418181274664     -2.28640301905328
  C   1.07603467219032     -0.91101480983100      0.86905740971327
  N   1.25773314119340     -1.79003717661490      1.62533070688471
