12
Coordinates from ORCA-job run
  C   -0.74712606900850      0.18145662279569     -0.27469497632127
  C   0.70514412667647     -0.34216466491183     -0.22325621013963
  Cl  -1.49538054626217     -0.43121214657746     -1.76478227503931
  H   0.64828859306843     -1.43443960942755     -0.28786256669499
  H   -0.72961665563800      1.27360317252126     -0.37113427540074
  N   -1.45610060536276     -0.34411178685575      0.86552282793798
  H   -1.17783638172295      0.15383263346593      1.70480098310990
  H   -2.45354917516151     -0.22201631187169      0.74116843654378
  C   1.30844644241765      0.02984481630235      1.06055499683308
  N   1.73956917098558      0.35853752086171      2.10198981374530
  C   1.51133630766539      0.17550875505407     -1.33163492038327
  N   2.14782479234236      0.60216099864328     -2.22067183419084
