12
Coordinates from ORCA-job run
  C   -0.75871250166500     -0.00863515537511     -0.50887712945466
  C   0.69460414952477      0.28908751972206     -0.02616341817558
  Cl  -0.81212472861791     -1.69081036255945     -1.08547224972299
  H   0.71383144607415      1.34523465093704      0.27345054648163
  H   -0.95384484616938      0.63435979615757     -1.37001185532087
  N   -1.77168674720108      0.19786638033661      0.47336269674043
  H   -1.88082891232498      1.17653824295110      0.70455365784385
  H   -1.61535719867215     -0.35245772831569      1.30888400578206
  C   1.68730349886066      0.10525490099310     -1.08631335933017
  N   2.46932861098125     -0.01689893042486     -1.95316692240760
  C   1.01174951387483     -0.51747573196050      1.15414962252722
  N   1.21473771533485     -1.16106358246182      2.11460440503665
