12
Coordinates from ORCA-job run
  C   -0.82154909677134     -0.20273901948846     -0.29696004865660
  C   0.61989599714014     -0.31868873419401      0.29162789993122
  Cl  -1.66902955341051     -1.70629389979755      0.15421887271421
  H   0.52389691523229     -0.48964878805336      1.37075014555687
  H   -0.74908149953255     -0.18639764203387     -1.38599263511220
  N   -1.56590939250926      0.92946562766900      0.13932573539745
  H   -1.22437344799460      1.78689665109914     -0.27475037013945
  H   -1.60172422972147      1.00977837672115      1.14722067445103
  C   1.32693831991483      0.94595081161169      0.07000314032470
  N   1.83759827601740      1.98396014170887     -0.13164783567232
  C   1.36813853563764     -1.43244698327281     -0.29523089597859
  N   1.95619917599741     -2.32083654196980     -0.78856468281628
