12
Coordinates from ORCA-job run
  C   -0.80289093243917      0.16779832560705     -0.39797320020946
  C   0.72075205199319      0.20951526067155     -0.06541492917623
  Cl  -1.13672421067707     -1.35885898948108     -1.24940240052534
  H   0.90990183730432      1.18080145269404      0.41050291530094
  H   -1.00505392109332      0.98000409072717     -1.09973228679023
  N   -1.66697276986278      0.29220819805584      0.72900278610607
  H   -1.63156330579344      1.21823898394312      1.13408675124374
  H   -1.48917819867952     -0.41484144454458      1.43163334080540
  C   1.55891530653308      0.12569387916874     -1.26251044267153
  N   2.21133429044487      0.10067689275686     -2.23809893310555
  C   1.05614603206703     -0.83560456303571      0.90403814136402
  N   1.27433382020281     -1.66663208656295      1.70386825765817
