12
Coordinates from ORCA-job run
  C   -0.80791875811192      0.11431617013524     -0.40800511684193
  C   0.71994577098609      0.19792412142101     -0.10408291290645
  Cl  -1.15293943606362     -1.51199497946362     -1.04196308904812
  H   0.91540093253179      1.22311162869598      0.23698355307732
  H   -1.01945415157714      0.82527806103164     -1.20977364830604
  N   -1.65753448868771      0.38984386317360      0.70355661232909
  H   -1.47280835123276     -0.22098091835191      1.48979434165736
  H   -1.60937158824889      1.36017906825569      0.98513750796265
  C   1.54031217456785     -0.04555109839490     -1.29180956768754
  N   2.17889040559907     -0.21695162979841     -2.26174419813065
  C   1.06958416003040     -0.70889053042896      0.99121864627076
  N   1.29589333020685     -1.40528375627535      1.90868787162354
