12
Coordinates from ORCA-job run
  C   -0.76658954567421     -0.00636494651795     -0.47358709670447
  C   0.73767857131877     -0.33809273867498     -0.40048054808580
  Cl  -1.63492183805752     -1.60716232766566     -0.65726442530129
  H   0.98801931112113     -1.01807385752111     -1.22134867205079
  H   -0.96065439116639      0.52545209390237     -1.40500709463231
  N   -1.15951652518009      0.77848652563554      0.62610278691953
  H   -1.09875718940143      0.27772874351127      1.50450440986390
  H   -2.08876680058632      1.15948925066320      0.51452546200746
  C   1.05008284986486     -1.00629030706988      0.86669462004504
  N   1.26440784219413     -1.53062076857177      1.89460394010242
  C   1.52481280999506      0.89106307561254     -0.54533907929516
  N   2.14420490557201      1.87538525669642     -0.70340430286853
