12
Coordinates from ORCA-job run
  C   -0.74233063870925      0.00960983944523     -0.33621299987297
  C   0.76404784373748      0.20472379674472     -0.06187669360826
  Cl  -1.06377460446581     -1.69946138510608     -0.67756461132978
  H   0.90745554156555      1.26346156542461      0.19328775685181
  H   -0.98619190545698      0.55459169313996     -1.25634057720109
  N   -1.47017295080050      0.41585733602685      0.84127240065683
  H   -1.55710071465081      1.42585160223069      0.86400268616153
  H   -2.39993404733869      0.01647551492719      0.84062937037800
  C   1.56651469695000     -0.08003525658712     -1.25482428613032
  N   2.18719629708872     -0.28802106849196     -2.22893129603743
  C   1.20589659918180     -0.59692317842963      1.08195916877443
  N   1.58839388289850     -1.22713045932446      1.99459908135727
