12
Coordinates from ORCA-job run
  C   -0.79109000462509      0.03769399078484     -0.45133411942123
  C   0.71415897217115      0.22280859452255     -0.08580012637158
  Cl  -1.02800901277803     -1.65141274698884     -0.95894703774590
  H   0.84436212950181      1.28136108993445      0.17526089184030
  H   -0.99452116763325      0.66767737692488     -1.32009812694366
  N   -1.70688164852973      0.36264805384746      0.59177818557084
  H   -1.53118358128901     -0.16514978957730      1.43787014292354
  H   -1.72430685119117      1.35525336691386      0.78520155896069
  C   1.60395636396317     -0.07410853931038     -1.20970173680892
  N   2.29837696453609     -0.27483232074491     -2.13459781205992
  C   1.05025465732871     -0.57265558902845      1.09678616544821
  N   1.26388317854535     -1.18928348727815      2.07258201460763
