14

C	-0.333079	-0.148497	-1.454688
C	0.0	0.0	0.0
Cl	-2.065783	-0.350008	-1.807297
H	1.088994	0.0	0.0
H	0.020451	0.724813	-1.992323
N	0.388442	-1.327865	-2.054656
O	0.818108	-1.163873	-3.193241
O	0.472301	-2.351092	-1.387633
C	-0.538018	-1.000433	0.88589
N	-0.953709	-1.826716	1.612054
N	-0.305421	1.340784	0.467171
O	-0.22174	2.260709	-0.362745
O	-0.43308	1.506159	1.687918
H	2.357403	0.0	0.0
