14

C	-0.459483	-0.117286	-1.427463
C	0.0	0.0	0.0
Cl	0.541513	0.751904	-2.577695
H	1.092146	0.0	0.0
H	-0.431604	-1.170536	-1.713545
N	-1.938516	0.267549	-1.596765
O	-2.668972	-0.121125	-0.69291
O	-2.296663	0.839722	-2.614391
C	-0.381613	-1.134271	0.808021
N	-0.598313	-2.118488	1.414605
N	-0.381913	1.248654	0.623514
O	-0.246568	1.325078	1.850128
O	-0.68442	2.191724	-0.123477
H	2.360395	0.0	0.0
