14

C	-0.447142	0.223178	-1.410993
C	0.0	0.0	0.0
Cl	-2.218233	0.316814	-1.599331
H	1.099283	0.0	0.0
H	-0.031031	1.155542	-1.784069
N	0.052	-0.860408	-2.337649
O	0.537209	-1.871969	-1.844673
O	-0.058817	-0.618039	-3.536264
C	-0.514833	-1.190991	0.629899
N	-0.899792	-2.180694	1.13551
N	-0.274604	1.178239	0.80558
O	-0.341683	1.030536	2.032421
O	-0.230048	2.276446	0.227662
H	2.356677	0.0	0.0
