16
Coordinates from ORCA-job run
  C   0.72873336638437      0.06752025790836     -0.57630400711341
  C   -0.81905872385990      0.08641908263853     -0.48192503872582
  Br  1.22310566765557     -0.57186089521522     -2.36949992799485
  H   -1.18788035598893      0.66393381946281     -1.33670906455874
  C   1.39355289226758     -0.82964003229245      0.46234125290431
  H   1.02958179531272     -1.85291073533835      0.35694959269225
  H   1.17133317349462     -0.46546914877964      1.46807459999893
  H   2.47493668116568     -0.82344111385291      0.32382569224483
  C   1.22143668948121      1.43805502817086     -0.46463538680332
  N   1.59941223056821      2.54349284122193     -0.33163290647861
  C   -1.32903792499477      0.72798612407287      0.81534628536096
  H   -0.93692452963076      1.74103386743523      0.92056773207437
  H   -2.41858664539723      0.78295549067848      0.78489994023347
  H   -1.04726299146834      0.14018826104816      1.68959402266395
  C   -1.33701364191878     -1.27758717404056     -0.60599762907174
  N   -1.76632768307123     -2.36967567311810     -0.65389515742657
