16
Coordinates from ORCA-job run
  C   0.72899183851518      0.15068055625026     -0.32475817279017
  C   -0.78252625966604     -0.17016140263804     -0.19661846562670
  Br  0.99644240515417      1.16182586267589     -1.99280503280750
  H   -1.05865379770767     -0.71572362138101     -1.10711402712957
  C   1.58783398315889     -1.10891968329738     -0.39535957402035
  H   1.25283874017001     -1.73541356685242     -1.22472251381793
  H   1.50094039160123     -1.66873610713506      0.53855264953509
  H   2.63362602552095     -0.84453206498309     -0.55358445458928
  C   1.15494328542703      1.00640268776827      0.77922364114482
  N   1.48995446313861      1.66840958315773      1.69150321705554
  C   -1.68213045824240      1.05757415151644     -0.03449937312997
  H   -1.58735687542598      1.71556436241176     -0.89785744884278
  H   -1.41825502069038      1.61174087725435      0.86809956899704
  H   -2.72285882455199      0.74021827411425      0.04902371543910
  C   -0.96847611263697     -1.07657056133721      0.94172511828332
  N   -1.12431378376465     -1.79335934752472      1.85919115229934
