17

C	-0.398515	0.044425	-1.469892
C	0.0	0.0	0.0
Br	-0.136557	-1.907702	-2.188344
H	1.095487	0.0	0.0
H	-0.359036	-0.919741	0.464198
C	-1.864667	0.312279	-1.749513
H	-2.079379	0.226711	-2.817096
H	-2.106953	1.326493	-1.421753
H	-2.493361	-0.402644	-1.216806
N	0.437932	0.948401	-2.145176
H	1.417588	0.802797	-1.905472
H	0.308681	0.931077	-3.14804
C	-0.482058	1.229771	0.770125
H	0.002088	1.247142	1.749518
H	-1.565438	1.232827	0.926097
H	-0.198997	2.143629	0.24453
Br	3.689896	0.0	0.0
