17

C	-0.365206	0.01044	-1.466957
C	0.0	0.0	0.0
Br	-2.456919	0.619678	-1.544415
H	1.097027	0.0	0.0
H	-0.325435	0.946068	0.438061
C	0.350234	1.098152	-2.232474
H	0.047839	1.110773	-3.282973
H	1.423399	0.89557	-2.145981
H	0.137552	2.073944	-1.797533
N	-0.236851	-1.226883	-2.078696
H	-0.45504	-1.217116	-3.064293
H	-0.718013	-1.9746	-1.602168
C	-0.530407	-1.177427	0.80199
H	-1.616857	-1.271424	0.71117
H	-0.285661	-1.04122	1.857348
H	-0.0542	-2.110444	0.490223
Br	3.684752	0.0	0.0
