17

C	-0.262296	0.002762	-1.499781
C	0.0	0.0	0.0
Br	-2.229134	-0.267226	-1.828848
H	1.098905	0.0	0.0
H	-0.333499	-0.960033	0.409871
C	0.142742	1.305834	-2.159864
H	-0.453984	2.144371	-1.801698
H	0.029375	1.217434	-3.241094
H	1.195749	1.486904	-1.9156
N	0.412116	-1.086897	-2.175823
H	1.413148	-0.91107	-2.054951
H	0.219639	-1.946555	-1.668652
C	-0.553318	1.159851	0.809263
H	-0.096274	2.104633	0.507892
H	-0.319473	1.014989	1.867148
H	-1.638942	1.244639	0.704886
Br	3.636817	0.0	0.0
