10
Coordinates from ORCA-job run
  C   0.98752546172550      0.23676661058457      0.07046743315548
  C   -0.19926633530860     -0.38532186155466     -0.04236646874155
  H   1.04687415140518      1.31823204899096      0.16047288992942
  H   -0.21251993574894     -1.47033854777057     -0.12982651674194
  C   2.22597912114810     -0.47859497553122      0.08141257794681
  N   3.25036396607818     -1.05577415877350      0.09188113521954
  C   -1.51302054190486      0.32647755581150     -0.05517974826166
  H   -2.05596213170249      0.11781001437945     -0.98144810372796
  H   -2.14502730629342     -0.01674108728009      0.76898982106257
  H   -1.38394644939865      1.40648440114357      0.03459698015929
