10
Coordinates from ORCA-job run
  C   1.00203188796303      0.16582684153515     -0.08158569083851
  C   -0.22300669054880     -0.36144874978871      0.09016908010382
  H   1.13137393328613      1.21804452856979     -0.32072225442093
  H   -0.30498308075815     -1.42066856389652      0.32866923124639
  C   2.19237912844177     -0.61799936575002      0.03989772084616
  N   3.17649307991912     -1.25403303892615      0.13753842091374
  C   -1.49037323958877      0.42120666600781     -0.02681999064107
  H   -2.05637763154344      0.37970141552403      0.90815253866308
  H   -2.13199173484261      0.00064402564279     -0.80640405608789
  H   -1.29454565232828      1.46772624108185     -0.26689499978478
