10
Coordinates from ORCA-job run
  C   0.97015995724801      0.05917502678966      0.30198514126126
  C   -0.19623381332030     -0.26833339143741     -0.28169577477271
  H   1.02989817801459      0.87626619986123      1.01617287875094
  H   -0.20956020910467     -1.09460890943348     -0.99056676775015
  C   2.18542464277554     -0.64296384450185      0.02505962674472
  N   3.18993868451798     -1.21366456137631     -0.19330196058145
  C   -1.48624982390114      0.43740227453416     -0.01647933975886
  H   -1.89131441606996      0.86011263267737     -0.94043822566249
  H   -1.35936057068511      1.24473703510933      0.70694158410564
  H   -2.23470262947496     -0.26012246222271      0.37032283766310
