10
Coordinates from ORCA-job run
  C   1.08359859048192     -0.16842481607474     -0.58135337583598
  C   -0.25250501099683     -0.26147202811206     -0.71736552480181
  H   1.74730432923470     -0.43326965361359     -1.39812224018320
  H   -0.62984078621545     -0.61144775667932     -1.67621334862325
  C   1.70226217929036      0.27872060718608      0.62932710807283
  N   2.21302931806146      0.64513994125745      1.62327082683470
  C   -1.26099019450244      0.07444494619921      0.33229545029813
  H   -0.78867321433126      0.41433199348989      1.25485968769007
  H   -1.93420377064575      0.85936766506371     -0.02400040607326
  H   -1.87998144037671     -0.79839089871664      0.55930182262177
