10
Coordinates from ORCA-job run
  C   1.13337146877778      0.14071721896118     -0.48644116042012
  C   -0.09097987780875      0.69332192490558     -0.39747633556460
  H   1.92073666140359      0.61849813815248     -1.06049861459112
  H   -0.25030020629252      1.63234445992958     -0.92388792194966
  C   1.46764372417272     -1.09177656935290      0.15981752171447
  N   1.74497516547305     -2.10399578460629      0.69045397881645
  C   -1.24882225626709      0.12953770220717      0.35963425366362
  H   -0.99298183500086     -0.80925285456379      0.85253713473403
  H   -1.58988398896693      0.83948119164007      1.11869272604963
  H   -2.09275885549098     -0.04887542727308     -0.31283158245270
