10
Coordinates from ORCA-job run
  C   1.07060571487314     -0.48198275321905     -0.40293199863282
  C   -0.26942835390026     -0.58546851929063     -0.48003381187033
  H   1.71464021177449     -1.15461331501865     -0.96030627915403
  H   -0.66956428369232     -1.36814280595099     -1.12161979108241
  C   1.71872374149852      0.50496112206646      0.40594148284431
  N   2.25332608231371      1.31503775458086      1.07000941156558
  C   -1.25389881200130      0.27946927030112      0.23709807712182
  H   -1.89802058999333     -0.32841549757648      0.87892725400053
  H   -0.76048311804727      1.03239787704638      0.85294548775116
  H   -1.90590059282540      0.78775686706099     -0.47902983254381
