17
Coordinates from ORCA-job run
  C   0.75250470737162     -0.34480742553980      0.34169300216617
  C   -0.61549126860265      0.35351826352738      0.20964309045166
  Cl  0.52017185484757     -2.13635352135903      0.33481172549058
  H   -0.38710029783515      1.42249715223310      0.31197621966159
  C   1.72677256090198      0.00972437609218     -0.77540741109823
  H   2.70243071720600     -0.43508119039000     -0.57765517799062
  H   1.84012862263057      1.09593412763530     -0.83143552289989
  H   1.36239146293212     -0.36635423329570     -1.73091071754292
  C   1.33878137559119      0.01366381465832      1.63532951673943
  N   1.87324798950192      0.35193069286166      2.62497010665061
  N   -1.42828464751799     -0.01040627759113      1.36018331437129
  H   -2.19551357798887      0.64178841898355      1.46318503702431
  H   -1.82030096586599     -0.93619229534459      1.23213249403396
  C   -1.27920451715941      0.12552661631063     -1.14726166270954
  H   -1.44416306847602     -0.93959725652879     -1.32526515807542
  H   -2.25193135095672      0.62309281154170     -1.15026809679513
  H   -0.69743959658019      0.53311592620522     -1.97672075947783
