17
Coordinates from ORCA-job run
  C   0.73325525991184     -0.01125829008300      0.44934291074746
  C   -0.79202176156059     -0.11474492037014      0.15093626646957
  Cl  0.96523050601443      0.37431967648147      2.19420357524941
  H   -1.16528550917492     -0.88304508530420      0.83903689754280
  C   1.47540082923707     -1.31404982645223      0.16900511221729
  H   0.99856810064588     -2.12757975043093      0.72073493443341
  H   1.46575362011590     -1.53902563064098     -0.89840446586061
  H   2.51388168006224     -1.23464115727438      0.49154573002726
  C   1.30832284097726      1.07505985039351     -0.34383290742069
  N   1.73060670654882      1.92057118241656     -1.04251725168080
  N   -1.08390721472341     -0.54978557171783     -1.20142283480483
  H   -0.75577696441893      0.12247186369158     -1.88518760519671
  H   -0.69578309937946     -1.45854806499625     -1.41242969326422
  C   -1.52943754396984      1.19183053252426      0.40469333847081
  H   -1.39215522803134      1.55187891808120      1.42339699541150
  H   -2.59218638850313      1.02812783559761      0.22397268262412
  H   -1.18346583375183      1.96741843808375     -0.28507368496577
