17
Coordinates from ORCA-job run
  C   0.71101254102670     -0.38251290156332      0.20787073664940
  C   -0.70734767482022      0.26218324626813      0.22284577541632
  Cl  0.62016266736985     -2.04503892608854     -0.48436943960859
  H   -0.55206686623332      1.24211511194524      0.69374823202042
  C   1.73944557744798      0.41595052541573     -0.58318614850874
  H   2.73269302069279     -0.01890578447651     -0.46566413824394
  H   1.48352553359432      0.41173995791824     -1.64211737720991
  H   1.76066885302585      1.44733854681518     -0.22041629369633
  C   1.15190890948199     -0.52008781247718      1.59777336339773
  N   1.49974029820941     -0.56868366755144      2.71925756774493
  N   -1.68494925498944     -0.44193643297020      1.02711222001945
  H   -1.83158199939226     -1.37695739996709      0.66536734167463
  H   -1.38316125705135     -0.51766924991074      1.99143966517689
  C   -1.26670265834856      0.48157280084377     -1.17555808970431
  H   -2.25271009287553      0.93593851670401     -1.07562622612500
  H   -1.38018801420995     -0.46669145973322     -1.70571809261396
  H   -0.64044958292827      1.14264492882792     -1.77575909638900
