17
Coordinates from ORCA-job run
  C   0.82820140750692     -0.00962564777648      0.39282653724560
  C   -0.69162978755882     -0.17833943735322      0.15820374886063
  Cl  1.12501167002482      0.38724190334200      2.12448738710343
  H   -0.98551999311863     -1.03542951526943      0.77516507564005
  C   1.60674727283260     -1.27601931940606      0.05940965217127
  H   2.66950187247309     -1.12899429594233      0.25562790609186
  H   1.44793657784987     -1.52936248991533     -0.98726205568216
  H   1.24275677152345     -2.09212315845372      0.68743656448556
  C   1.30628711551251      1.11277907938127     -0.41709937477285
  N   1.64429762323699      1.99475997305088     -1.11620528561173
  N   -0.85977832399667     -0.55985688238182     -1.24329907256034
  H   -1.73423872676718     -1.05604770349104     -1.36197630438119
  H   -0.90207069695384      0.27248718149161     -1.82236967192940
  C   -1.51170543349392      1.04435756030574      0.55887522782344
  H   -2.56457091884043      0.85248383521901      0.33833149566258
  H   -1.42258104906030      1.28276129412536      1.61863137650237
  H   -1.19964538117046      1.91892762307356     -0.01978320664915
