17
Coordinates from ORCA-job run
  C   0.75029589383506     -0.34820204343912      0.12068088258887
  C   -0.72027210654856      0.14477920569406      0.27702175447483
  Cl  0.79075305681964     -1.84182039141293     -0.88798746429884
  H   -0.64060584266611      1.02113275955577      0.93407988425059
  C   1.67930956783496      0.68443233222511     -0.50520553304450
  H   1.39584349320478      0.86441459672785     -1.54155018736308
  H   1.61585473414655      1.62142707350161      0.05505875090164
  H   2.71104202012534      0.33143721109081     -0.48509867838554
  C   1.23722422868309     -0.71514911810001      1.45227646194365
  N   1.59076872442092     -0.95716093221326      2.54666972291708
  N   -1.60842214527544     -0.79379035588385      0.93114692468101
  H   -1.67775432280220     -1.64853377909467      0.39130196321305
  H   -1.27637253122096     -1.02965476231667      1.85905230632949
  C   -1.33380699482000      0.58571001323046     -1.04425029187372
  H   -0.78765493046211      1.41139649156009     -1.50185810052849
  H   -2.35484743515959      0.91330796177943     -0.84719429634569
  H   -1.37235541011537     -0.24272626290467     -1.75514409946036
