17
Coordinates from ORCA-job run
  C   0.72725612621970     -0.20724897549390      0.57069095261615
  C   -0.81749496421731     -0.03205345145064      0.42901015263054
  Cl  1.02479326364685     -1.56266653932835      1.72693499174953
  H   -1.18455048077690      0.13846435274863      1.44717222210625
  C   1.43741012514193     -0.53415612232493     -0.73505098845031
  H   1.01743546085686     -1.44349111595298     -1.16671636613509
  H   1.32857057502815      0.29084163214578     -1.44195720461825
  H   2.50009069961829     -0.69895697276206     -0.55487567193807
  C   1.30050651246537      0.99573092839819      1.17249101277469
  N   1.73469469060629      1.98924541837771      1.62630947399402
  N   -1.51649901492865     -1.18703510206823     -0.09061928111546
  H   -1.30483018564255     -2.02263285640504      0.43937356104345
  H   -1.29338488497486     -1.34739951857567     -1.06475966493120
  C   -1.16053227854506      1.18143839813180     -0.42585346466517
  H   -2.24143886610737      1.32397384944975     -0.40027791817975
  H   -0.87107903667020      1.02603954226137     -1.46901970554757
  H   -0.67894774172055      2.09090653284855     -0.06385210133376
