17
Coordinates from ORCA-job run
  C   0.74270676626105     -0.01640657615198      0.42921819912481
  C   -0.78907924418452     -0.12243593169906      0.17063575166198
  Cl  1.02006838355745      0.33095065059786      2.17593860221361
  H   -1.14085893722541     -0.90661667989878      0.85207959867424
  C   1.48497156628287     -1.30732724621949      0.09908695630663
  H   2.53111113408593     -1.22873091343562      0.39597719828785
  H   1.02747772835737     -2.13646573814060      0.64397330557335
  H   1.44881447582153     -1.50763480247704     -0.97266041388417
  C   1.29173535207768      1.09038328363131     -0.35393120005848
  N   1.71749297317543      1.94135711222667     -1.04382831040542
  N   -1.11541358766442     -0.53094542813968     -1.18236166789658
  H   -0.81066510669483      0.15798103044472     -1.86031482237412
  H   -0.72736404544022     -1.43223595824029     -1.42340108820943
  C   -1.52521179749536      1.17491559937228      0.47093651636415
  H   -2.59182489572965      1.01020171997920      0.31577757039379
  H   -1.36172918141540      1.51486093940257      1.49268917135431
  H   -1.20123158376947      1.96614893874795     -0.21181536712654
