17
Coordinates from ORCA-job run
  C   0.71270149594314     -0.18866273807356      0.59328732782628
  C   -0.82864739944468     -0.02241606789388      0.41254376496427
  Cl  0.98785999362217     -1.51007339248539      1.79369408791482
  H   -1.21887259252396      0.17723580032025      1.41671241228442
  C   1.45276388113209     -0.54964326679413     -0.68670876130957
  H   1.04115505440112     -1.46918725588458     -1.10442245110728
  H   2.51055440753581     -0.71102421347552     -0.47753918538148
  H   1.36233309133711      0.25684240763892     -1.41704159172352
  C   1.27155976616279      1.03197091443611      1.17219681616336
  N   1.71945314286492      2.03093858828223      1.59992331217409
  N   -1.51412469469335     -1.19348055768736     -0.08889070886380
  H   -1.31013309160422     -2.01394540085388      0.46712031521082
  H   -1.27232063528811     -1.37889702767987     -1.05406357627285
  C   -1.15428051529108      1.16517489660678     -0.48462093564429
  H   -2.23575142589701      1.30597857155141     -0.48817374027881
  H   -0.84018865164651      0.98141568704379     -1.51594401922502
  H   -0.68306182661021      2.08577305494870     -0.13707306673145
