15
Coordinates from ORCA-job run
  C   -0.67944186100662     -0.38924663768444      0.23367919454400
  C   0.85185868132859     -0.35230709445199      0.09480844913452
  Cl  -1.17076042301446     -1.54475463962982      1.42869751721552
  H   1.14022671158019     -1.40381644471936      0.00775166939738
  N   -1.27325277388408     -0.77666085119120     -1.12565313803188
  O   -2.02454555670412      0.02229399953260     -1.66452663842326
  O   -0.89086375179051     -1.85757658809060     -1.54749824625892
  N   -1.24189577685964      0.99022249672587      0.56244209613550
  O   -0.53108160994659      1.93273747820477      0.22862652834176
  O   -2.34637261711424      1.03980210741243      1.07471203226006
  N   1.42511580067372      0.19589333406830      1.30110015177297
  H   1.48824849807200      1.20378262656688      1.24193921392507
  H   2.34543210817593     -0.18769569286392      1.46523752183156
  C   1.25935989476392      0.30884972114426     -1.15828428220632
  N   1.64897267572590      0.81947618497624     -2.14203206963796
