15
Coordinates from ORCA-job run
  C   -0.59575202119684     -0.04697775656498      0.36003026542524
  C   0.78233952515819      0.18724180342900     -0.25985155625218
  Cl  -0.52301703459756     -0.37752889026995      2.05608140487172
  H   0.60226692544946      0.47945354719230     -1.29678283858501
  N   -1.23286106986209     -1.20765017671874     -0.42412745700507
  O   -1.39040785305741     -0.93978961377573     -1.60834802542089
  O   -1.50178479986838     -2.23823826454306      0.15847790390695
  N   -1.54289522154179      1.12387739515131      0.10251946800617
  O   -2.68277004432112      0.97616301015541      0.51605316028876
  O   -1.08561830220136      2.07835064672318     -0.51345485369563
  N   1.48278100920720     -1.08115921214133     -0.24858323715220
  H   2.23564930833535     -1.07144281885680     -0.92415929802812
  H   1.87254803850321     -1.27550893479178      0.66581138265305
  C   1.47361070070051      1.28856868467260      0.42835531597356
  N   2.10691083929262      2.10464058033857      0.98797836501365
