15

C	-0.123027	0.055401	-1.520935
C	0.0	0.0	0.0
Cl	-1.775601	0.634645	-2.098117
H	1.098992	0.0	0.0
H	-0.085944	-0.961893	-1.926289
N	0.902721	0.936082	-1.99552
H	1.081968	0.770136	-2.977572
H	1.750157	0.718598	-1.433766
C	-0.581276	-1.205165	0.550113
N	-1.066247	-2.173505	1.009322
C	-0.465448	1.265336	0.710092
H	-0.025816	2.121858	0.198144
H	-0.104803	1.2573	1.741431
H	-1.55355	1.36797	0.709381
F	2.645189	0.0	0.0
