15

C	-0.124801	0.080558	-1.519979
C	0.0	0.0	0.0
Cl	-1.777733	0.678294	-2.084057
H	1.098978	0.0	0.0
H	-0.096457	-0.930109	-1.942723
N	0.903441	0.962989	-1.981582
H	1.750712	0.737882	-1.422788
H	1.081631	0.812768	-2.966127
C	-0.581029	-1.213438	0.531398
N	-1.064313	-2.189247	0.976484
C	-0.464579	1.253908	0.730678
H	-0.094928	1.233782	1.758659
H	-1.55342	1.3511	0.740609
H	-0.033724	2.119831	0.226133
F	2.644336	0.0	0.0
