15

C	-0.181677	-0.079249	-1.542662
C	0.0	0.0	0.0
Cl	-0.29017	1.611105	-2.23504
H	1.095234	0.0	0.0
H	-1.127504	-0.542088	-1.839561
N	0.92863	-0.762487	-2.143813
H	0.757789	-1.759718	-2.09262
H	1.759957	-0.54695	-1.563819
C	-0.457853	-1.281353	0.511879
N	-0.840413	-2.326687	0.895276
C	-0.612721	1.164088	0.762585
H	-0.478012	1.007852	1.836207
H	-0.098572	2.08459	0.488894
H	-1.682115	1.283655	0.558663
F	2.641341	0.0	0.0
