15

C	-0.186333	-0.190071	-1.536134
C	0.0	0.0	0.0
Cl	-0.548164	1.444387	-2.330565
H	1.096948	0.0	0.0
H	-1.078501	-0.768724	-1.787436
N	0.979287	-0.770412	-2.102226
H	1.793136	-0.57981	-1.488992
H	0.854095	-1.75941	-2.261947
C	-0.45599	-1.240997	0.604283
N	-0.845758	-2.24837	1.071707
C	-0.602294	1.216196	0.685223
H	-0.081715	2.112441	0.350953
H	-1.669993	1.331157	0.474008
H	-0.467101	1.127921	1.766457
F	2.654587	0.0	0.0
