16
Coordinates from ORCA-job run
  C   0.79659258892383     -0.03360126543251     -0.51125755576189
  C   -0.66902350847411     -0.09794869869601     -0.04442050013678
  Br  1.28688895475507     -1.82562399776266     -1.32674167065295
  H   -1.25798162940365     -0.29757638273810     -0.95751023082507
  C   1.70644609273217      0.14275025539531      0.61943593625168
  N   2.45387069842374      0.26831889789596      1.51689731499515
  N   0.96114948057811      1.02527601587097     -1.44524688226432
  H   1.93347736798131      1.17201708803574     -1.68633425542290
  H   0.43540270856496      0.83329002275568     -2.29054235612228
  N   -0.93248140783953      1.19357977989439      0.57071053892063
  H   -0.82735374308990      1.94089128899738     -0.10266968401144
  H   -1.86837949708488      1.21438686746307      0.95535512906732
  C   -0.94309252313073     -1.18746716795421      0.97787686260644
  H   -1.99094860209375     -1.13451908336544      1.28586307776909
  H   -0.76157129145950     -2.18241698178400      0.57532913685998
  H   -0.32299568938316     -1.03235663857558      1.86325513872732
