16
Coordinates from ORCA-job run
  C   0.71905563466695      0.27240301471891     -0.55396546587646
  C   -0.37219508032982     -0.42224551783274      0.27967960968739
  Br  -0.09767667930713      1.51587066293010     -1.84565915320475
  H   0.19038505081684     -1.10539253589173      0.93324447448223
  C   1.43472434286885     -0.73078574787041     -1.35940259996356
  N   2.11780062714620     -1.50295117133939     -1.92511328338205
  N   1.58862239604643      1.05248749495476      0.29711548156054
  H   2.30226488473065      1.51246455272671     -0.25743113434100
  H   2.05257982079195      0.42705232549347      0.95044019967053
  N   -1.16451779040870     -1.25701367410344     -0.60843775623529
  H   -1.86628334326566     -0.69524629093592     -1.07691760208847
  H   -1.64240885197539     -1.97532886038143     -0.07961422925852
  C   -1.16018281894000      0.55006648199506      1.15078233819427
  H   -0.50520762154610      1.16951516190900      1.76395571207612
  H   -1.77074216295869      1.20797934736015      0.52873362610633
  H   -1.82821840833637     -0.01787524373311      1.80358978257269
