18

C	-0.365537	-0.019288	-1.476481
C	0.0	0.0	0.0
Cl	-2.153129	-0.085417	-1.764727
H	1.095586	0.0	0.0
N	0.098317	1.300835	-2.100179
O	-0.516142	2.318732	-1.793826
O	1.072586	1.25685	-2.844265
C	0.313124	-1.167972	-2.179793
H	0.164639	-1.110828	-3.258298
H	-0.103056	-2.103575	-1.80527
H	1.379757	-1.116939	-1.934172
C	-0.436311	-1.250495	0.595458
N	-0.768706	-2.25491	1.11035
C	-0.465341	1.187593	0.836749
H	0.08379	2.082542	0.544772
H	-1.537406	1.374025	0.741934
H	-0.226335	0.979081	1.882272
H	2.659205	0.0	0.0
