18

C	-0.541821	-0.052302	-1.421637
C	0.0	0.0	0.0
Cl	0.20468	1.246242	-2.400746
H	1.09323	0.0	0.0
N	-0.110637	-1.364973	-2.097755
O	0.657356	-2.099982	-1.492394
O	-0.577812	-1.577043	-3.21592
C	-2.047677	0.042068	-1.55454
H	-2.334973	-0.003015	-2.604016
H	-2.513268	-0.785135	-1.01215
H	-2.388785	0.985495	-1.128567
C	-0.525889	-1.123837	0.75661
N	-0.997776	-2.005051	1.377751
C	-0.355371	1.300984	0.730413
H	0.012075	2.154777	0.159684
H	0.183538	1.293869	1.680761
H	-1.424774	1.416776	0.929385
H	2.680397	0.0	0.0
