18

C	-0.342243	0.020887	-1.479649
C	0.0	0.0	0.0
Cl	-0.094561	-1.601507	-2.18991
H	1.097177	0.0	0.0
N	-1.832998	0.313937	-1.721625
O	-2.129986	0.977057	-2.71286
O	-2.635052	-0.1419	-0.912531
C	0.515627	1.015564	-2.223798
H	0.395004	0.902933	-3.29965
H	1.550333	0.825836	-1.910095
H	0.239704	2.034569	-1.948788
C	-0.492629	-1.160806	0.719812
N	-0.840074	-2.067967	1.382289
C	-0.389142	1.287625	0.730231
H	0.010072	1.229834	1.745321
H	0.083573	2.148416	0.254007
H	-1.470674	1.435765	0.783585
H	2.696838	0.0	0.0
