18

C	-0.377967	-0.216767	-1.458173
C	0.0	0.0	0.0
Cl	-2.153724	-0.45394	-1.70567
H	1.10657	0.0	0.0
N	-0.012846	1.060701	-2.218985
O	1.05781	1.055226	-2.818712
O	-0.778121	2.017924	-2.138326
C	0.385629	-1.380846	-2.039907
H	0.232937	-1.449427	-3.11841
H	1.445249	-1.230895	-1.803487
H	0.035937	-2.299396	-1.566459
C	-0.421859	-1.160356	0.762243
N	-0.737308	-2.091701	1.408679
C	-0.471978	1.292898	0.655194
H	0.05234	2.141756	0.214427
H	-1.549505	1.445637	0.558654
H	-0.20421	1.256563	1.713699
H	2.653243	0.0	0.0
