18

C	-0.345183	-0.016767	-1.47977
C	0.0	0.0	0.0
Cl	-0.110542	-1.658461	-2.149222
H	1.09608	0.0	0.0
N	-1.835401	0.281374	-1.719393
O	-2.132132	0.968185	-2.695624
O	-2.637578	-0.189535	-0.919271
C	0.517652	0.952468	-2.252309
H	0.2517	1.980193	-2.000813
H	0.391391	0.815299	-3.324814
H	1.552267	0.761321	-1.938883
C	-0.492565	-1.141381	0.750478
N	-0.838102	-2.033542	1.43413
C	-0.391283	1.306074	0.695554
H	-1.473176	1.454398	0.743519
H	0.006202	1.276156	1.712604
H	0.080739	2.154555	0.197243
H	2.698406	0.0	0.0
