18

C	-0.365042	0.201477	-1.466034
C	0.0	0.0	0.0
Cl	0.014536	-1.269752	-2.392031
H	1.096072	0.0	0.0
N	-1.879775	0.420587	-1.569743
O	-2.258856	1.592711	-1.622854
O	-2.619816	-0.553786	-1.485471
C	0.39237	1.361223	-2.070063
H	0.097371	2.300889	-1.609128
H	0.20346	1.420868	-3.143272
H	1.452226	1.171829	-1.869065
C	-0.508193	-1.246559	0.545455
N	-0.89172	-2.228616	1.067179
C	-0.402257	1.169422	0.901087
H	0.094528	2.083156	0.571926
H	-0.040174	0.952752	1.908761
H	-1.482555	1.335226	0.94156
H	2.671741	0.0	0.0
