18

C	-0.372384	0.004948	-1.475583
C	0.0	0.0	0.0
Cl	-2.155207	-0.144777	-1.75726
H	1.097358	0.0	0.0
N	0.023983	1.366138	-2.055988
O	1.046785	1.404882	-2.731566
O	-0.680958	2.332	-1.778467
C	0.362867	-1.085682	-2.213391
H	-0.008381	-2.051968	-1.870233
H	1.425058	-0.993337	-1.959816
H	0.213189	-1.001571	-3.29056
C	-0.422617	-1.264879	0.574972
N	-0.738166	-2.282663	1.073559
C	-0.4717	1.172857	0.852057
H	0.06049	2.078608	0.559368
H	-0.214257	0.962171	1.892837
H	-1.547528	1.344866	0.773046
H	2.661623	0.0	0.0
