16

C	0.0	0.0	0.0
C	-0.436918	-0.14536	-1.45638
Cl	1.81617	0.0	0.0
H	-0.115147	0.764501	-1.990555
H	-1.531231	-0.150134	-1.421252
N	-0.473496	1.222432	0.596874
H	-1.484537	1.10509	0.702191
H	-0.330996	1.987531	-0.056088
C	-0.447262	-1.178158	0.84096
H	-1.540158	-1.207766	0.830164
H	-0.093554	-1.0441	1.865096
H	-0.055203	-2.103979	0.424103
N	0.029965	-1.382521	-2.075755
H	-0.558164	-1.597315	-2.870308
H	0.979439	-1.263946	-2.405353
Br	-3.935323	0.0	0.0
