16

C	0.0	0.0	0.0
C	-0.302153	0.490546	-1.444912
Cl	1.800745	0.0	0.0
H	0.242153	1.434581	-1.572441
H	0.15498	-0.224943	-2.138301
N	-0.483265	0.867761	1.04259
H	-0.318811	1.836505	0.787436
H	-1.490834	0.727731	1.11544
C	-0.508772	-1.403157	0.254914
H	-0.191973	-1.735579	1.245126
H	-1.602947	-1.394653	0.219281
H	-0.12482	-2.093892	-0.49795
N	-1.673989	0.704407	-1.82823
H	-2.249583	-0.117183	-1.691368
H	-2.117525	1.402985	-1.245563
Br	-4.349399	0.0	0.0
