17

C	-0.397638	0.072745	-1.478282
C	0.0	0.0	0.0
Br	-0.235171	1.89356	-2.155404
H	1.097592	0.0	0.0
C	0.449081	-0.861985	-2.308262
H	1.496614	-0.604084	-2.139431
H	0.194649	-0.786236	-3.36327
H	0.27566	-1.880066	-1.957348
N	-1.875054	-0.277103	-1.626584
O	-2.235551	-0.795421	-2.678152
O	-2.61437	0.000274	-0.685557
N	-0.402642	-1.311222	0.505284
H	0.325068	-1.654313	1.120495
H	-1.276721	-1.249832	1.010214
C	-0.479557	1.11101	0.8268
N	-0.853343	1.937702	1.573681
Cl	3.285701	0.0	0.0
