17

C	-0.326703	0.122576	-1.501741
C	0.0	0.0	0.0
Br	-0.00398	1.942972	-2.120358
H	1.106169	0.0	0.0
C	0.50575	-0.839261	-2.320358
H	0.234641	-1.864865	-2.0582
H	0.332044	-0.694028	-3.384253
H	1.555276	-0.670272	-2.067821
N	-1.80785	-0.131671	-1.773952
O	-2.58595	-0.025012	-0.828
O	-2.129839	-0.434772	-2.919351
N	-0.371457	-1.269859	0.593536
H	0.331238	-1.968362	0.39894
H	-1.297887	-1.579435	0.340758
C	-0.519209	1.106849	0.807238
N	-0.924436	1.966142	1.498252
Cl	3.290132	0.0	0.0
