16

C	0.0	0.0	0.0
C	-0.576245	-0.044902	-1.405071
Br	1.931745	0.0	0.0
H	-0.344908	-0.986608	-1.889502
H	-1.66572	0.095196	-1.297187
C	-0.506942	1.124783	0.866868
H	-0.085572	1.045159	1.867051
H	-1.597727	1.048949	0.905157
H	-0.220131	2.072651	0.415445
N	-0.359976	-1.354121	0.65597
O	-0.391964	-2.340996	-0.069524
O	-0.518618	-1.353895	1.867026
N	-0.025428	1.017876	-2.283612
O	-0.142694	2.19074	-1.937601
O	0.501888	0.648891	-3.33413
Cl	-3.67459	0.0	0.0
