16

C	0.0	0.0	0.0
C	-0.563504	-0.080059	-1.411113
Br	1.943664	0.0	0.0
H	-1.658987	-0.003736	-1.31894
H	-0.256989	-0.995783	-1.904608
C	-0.5073	1.164852	0.814285
H	-0.129573	1.097888	1.832627
H	-0.176426	2.095585	0.357023
H	-1.600673	1.117747	0.808977
N	-0.381033	-1.317689	0.699113
O	-0.468998	-1.288545	1.918595
O	-0.508542	-2.311682	-0.005642
N	-0.069517	1.036073	-2.260333
O	0.699485	0.74349	-3.179215
O	-0.465241	2.17523	-2.01118
Cl	-3.658823	0.0	0.0
