16

C	0.0	0.0	0.0
C	-0.566038	-0.225581	-1.39446
Br	1.943741	0.0	0.0
H	-1.653817	-0.083	-1.303287
H	-0.314941	-1.214967	-1.761033
C	-0.494306	1.250302	0.683282
H	-0.200511	2.116398	0.093999
H	-1.584877	1.190124	0.722823
H	-0.077944	1.32141	1.685492
N	-0.392121	-1.228736	0.834867
O	-0.520961	-1.05654	2.038198
O	-0.484774	-2.303358	0.253147
N	-0.021247	0.74229	-2.380815
O	-0.320395	1.92982	-2.260395
O	0.689695	0.285447	-3.280357
Cl	-3.653354	0.0	0.0
