16

C	0.0	0.0	0.0
C	-0.652881	-0.0043	-1.358984
Br	1.930168	0.0	0.0
H	-0.626234	0.993667	-1.790845
H	-1.709257	-0.287468	-1.2032
C	-0.535326	1.164206	0.8117
H	-0.287469	2.105304	0.318322
H	-0.099777	1.149682	1.810191
H	-1.626131	1.054251	0.863964
N	-0.379041	-1.277982	0.788143
O	-1.131981	-2.077505	0.254032
O	0.086072	-1.364567	1.92011
N	-0.049462	-0.90258	-2.377356
O	0.466195	-1.954838	-2.014492
O	-0.141305	-0.525114	-3.545913
Cl	-3.766097	0.0	0.0
