16

C	0.0	0.0	0.0
C	-0.599964	0.075844	-1.385257
Br	1.929834	0.0	0.0
H	-1.678905	-0.136431	-1.293594
H	-0.470869	1.081356	-1.784248
C	-0.526681	1.146222	0.840177
H	-0.143077	1.062664	1.856025
H	-0.20288	2.094604	0.406812
H	-1.621749	1.085941	0.836103
N	-0.418175	-1.303339	0.701955
O	-0.031369	-1.437231	1.858672
O	-1.117001	-2.086597	0.077513
N	-0.023855	-0.830313	-2.42108
O	0.545938	-1.861287	-2.077164
O	-0.197014	-0.470316	-3.585602
Cl	-3.754681	0.0	0.0
