15

C	-0.495399	0.001074	-1.421912
C	0.0	0.0	0.0
F	-1.871498	-0.012202	-1.478734
H	1.089653	0.0	0.0
H	-0.113963	0.830998	-2.006949
N	-0.028045	-1.255165	-2.105553
O	-0.70065	-2.273527	-1.9444
O	0.999492	-1.165405	-2.768076
N	-0.430758	-1.084426	0.797875
H	-1.220711	-1.583749	0.425374
H	0.349115	-1.703848	0.970152
N	-0.387523	1.328808	0.575964
O	-0.202933	2.307837	-0.159696
O	-0.764661	1.399393	1.741851
H	2.576983	0.0	0.0
