15

C	-0.631797	-0.041283	-1.372317
C	0.0	0.0	0.0
F	-0.176547	-1.145605	-2.039155
H	1.096084	0.0	0.0
H	-1.722225	-0.075762	-1.33478
N	-0.304212	1.117842	-2.280746
O	0.879765	1.362529	-2.472316
O	-1.257517	1.673136	-2.826659
N	-0.30833	-1.233416	0.688655
H	-0.813468	-1.000586	1.535507
H	0.591463	-1.614891	0.98128
N	-0.420393	1.162775	0.724418
O	-0.673061	2.199346	0.073218
O	-0.388939	1.122466	1.97116
H	2.407663	0.0	0.0
