15

C	-0.545516	0.02877	-1.403565
C	0.0	0.0	0.0
F	-1.879833	0.350151	-1.438028
H	1.093567	0.0	0.0
H	0.003954	0.708333	-2.051222
N	-0.405573	-1.349074	-1.994877
O	-1.398787	-2.062952	-2.032895
O	0.717658	-1.640283	-2.387887
N	-0.413047	-1.132917	0.748325
H	-1.297841	-0.980365	1.213664
H	0.302757	-1.318957	1.442023
N	-0.326557	1.305314	0.611382
O	-0.148664	2.311147	-0.087875
O	-0.631352	1.332355	1.81066
H	2.534023	0.0	0.0
