15

C	-0.619868	-0.045331	-1.372282
C	0.0	0.0	0.0
F	-0.22443	-1.184742	-2.019162
H	1.088253	0.0	0.0
H	-1.71034	-0.004533	-1.360059
N	-0.203066	1.07815	-2.295757
O	-0.988845	1.310219	-3.215306
O	0.882149	1.615079	-2.130726
N	-0.273575	-1.232102	0.7098
H	-0.839559	-1.023301	1.523315
H	0.628116	-1.557447	1.058917
N	-0.474329	1.158168	0.704806
O	-0.304871	1.193155	1.937216
O	-0.964251	2.101279	0.043055
H	2.42082	0.0	0.0
