17

C	0.0	0.0	0.0
C	-0.278831	-0.066714	-1.577163
F	1.335811	0.0	0.0
H	0.57156	0.503531	-1.954924
N	-0.35863	1.359232	0.565654
O	-0.631868	2.243396	-0.236834
O	-0.155115	1.524181	1.762236
N	-0.420396	-1.145108	0.905885
O	-0.038581	-2.231276	0.475177
O	-0.968257	-0.946828	1.971319
N	-1.473322	0.324622	-2.202992
H	-2.199042	0.114291	-1.469917
H	-1.439806	1.332246	-2.277632
N	0.053704	-1.490266	-2.025781
O	-0.875645	-2.26917	-2.171908
O	1.238342	-1.735489	-2.260027
F	-2.417244	0.0	0.0
