17

C	0.0	0.0	0.0
C	-0.282698	0.046925	-1.555105
F	1.326949	0.0	0.0
H	0.611431	0.548437	-1.935484
N	-0.43871	1.277255	0.694773
O	-0.82606	1.252869	1.846212
O	-0.210224	2.278467	0.018764
N	-0.401652	-1.249421	0.759709
O	-0.944441	-2.162555	0.159894
O	-0.011914	-1.275159	1.924579
N	-1.449387	0.594796	-2.048048
H	-1.57269	0.35169	-3.015978
H	-2.212245	0.313319	-1.368716
N	0.019618	-1.42439	-2.114905
O	-0.802582	-1.903359	-2.882652
O	1.109403	-1.926732	-1.844083
F	-2.474797	0.0	0.0
