17

C	0.0	0.0	0.0
C	-0.426885	0.029313	-1.48204
F	1.354774	0.0	0.0
H	-1.450031	-0.334429	-1.513172
N	-0.32657	1.228052	0.85882
O	0.220898	1.222106	1.957449
O	-0.969901	2.150237	0.392124
N	-0.478206	-1.277179	0.6641
O	-0.59847	-1.297086	1.878271
O	-0.569019	-2.241845	-0.08371
N	0.513544	-0.703225	-2.278147
H	1.366352	-0.17471	-2.40727
H	0.096331	-0.921854	-3.171652
N	-0.464892	1.457626	-2.000152
O	0.583191	2.102018	-1.908641
O	-1.466856	1.824543	-2.601493
F	-2.340853	0.0	0.0
