17

C	0.0	0.0	0.0
C	-0.379544	0.088492	-1.51271
F	1.32802	0.0	0.0
H	0.533393	0.48904	-1.96625
N	-0.348809	1.269257	0.759162
O	-0.811471	1.231194	1.877289
O	0.035199	2.276737	0.162902
N	-0.294898	-1.252773	0.854978
O	-0.993479	-2.165014	0.461247
O	0.333203	-1.236784	1.914453
N	-1.453204	0.816632	-2.056892
H	-2.31736	0.416743	-1.696547
H	-1.3134	0.717071	-3.055346
N	-0.313349	-1.374264	-2.065189
O	0.65355	-2.049431	-1.745002
O	-1.175591	-1.722831	-2.863045
F	-2.222851	0.0	0.0
