17

C	0.0	0.0	0.0
C	-0.208473	0.152164	-1.549298
F	1.346084	0.0	0.0
H	0.222466	-0.770004	-1.934773
N	-0.36007	1.179656	0.859101
O	-0.689372	2.216456	0.296286
O	-0.125138	1.069937	2.056621
N	-0.391317	-1.355801	0.548914
O	-0.236715	-2.265941	-0.26276
O	-0.681	-1.493461	1.72279
N	0.485783	1.275315	-2.135914
H	0.03732	2.120459	-1.807625
H	1.44781	1.268539	-1.826433
N	-1.590098	0.178269	-2.144513
O	-2.101228	1.270943	-2.344014
O	-2.017685	-0.897072	-2.548562
F	-2.152121	0.0	0.0
