17

C	0.0	0.0	0.0
C	-0.552706	0.283182	-1.398564
F	1.32277	0.0	0.0
H	-1.634565	0.456055	-1.203544
N	-0.361147	1.14902	0.957635
O	0.167107	1.061359	2.063114
O	-1.010135	2.090354	0.539465
N	-0.465477	-1.311324	0.629283
O	-0.164455	-2.305834	-0.033208
O	-0.960395	-1.322608	1.737981
N	-0.214147	-0.743577	-2.366896
H	-0.229009	-1.641625	-1.902699
H	-0.947696	-0.741328	-3.062722
N	0.050384	1.552287	-1.967132
O	-0.456143	1.885586	-3.037779
O	0.956197	2.161517	-1.403978
F	-2.565332	0.0	0.0
