14
Coordinates from ORCA-job run
  C   0.81846588937692      0.52973139657175     -0.12016315421565
  C   -0.47666863092217     -0.09823293767112      0.40108771807590
  H   0.65111471361680      0.82524196101366     -1.16234060666629
  H   -0.54470027975976     -0.02278132811362      1.49017846573531
  H   0.99300863874649      1.44761506558363      0.45430134334027
  N   1.90354864461693     -0.44237483361703     -0.10173380641018
  H   2.76880967869521      0.01585138986867     -0.35936482213828
  H   2.01849664088935     -0.82369561309177      0.82912379883325
  N   -0.64614645119829     -1.43164121935636     -0.02168879149952
  H   -0.37556036197647     -1.56253626436345     -0.98576830690324
  H   -1.58928257815534     -1.76317064369767      0.12440750296225
  N   -1.58300471736679      0.86702990144289     -0.06758887653671
  O   -2.33231613075606      0.49597279024062     -0.96586639033183
  O   -1.60776505580681      1.96299033518981      0.48641592575470
