14
Coordinates from ORCA-job run
  C   0.95618781183069     -0.28729929925200     -0.10702993849882
  C   -0.49278384990780     -0.20176450170920      0.31776690404280
  H   1.38191055617322     -1.15584084531395      0.40628027901763
  H   -0.54964287634262      0.04036499572769      1.38490493315424
  H   0.98970424477754     -0.48136318964952     -1.18551385518834
  N   1.66995145292491      0.90686896435356      0.32816616478616
  H   1.55518280835397      1.63313833215497     -0.36610983460951
  H   2.65794726386924      0.71198593583845      0.41433216712225
  N   -1.25380676670859     -1.34974814782174     -0.10878574339093
  H   -2.12937378814421     -1.40365978011171      0.39496463021953
  H   -0.72970910728383     -2.19958540426503      0.05065461194344
  N   -1.16768007212176      0.98130787380359     -0.34469684889316
  O   -0.61915733453119      1.53254904171581     -1.29569163617889
  O   -2.26973034288958      1.27404602452909      0.11075816647358
