14
Coordinates from ORCA-job run
  C   0.94025676727757      0.08613501719368      0.45525940580695
  C   -0.56124304929824     -0.18924724744827      0.50907511737172
  H   1.41446753182574     -0.69513489470078      1.05673608763151
  H   -0.88935638285883     -0.36578613063555      1.53532540488045
  H   1.14978537852018      1.05101093526445      0.93537129346692
  N   1.43649721596890     -0.03199155120776     -0.91029634278660
  H   2.44331937858792     -0.12024136715464     -0.91221276732658
  H   1.18109137764467      0.79654014957627     -1.43110368427848
  N   -0.98615612912687     -1.21725545352950     -0.37858695418433
  H   -0.23614523109324     -1.45158791637909     -1.01692309764682
  H   -1.36634218225900     -2.02061457841194      0.09318996721323
  N   -1.31436805831647      1.08255306921315      0.12750112701651
  O   -0.82198118809513      1.79605764489963     -0.74656019570114
  O   -2.38982542877719      1.27956232332034      0.68322463853666
