16
Coordinates from ORCA-job run
  C   0.91338851780986     -0.24075462812356      0.72174910533761
  C   -0.51926414098426      0.17017976386759      0.28698200697202
  H   0.83996046044684     -0.92450319448157      1.57705508986349
  H   -0.94942624743390      0.68866116852178      1.15254057631358
  C   1.69368452720111      0.92599800111645      1.14921482809055
  N   2.27201102358480      1.88264998698474      1.50812033397978
  C   1.60823318106051     -0.95090552052792     -0.35897633373135
  N   2.11699298594657     -1.53036221622167     -1.24420784629416
  C   -1.34643005730495     -1.07671034977041     -0.00939038332348
  H   -2.37607032538128     -0.79606675554879     -0.24180141334095
  H   -1.37025170303951     -1.75843370115251      0.84540621925046
  H   -0.94495397218896     -1.61791331171400     -0.87030646194604
  C   -0.48398940279380      1.12577897017246     -0.90008947486749
  H   -1.49862514433439      1.44238268395570     -1.15241974150161
  H   0.10234580349307      2.02153147941423     -0.68260174631336
  H   -0.05660550608170      0.63746762350748     -1.78027475848906
