16
Coordinates from ORCA-job run
  C   1.09257450484658     -0.18797540912526      0.07096148189642
  C   -0.41703911402599      0.13985905380729      0.21637778385521
  H   1.27831266524830     -0.50472275311637     -0.96444585083293
  H   -0.57546915989361      0.45816311529859      1.25343536169624
  C   1.49394456358121     -1.28783957555320      0.95593714894368
  N   1.77868899689800     -2.17792387258690      1.66664777858901
  C   1.92681613302380      0.98993320297900      0.33685346656892
  N   2.56279399582289      1.95499501860410      0.54319842496878
  C   -1.24910699745656     -1.10868561371979     -0.05874047636068
  H   -1.01557328535239     -1.91872605758511      0.63527830754431
  H   -2.31198806134416     -0.87748395419589      0.04118763926085
  H   -1.08067548382023     -1.46888504519505     -1.07875834952911
  C   -0.79196637413294      1.28199098915404     -0.72283969970884
  H   -1.85404380051201      1.51565364623163     -0.62062342407208
  H   -0.22669962053837      2.19143242991144     -0.50927299380983
  H   -0.61156896234452      1.00021482509148     -1.76519659900997
