16
Coordinates from ORCA-job run
  C   1.09024809870939     -0.20166469641067      0.06949366256457
  C   -0.41571547313244      0.14095538312576      0.21841301640481
  H   1.27238418897874     -0.50860815802059     -0.96950818532010
  H   -0.57215858863880      0.44426509015440      1.26023857048499
  C   1.47825480885313     -1.31637136686414      0.94186974161525
  N   1.75048932059394     -2.21804883911229      1.64276441826525
  C   1.93822551682893      0.96329282705519      0.34891905407565
  N   2.58562915048691      1.91806331774947      0.56726661076841
  C   -1.26056042590689     -1.09412682777999     -0.07792668939382
  H   -1.03640746143783     -1.91762388474789      0.60312278797838
  H   -2.32116881943195     -0.85366712215118      0.02402696798105
  H   -1.09418401503962     -1.43936896673654     -1.10343514726741
  C   -0.77701205557538      1.30194562412594     -0.70281003061060
  H   -0.59612946803143      1.03583279069475     -1.74921546322225
  H   -1.83715888432603      1.54389779090611     -0.59972378321695
  H   -0.20373589293067      2.20222703801169     -0.47249553110723
