16
Coordinates from ORCA-job run
  C   0.92385951440331     -0.28673597560615      0.68935475811994
  C   -0.50795187315828      0.17620724692785      0.30775140749216
  H   0.85552611010162     -0.98997502205847      1.52904689472408
  H   -0.89998703224898      0.67956429385350      1.19990570703643
  C   1.75300494755262      0.84466176148515      1.12051107817661
  N   2.37886546234823      1.77079079863539      1.47979095298894
  C   1.56672646760839     -0.98676009146727     -0.42974372091518
  N   2.03943636069280     -1.55221972768504     -1.34350940907738
  C   -1.37705828174933     -1.03845033751048     -0.00206950093404
  H   -1.01356445392865     -1.56469297070203     -0.88883804315650
  H   -1.39728072736882     -1.74447349072709      0.83282485130646
  H   -2.40422401181546     -0.72318437976274     -0.19856848108420
  C   -0.47827999244466      1.16602496607763     -0.85104693924475
  H   -0.08096113482427      0.69545435146446     -1.75472617621067
  H   -1.49112945278463      1.51137833016536     -1.07102198386800
  H   0.13201809761611      2.04241024690994     -0.62066139535390
