15
Coordinates from ORCA-job run
  C   -0.39108838916695     -0.69557624581613      0.50932054086335
  C   0.68112715993403      0.04231938569575     -0.27205236455766
  Br  -0.58658328863142     -0.03253533308796      2.32705524058767
  H   0.89133323301828     -0.49745115339863     -1.19771572901383
  H   -0.03064936854856     -1.71779585353218      0.62636876561009
  C   -1.72176426538862     -0.65651394595375     -0.22344249232793
  H   -2.44184748157997     -1.29820451687625      0.28404259365184
  H   -1.60055947322835     -1.00986153645207     -1.25193802673623
  H   -2.12699543194702      0.35629777529962     -0.24769712261893
  N   1.99844913719953      0.10837393987045      0.45871170250780
  O   2.61184235755286      1.16504701876354      0.45721384741058
  O   2.35924065859381     -0.96210641783682      0.93124385573114
  N   0.24243277760385      1.40770419873631     -0.69028462966767
  O   0.04409548315390      2.23591421800320      0.18902928129937
  O   0.06996689143460      1.55538846658491     -1.89985546273959
