15
Coordinates from ORCA-job run
  C   -0.66018040809216     -0.23448610065703      0.59796968140334
  C   0.25750044691999      0.64712299854635     -0.21477104476584
  Br  -2.08230727558747      0.91204549842651      1.27719515680858
  H   -0.24199206475107      1.19731326143262     -1.00879131171436
  H   -0.11443586267402     -0.59133016125019      1.47116965115622
  C   -1.23536615736711     -1.37186657615399     -0.22631995269955
  H   -0.43973461573720     -2.05992761390977     -0.52375018349745
  H   -1.95881680559369     -1.92997266160546      0.36795634161636
  H   -1.73701211528717     -0.99966971980420     -1.12168291160008
  N   1.31221933206643     -0.20664754669292     -0.86472298318555
  O   2.06989239646304     -0.80732462500865     -0.10934301205438
  O   1.28705292690417     -0.26233181637660     -2.09014383440572
  N   0.99253892833310      1.65746969603008      0.62342684761221
  O   1.27982514183504      2.70325800249724      0.04639526598969
  O   1.27081613256811      1.34834736452601      1.77541228933652
