15
Coordinates from ORCA-job run
  C   -0.43269151451739     -0.81354607473892      0.19606869214880
  C   0.66878756581163      0.14582280101375     -0.20964846707814
  Br  -0.73420086937127     -0.84005843649755      2.11747774411319
  H   0.96357521603328     -0.04501133118226     -1.24312581217368
  H   -0.03931166196803     -1.80659346173504     -0.02952070604599
  C   -1.72415372130084     -0.56346668197213     -0.56462208820690
  H   -2.42906468809276     -1.37117430012122     -0.36699184069795
  H   -1.52601278683968     -0.53674874574729     -1.64118695741227
  H   -2.18192410108826      0.37682885839940     -0.26093830661343
  N   1.91278721489242     -0.07721381142437      0.61361225392435
  O   2.40915494660881     -1.18720953134965      0.46976784763102
  O   2.29948305816319      0.82588678438719      1.34036235356654
  N   0.33709932187614      1.60449676149617     -0.15016468268291
  O   0.98705030913456      2.30581035868565     -0.92174176823068
  O   -0.51057828934177      1.98217681078627      0.64965173775803
