18

C	0.0	0.0	0.0
C	-0.434602	-0.24779	-1.478516
Cl	1.798004	0.0	0.0
H	0.432611	-0.002559	-2.102605
C	-0.365011	1.339441	0.652825
H	0.097682	2.158895	0.107524
H	0.024899	1.322376	1.674391
H	-1.451506	1.388806	0.639762
C	-0.427899	-1.093531	0.876024
N	-0.593311	-2.015867	1.585833
N	-1.455958	0.723172	-2.027036
O	-2.340272	0.283769	-2.74854
O	-1.205328	1.919075	-1.890541
C	-0.89145	-1.668555	-1.723392
H	-0.146688	-2.373863	-1.349868
H	-1.829711	-1.777403	-1.181167
H	-1.045698	-1.843091	-2.788024
F	-2.500643	0.0	0.0
