18

C	0.0	0.0	0.0
C	-0.268068	0.12066	-1.552833
Cl	1.797066	0.0	0.0
H	0.469424	-0.531034	-2.020071
C	-0.641582	1.016751	0.911547
H	-0.37276	0.785059	1.945516
H	-1.73337	0.868834	0.742177
H	-0.315788	2.024763	0.66338
C	-0.41322	-1.355639	0.378778
N	-0.64401	-2.466992	0.682406
N	0.154081	1.48163	-2.028825
O	1.079238	1.528847	-2.84353
O	-0.481541	2.458546	-1.638778
C	-1.640725	-0.168404	-2.125928
H	-1.628598	0.133544	-3.179425
H	-1.806326	-1.24697	-2.074877
H	-2.441821	0.269021	-1.5078
F	-3.111874	0.0	0.0
