18

C	0.0	0.0	0.0
C	-0.596117	-0.02783	-1.407227
Cl	1.795017	0.0	0.0
H	-1.681699	-0.214314	-1.1412
C	-0.483833	1.231381	0.76464
H	-0.13848	1.166916	1.798786
H	-0.07536	2.137828	0.313229
H	-1.580017	1.171922	0.697689
C	-0.391749	-1.192874	0.770814
N	-0.593831	-2.105157	1.483331
N	-0.031142	-1.179795	-2.166625
O	0.654334	-0.952292	-3.171037
O	-0.280026	-2.308459	-1.742273
C	-0.425464	1.260732	-2.176667
H	0.607052	1.617866	-2.181587
H	-0.737307	1.113952	-3.211152
H	-1.079698	2.009348	-1.730021
F	-2.825176	0.0	0.0
