18

C	0.0	0.0	0.0
C	-0.617398	-0.015934	-1.396627
Cl	1.794975	0.0	0.0
H	-1.707396	-0.214934	-1.111281
C	-0.468772	1.233345	0.775786
H	-0.058078	2.139764	0.327376
H	-0.11427	1.160883	1.805963
H	-1.564155	1.185489	0.724121
C	-0.387482	-1.178184	0.795752
N	-0.576492	-2.058892	1.550435
N	-0.062809	-1.145494	-2.195296
O	0.006119	-2.245192	-1.649545
O	0.27153	-0.941394	-3.365983
C	-0.498725	1.292848	-2.143044
H	-1.133031	2.024529	-1.643608
H	0.530796	1.659541	-2.192237
H	-0.865273	1.167414	-3.160452
F	-2.824722	0.0	0.0
