18

C	0.0	0.0	0.0
C	-0.261899	0.114292	-1.551983
Cl	1.793108	0.0	0.0
H	0.407816	-0.617696	-2.004719
C	-0.63332	1.021817	0.909583
H	-0.346515	0.804296	1.942659
H	-0.316414	2.027716	0.642999
H	-1.727454	0.861716	0.75241
C	-0.41831	-1.354132	0.380856
N	-0.638482	-2.462616	0.700314
N	0.2858	1.415986	-2.068107
O	-0.206254	2.462802	-1.653558
O	1.156845	1.349508	-2.937831
C	-1.65089	-0.04822	-2.127509
H	-1.576546	0.119482	-3.209662
H	-1.988287	-1.067749	-1.941277
H	-2.389406	0.563515	-1.608441
F	-3.060054	0.0	0.0
