15

C	-0.450348	-0.006274	-1.464956
C	0.0	0.0	0.0
Cl	-2.287693	-0.29953	-1.530901
H	1.094971	0.0	0.0
N	-0.020104	1.12149	-2.139028
H	-0.236852	1.097804	-3.12459
H	-0.261178	1.992597	-1.691049
N	0.107095	-1.221767	-2.20794
O	0.125527	-1.124816	-3.428066
O	0.449477	-2.186564	-1.543053
C	-0.509759	-1.113995	0.795531
N	-0.918383	-1.996607	1.454094
C	-0.43801	1.262751	0.596394
N	-0.778381	2.300649	1.029514
Br	3.289244	0.0	0.0
