15

C	-0.255136	0.024406	-1.513673
C	0.0	0.0	0.0
Cl	-0.015645	1.735464	-2.110847
H	1.097407	0.0	0.0
N	0.550996	-0.938393	-2.111132
H	0.469651	-0.936264	-3.118238
H	1.520404	-0.840908	-1.798835
N	-1.712687	-0.26347	-1.872165
O	-2.554366	-0.067287	-1.004178
O	-1.921991	-0.642799	-3.018916
C	-0.446565	-1.269744	0.570034
N	-0.792818	-2.284514	1.050019
C	-0.529123	1.129284	0.750091
N	-0.924121	2.023316	1.400657
Br	3.312404	0.0	0.0
