15

C	-0.543296	-0.00395	-1.437089
C	0.0	0.0	0.0
Cl	0.34146	-1.285997	-2.354973
H	1.093479	0.0	0.0
N	-1.947579	-0.101754	-1.481573
H	-2.271099	-0.069518	-2.43941
H	-2.264498	-0.949794	-1.027494
N	-0.181352	1.301969	-2.143308
O	-0.769284	1.50036	-3.201384
O	0.650555	2.026469	-1.617044
C	-0.447983	-1.238939	0.640455
N	-0.849131	-2.234118	1.118566
C	-0.515769	1.142296	0.754541
N	-0.94216	2.042303	1.376512
Br	3.325597	0.0	0.0
