15

C	-0.542677	-0.007265	-1.435909
C	0.0	0.0	0.0
Cl	0.181853	-1.343569	-2.336082
H	1.093735	0.0	0.0
N	-1.951803	-0.106655	-1.477359
H	-2.372413	0.634428	-0.925767
H	-2.271342	-0.04225	-2.436348
N	-0.054898	1.28585	-2.158683
O	-0.606467	1.506946	-3.233031
O	0.798919	1.9728	-1.617442
C	-0.446044	-1.217881	0.680613
N	-0.785286	-2.193262	1.239556
C	-0.515499	1.170067	0.712864
N	-0.969926	2.120715	1.233076
Br	3.320586	0.0	0.0
