15

C	-0.264686	0.083649	-1.532702
C	0.0	0.0	0.0
Cl	0.031279	1.745704	-2.056235
H	1.097676	0.0	0.0
N	0.528446	-0.805495	-2.294363
H	1.505247	-0.664075	-2.02748
H	0.259764	-1.76442	-2.105755
N	-1.748472	-0.238789	-1.769043
O	-2.558616	0.566046	-1.328739
O	-2.007421	-1.310576	-2.307642
C	-0.439736	-1.305485	0.484897
N	-0.80263	-2.367856	0.833133
C	-0.547125	1.075258	0.812742
N	-0.967441	1.927581	1.50392
Br	3.302203	0.0	0.0
