15

C	-0.26089	-0.001161	-1.512918
C	0.0	0.0	0.0
Cl	0.004542	1.692294	-2.144639
H	1.09854	0.0	0.0
N	0.526793	-0.988283	-2.095727
H	0.444479	-1.003668	-3.10355
H	1.498525	-0.89978	-1.787111
N	-1.72548	-0.271344	-1.859401
O	-2.560766	-0.033027	-0.994194
O	-1.946484	-0.679613	-2.993888
C	-0.451515	-1.256774	0.594434
N	-0.80434	-2.262893	1.08766
C	-0.521195	1.146095	0.7306
N	-0.903549	2.066218	1.352181
Br	3.30417	0.0	0.0
