15

C	-0.429101	0.093873	-1.470101
C	0.0	0.0	0.0
Cl	-0.117861	1.759245	-2.079809
H	1.096855	0.0	0.0
N	0.191499	-0.874876	-2.239525
H	-0.313487	-1.131678	-3.07478
H	0.623552	-1.630781	-1.7342
N	-1.987593	-0.023552	-1.584196
O	-2.407803	-0.401983	-2.671628
O	-2.664695	0.279827	-0.610838
C	-0.45334	-1.275458	0.552793
N	-0.804603	-2.325593	0.947195
C	-0.439913	1.114597	0.831894
N	-0.734955	2.005109	1.539154
Br	3.285443	0.0	0.0
