18

C	0.0	0.0	0.0
C	-0.257482	-0.044595	-1.542729
F	1.387763	0.0	0.0
H	0.537302	-0.728743	-1.873436
N	-0.607637	1.102587	0.641063
H	-0.480494	1.011551	1.647227
H	-1.63613	0.92746	0.461383
C	-0.318063	-1.328733	0.610682
N	-0.445981	-2.390461	1.097139
C	0.045656	1.339537	-2.12265
H	-0.733689	2.05172	-1.841958
H	0.086452	1.274999	-3.213931
H	1.003624	1.721181	-1.761511
C	-1.565228	-0.598693	-2.101914
H	-1.832332	-1.556134	-1.647846
H	-1.428009	-0.74284	-3.183957
H	-2.404323	0.063346	-1.889402
H	-3.145645	0.0	0.0
