18

C	0.0	0.0	0.0
C	-0.386033	0.014665	-1.517554
F	1.388108	0.0	0.0
H	0.594077	-0.065517	-2.002009
N	-0.549123	1.08719	0.730685
H	-0.361566	0.938246	1.718593
H	-1.579509	0.953982	0.598179
C	-0.302691	-1.325685	0.629931
N	-0.427647	-2.355443	1.182256
C	-1.024177	1.329207	-1.957864
H	-0.424413	2.18691	-1.645155
H	-1.101998	1.333194	-3.051219
H	-2.025692	1.406383	-1.528477
C	-1.226812	-1.176986	-1.976558
H	-2.179658	-1.167668	-1.44561
H	-1.405364	-1.093635	-3.054922
H	-0.714857	-2.127299	-1.793936
H	-3.114193	0.0	0.0
