18

C	0.0	0.0	0.0
C	-0.299961	-0.005236	-1.540373
F	1.38684	0.0	0.0
H	0.638021	0.413902	-1.924779
N	-0.545036	1.14296	0.648665
H	-1.574692	0.993745	0.544807
H	-0.343228	1.073942	1.643272
C	-0.345778	-1.283764	0.674062
N	-0.475624	-2.275495	1.290745
C	-1.410695	0.896702	-2.06361
H	-1.364109	0.892511	-3.159357
H	-2.380982	0.560761	-1.704178
H	-1.274152	1.921559	-1.720085
C	-0.428239	-1.427117	-2.08234
H	0.392145	-2.062869	-1.742009
H	-0.399462	-1.41155	-3.175358
H	-1.371248	-1.870692	-1.757261
H	-3.100552	0.0	0.0
