18

C	0.0	0.0	0.0
C	-0.230978	-0.063372	-1.55005
F	1.386466	0.0	0.0
H	0.484817	0.706286	-1.8677
N	-0.577358	1.154519	0.579479
H	-1.610551	0.955948	0.451724
H	-0.406789	1.141864	1.584516
C	-0.342882	-1.280966	0.687114
N	-0.479359	-2.303521	1.251625
C	-1.566481	0.295261	-2.185412
H	-1.392382	0.382994	-3.26806
H	-1.959896	1.235221	-1.803108
H	-2.329586	-0.450205	-1.984819
C	0.260301	-1.408983	-2.090009
H	1.249023	-1.669942	-1.709217
H	0.316126	-1.369219	-3.18303
H	-0.429302	-2.2084	-1.813215
H	-3.070342	0.0	0.0
