18

C	0.0	0.0	0.0
C	-0.514843	-0.055919	-1.431068
F	1.415781	0.0	0.0
H	-1.608145	-0.12837	-1.283638
N	-0.527147	1.133249	0.674983
H	-0.332073	1.045018	1.668496
H	-1.562372	1.010624	0.558541
C	-0.292874	-1.284702	0.713886
N	-0.414525	-2.275134	1.334657
C	-0.006665	-1.283283	-2.17646
H	-0.295022	-2.206659	-1.6674
H	-0.445056	-1.309104	-3.178891
H	1.082881	-1.269696	-2.27915
C	-0.188816	1.233676	-2.174797
H	0.892954	1.379146	-2.260567
H	-0.612454	1.189426	-3.183494
H	-0.612611	2.095101	-1.659347
H	-3.063343	0.0	0.0
