18

C	0.0	0.0	0.0
C	-0.483306	-0.024308	-1.447066
F	1.38885	0.0	0.0
H	-1.578671	-0.101615	-1.344679
N	-0.559055	1.111054	0.686526
H	-1.59342	0.955877	0.550061
H	-0.380918	1.007751	1.681916
C	-0.306428	-1.307254	0.672601
N	-0.472551	-2.331883	1.223314
C	0.065578	-1.227921	-2.205178
H	-0.305415	-1.215292	-3.234666
H	1.159708	-1.213244	-2.237948
H	-0.253737	-2.168527	-1.748737
C	-0.120857	1.283749	-2.144001
H	0.965493	1.417326	-2.188691
H	-0.550627	2.135656	-1.617386
H	-0.507725	1.273028	-3.168194
H	-3.043641	0.0	0.0
