18

C	0.0	0.0	0.0
C	-0.36928	0.030392	-1.520262
F	1.387654	0.0	0.0
H	0.60031	-0.164679	-1.993182
N	-0.568165	1.067401	0.741509
H	-0.401123	0.902162	1.730828
H	-1.596351	0.937558	0.587556
C	-0.297101	-1.343216	0.595626
N	-0.415845	-2.385401	1.125633
C	-0.842942	1.41173	-1.968235
H	-0.177979	2.201694	-1.614431
H	-1.849992	1.592917	-1.58819
H	-0.870543	1.436719	-3.063663
C	-1.33989	-1.056321	-1.984249
H	-2.277204	-0.948961	-1.430139
H	-1.52848	-0.930659	-3.056415
H	-0.928716	-2.058582	-1.82643
H	-3.168335	0.0	0.0
