14

C	0.0	0.0	0.0
C	-0.458736	-0.058304	-1.462293
Br	1.954019	0.0	0.0
H	-1.540328	-0.209645	-1.358625
H	0.024626	-0.908487	-1.95244
N	-0.600918	1.133955	0.625717
H	-1.640672	0.868649	0.485421
H	-0.389602	1.120949	1.618337
C	-0.33293	-1.286751	0.652147
N	-0.543084	-2.316067	1.179958
N	-0.086052	1.190253	-2.143594
H	-0.731426	1.308043	-2.918178
H	-0.30121	1.931018	-1.481336
F	-2.817814	0.0	0.0
