14

C	0.0	0.0	0.0
C	-0.424703	-0.022802	-1.472969
Br	1.983381	0.0	0.0
H	-1.517519	-0.039567	-1.369692
H	-0.103465	0.941177	-1.901265
N	-0.55775	1.072271	0.752889
H	-1.594588	0.822688	0.633944
H	-0.384023	1.925886	0.229386
C	-0.357983	-1.276193	0.6445
N	-0.555316	-2.2961	1.189705
N	0.059422	-1.192026	-2.187426
H	0.986097	-1.035533	-2.555527
H	-0.565748	-1.402795	-2.953161
F	-2.774242	0.0	0.0
