14

C	0.0	0.0	0.0
C	-0.448492	0.051535	-1.466974
Br	1.992484	0.0	0.0
H	-1.542216	0.060612	-1.355976
H	-0.135255	-0.888224	-1.942689
N	-0.572666	1.05301	0.754893
H	-0.39268	0.882063	1.740086
H	-1.608571	0.8453	0.566097
C	-0.303029	-1.348664	0.53674
N	-0.490566	-2.398526	1.032305
N	0.031436	1.244187	-2.146808
H	0.920656	1.064227	-2.596194
H	-0.639269	1.514302	-2.853063
F	-2.79953	0.0	0.0
