18

C	-0.250631	-0.022772	-1.515597
C	0.0	0.0	0.0
F	0.017098	1.257109	-2.013533
H	1.096306	0.0	0.0
C	0.740347	-0.960636	-2.184904
H	0.477151	-2.006918	-2.019439
H	1.706169	-0.740725	-1.706296
H	0.768	-0.76897	-3.261463
C	-1.657394	-0.311789	-1.859557
N	-2.779574	-0.579744	-2.08084
C	-0.506461	-1.264044	0.670764
H	-1.602535	-1.327972	0.653155
H	-0.171692	-1.265823	1.711916
H	-0.099051	-2.161862	0.202127
N	-0.59582	1.202701	0.583549
H	0.162374	1.819482	0.846656
H	-1.104044	0.961775	1.426963
F	2.729493	0.0	0.0
