18

C	-0.509968	0.024668	-1.436956
C	0.0	0.0	0.0
F	-0.057723	-1.116309	-2.113304
H	1.098734	0.0	0.0
C	-2.023574	0.050242	-1.575279
H	-2.310356	0.121022	-2.627392
H	-2.418485	0.905128	-1.026559
H	-2.433861	-0.874217	-1.163272
C	0.056195	1.194723	-2.143314
N	0.449247	2.103394	-2.77431
C	-0.491109	-1.218144	0.758552
H	-1.556144	-1.162692	1.026683
H	0.096338	-1.302672	1.676578
H	-0.32402	-2.127781	0.177766
N	-0.426335	1.270163	0.625892
H	0.431278	1.760348	0.863993
H	-0.913424	1.081399	1.495223
F	2.649191	0.0	0.0
