18

C	-0.342219	0.027309	-1.483427
C	0.0	0.0	0.0
F	-1.705575	0.342625	-1.695976
H	1.100464	0.0	0.0
C	0.538697	1.047203	-2.175963
H	1.565495	0.835084	-1.854925
H	0.248892	2.028592	-1.798132
H	0.429084	1.010413	-3.262144
C	-0.164218	-1.304094	-2.098226
N	-0.070785	-2.354509	-2.613984
C	-0.597886	-1.171684	0.75699
H	-1.696062	-1.142184	0.744625
H	-0.26272	-1.129411	1.797243
H	-0.274776	-2.130388	0.34503
N	-0.368233	1.3076	0.562521
H	-1.212172	1.238401	1.120912
H	0.397033	1.586307	1.166608
F	2.690209	0.0	0.0
