18

C	-0.312316	0.06415	-1.490698
C	0.0	0.0	0.0
F	-1.673307	0.380028	-1.723812
H	1.096542	0.0	0.0
C	0.582232	1.102486	-2.139696
H	0.288147	2.074344	-1.742734
H	0.490727	1.093487	-3.228302
H	1.602681	0.877663	-1.805716
C	-0.110769	-1.25221	-2.132341
N	0.026566	-2.303661	-2.638425
C	-0.594203	-1.204387	0.708745
H	-0.309397	-1.172091	1.764351
H	-0.218734	-2.1429	0.294261
H	-1.691036	-1.210889	0.645498
N	-0.396854	1.284149	0.589083
H	0.320722	1.535022	1.257264
H	-1.280669	1.198949	1.076991
F	2.69359	0.0	0.0
