18

C	-0.259911	0.062878	-1.504031
C	0.0	0.0	0.0
F	-0.012693	1.383151	-1.926125
H	1.096309	0.0	0.0
C	0.738176	-0.823318	-2.231878
H	1.708486	-0.630877	-1.748579
H	0.475133	-1.878351	-2.123715
H	0.74915	-0.568809	-3.294367
C	-1.662199	-0.220334	-1.874502
N	-2.758921	-0.51852	-2.17298
C	-0.515598	-1.28993	0.609111
H	-0.240078	-1.316491	1.668322
H	-0.049559	-2.16026	0.142966
H	-1.605757	-1.370647	0.534398
N	-0.650312	1.147743	0.649277
H	-0.168938	1.974792	0.311501
H	-0.418026	1.08602	1.635981
F	2.744977	0.0	0.0
