18

C	-0.537164	-0.008968	-1.425587
C	0.0	0.0	0.0
F	-0.136114	-1.187836	-2.072221
H	1.101274	0.0	0.0
C	-2.052472	0.05716	-1.529828
H	-2.481182	-0.834904	-1.068462
H	-2.362571	0.092989	-2.577165
H	-2.408636	0.947272	-1.011361
C	0.04605	1.114965	-2.187489
N	0.464666	1.992376	-2.845555
C	-0.477319	-1.198083	0.800176
H	-0.320443	-2.124572	0.242951
H	0.127684	-1.2545	1.709197
H	-1.537521	-1.136664	1.088069
N	-0.399869	1.289263	0.599122
H	0.460274	1.732101	0.90596
H	-0.979906	1.137925	1.416903
F	2.647357	0.0	0.0
