18

C	-0.263718	0.069514	-1.502479
C	0.0	0.0	0.0
F	-0.008355	1.389208	-1.920058
H	1.097952	0.0	0.0
C	0.725588	-0.822788	-2.236133
H	0.451552	-1.875344	-2.131778
H	1.698746	-0.641542	-1.754764
H	0.737578	-0.563897	-3.297135
C	-1.670528	-0.200104	-1.867498
N	-2.777903	-0.471682	-2.151771
C	-0.518851	-1.290679	0.60635
H	-1.609748	-1.365849	0.53509
H	-0.23886	-1.321757	1.664157
H	-0.058854	-2.161704	0.134664
N	-0.644647	1.148028	0.655142
H	-0.40995	1.080841	1.641312
H	-0.159908	1.973968	0.32136
F	2.74314	0.0	0.0
