13

C	-0.531748	-0.039689	-1.407653
C	0.0	0.0	0.0
F	0.124551	0.901125	-2.22321
H	1.090532	0.0	0.0
H	-0.255389	-1.016946	-1.817743
H	-0.32742	-0.893134	0.532625
N	-1.954841	0.116699	-1.507569
H	-2.179721	1.043099	-1.162537
H	-2.216531	0.082927	-2.485173
N	-0.488477	1.131048	0.787367
O	-0.490856	1.011735	2.014615
O	-0.830057	2.170963	0.20508
F	2.553352	0.0	0.0
