13

C	-0.182656	-0.064696	-1.498052
C	0.0	0.0	0.0
F	-1.475988	-0.467511	-1.855265
H	1.091018	0.0	0.0
H	-0.022429	0.925364	-1.925204
H	-0.399623	-0.87938	0.503874
N	0.771852	-0.99234	-2.07368
H	0.532273	-1.911611	-1.715239
H	1.665468	-0.746071	-1.615508
N	-0.566354	1.184045	0.643825
O	-1.025828	1.057416	1.783337
O	-0.520893	2.260974	0.043221
F	2.607941	0.0	0.0
