13

C	-0.473004	0.123683	-1.427615
C	0.0	0.0	0.0
F	-0.176833	1.422903	-1.834552
H	1.086999	0.0	0.0
H	0.121542	-0.529276	-2.075075
H	-0.392485	0.818691	0.601572
N	-1.904479	-0.033569	-1.578877
H	-2.125185	-0.021593	-2.568858
H	-2.143857	-0.954429	-1.231409
N	-0.440554	-1.244832	0.618089
O	-0.548162	-1.285005	1.844299
O	-0.625502	-2.232841	-0.111594
F	2.550348	0.0	0.0
