13

C	-0.518648	0.025328	-1.431319
C	0.0	0.0	0.0
F	-0.328115	1.30529	-1.934572
H	1.088372	0.0	0.0
H	0.112401	-0.652396	-2.013718
H	-0.383474	-0.906265	0.476053
N	-1.905835	-0.315139	-1.647887
H	-2.450376	0.062979	-0.879386
H	-1.9989	-1.32255	-1.619411
N	-0.617784	1.121949	0.734791
O	-1.786081	0.965385	1.135779
O	0.013824	2.162596	0.883666
F	2.606389	0.0	0.0
