14
Coordinates from ORCA-job run
  C   0.79237316056446      0.33921930198246     -0.57327821369849
  C   -0.51105337265062      0.13540834794344      0.18698769313875
  H   0.87056301070252     -0.36251575326699     -1.40169369305214
  H   -0.49788064123015      0.79635017832161      1.06225939410705
  H   0.89755437556935      1.36697245157104     -0.92674784343520
  N   1.93646468239479      0.08361117729038      0.34044935762253
  O   2.70471157439429     -0.83018416943070      0.05734833000947
  O   2.02092642579338      0.81430631196268      1.32531797507769
  N   -0.54228368383052     -1.22020755003185      0.67865047392685
  H   -1.23377586551008     -1.33204923676584      1.40806353415297
  H   -0.76632244647893     -1.85109035433695     -0.08277508921011
  N   -1.59928881947056      0.41764865017400     -0.75339548919173
  H   -1.58680609585587      1.39420919017619     -1.03049699157265
  H   -2.48518230439204      0.25032145441053     -0.28968943787498
