14
Coordinates from ORCA-job run
  C   0.97444953136308     -0.30429476030532     -0.16340953697999
  C   -0.52832159075999     -0.13262450588861     -0.28671332806202
  H   1.38113693893274     -0.77773917208514     -1.05804836643829
  H   -0.74007952265571      0.42466091835934     -1.20803514935108
  H   1.22682431099629     -0.89779521676148      0.71515908343260
  N   1.70366385643021      0.99106269752514     -0.00549337916793
  O   2.82875384975390      0.93630536883068      0.47967374066373
  O   1.15362946501698      2.01677932797393     -0.40893300012235
  N   -1.03214598983846      0.52523723005601      0.91793570983776
  H   -0.72887340433053      1.49312469620541      0.92986192164494
  H   -2.04542024494511      0.53221517609361      0.88607637477051
  N   -1.07118836214006     -1.46697231283137     -0.44819929975536
  H   -1.10345484381514     -1.91495257811326      0.46143987768399
  H   -2.01597399400819     -1.42400686905894     -0.80831464815651
