14
Coordinates from ORCA-job run
  C   0.98584929346184     -0.34081125725790     -0.15887873870181
  C   -0.49542325101540     -0.04403070937724     -0.33951302249779
  H   1.17453144036025     -0.94587703555959      0.72943836271580
  H   -0.60303807006038      0.55139514011503     -1.24940052608049
  H   1.38485361982013     -0.82859535333324     -1.04674415132403
  N   1.72607889102464      0.93529795349792      0.02565336237969
  O   1.71796605664062      1.70960158175844     -0.92740867137892
  O   2.27598286342514      1.13001412786260      1.10596643281861
  N   -0.93119293590319      0.78933000032497      0.76737960049686
  H   -1.87432493722314      1.12516546735291      0.61932638444888
  H   -0.90726310116558      0.27460129678251      1.64068825394534
  N   -1.15574156227204     -1.32322529361958     -0.57639800225586
  H   -2.11219410363374     -1.17123687478317     -0.87304013092138
  H   -1.18508420345916     -1.86162904376368      0.28293084635510
