14
Coordinates from ORCA-job run
  C   0.87679832105148     -0.33541998224606     -0.07227098833846
  C   -0.60856708786807     -0.05386043951072     -0.26198230103073
  H   1.04561047773076     -0.85036176576575      0.87409880415760
  H   -0.74932990760680      0.46826369771307     -1.21801024803602
  H   1.28230569661317     -0.93366514152835     -0.89221250324915
  N   1.72679445424728      0.89800818804006     -0.02373687225343
  O   2.87322242391955      0.75768847008050      0.38783324315991
  O   1.23873270065058      1.95379245616037     -0.42747614068410
  N   -1.09234835364072      0.68416797374914      0.89083869884915
  H   -2.10328192743859      0.71734564133659      0.83068081559943
  H   -0.74291180258120      1.63402005477863      0.85989170163325
  N   -1.38531611512559     -1.27995488654328     -0.32137554698448
  H   -1.14710356082897     -1.82939713260368     -1.13721059586944
  H   -1.21460531912289     -1.83162713366051      0.51193193304647
