17

C	-0.344408	-0.061515	-1.484091
C	0.0	0.0	0.0
Cl	-2.146879	-0.267196	-1.770046
H	1.098064	0.0	0.0
C	0.010539	1.201607	-2.137396
N	0.292692	2.211092	-2.668755
C	0.396489	-1.208633	-2.156188
H	1.452599	-1.11536	-1.870683
H	0.003292	-2.16297	-1.803557
H	0.277994	-1.159187	-3.239891
C	-0.389649	-1.247342	0.790228
H	-1.454575	-1.479796	0.716918
H	-0.132565	-1.084543	1.839016
H	0.203434	-2.096846	0.447031
C	-0.52268	1.19997	0.62633
N	-0.945257	2.152689	1.17216
H	2.670107	0.0	0.0
