17

C	-0.339401	-0.245524	-1.46588
C	0.0	0.0	0.0
Cl	-2.13736	-0.538738	-1.722298
H	1.103862	0.0	0.0
C	-0.024911	0.942092	-2.265634
N	0.223228	1.86652	-2.947963
C	0.439232	-1.436928	-2.003856
H	1.491461	-1.27434	-1.734324
H	0.082386	-2.357221	-1.540607
H	0.31885	-1.517299	-3.085325
C	-0.382789	-1.14044	0.940903
H	0.190707	-2.033773	0.686015
H	-0.093956	-0.856997	1.955073
H	-1.451735	-1.364531	0.92274
C	-0.527835	1.265664	0.473475
N	-0.94744	2.279067	0.898652
H	2.6644	0.0	0.0
