17

C	-0.494399	-0.031365	-1.450805
C	0.0	0.0	0.0
Cl	0.179574	1.392711	-2.333441
H	1.095655	0.0	0.0
C	-0.000316	-1.241408	-2.119947
N	0.280342	-2.250111	-2.65527
C	-2.015542	0.022122	-1.59703
H	-2.387871	0.931635	-1.122894
H	-2.295783	0.025022	-2.651794
H	-2.464021	-0.847552	-1.112294
C	-0.370626	-1.258326	0.788424
H	-1.447562	-1.383348	0.945246
H	0.03259	-2.13827	0.278182
H	0.124758	-1.196819	1.75877
C	-0.505131	1.189207	0.663032
N	-0.913596	2.148018	1.210422
H	2.662828	0.0	0.0
