17

C	-0.34094	-0.115232	-1.482507
C	0.0	0.0	0.0
Cl	-2.134316	-0.407184	-1.760992
H	1.098048	0.0	0.0
C	-0.043042	1.142433	-2.173155
N	0.184909	2.129286	-2.769208
C	0.451261	-1.244472	-2.126023
H	0.331382	-1.227349	-3.210751
H	1.501809	-1.09643	-1.840615
H	0.10419	-2.206896	-1.749232
C	-0.385813	-1.217493	0.837079
H	-1.460058	-1.415843	0.824871
H	0.158736	-2.095447	0.485267
H	-0.066147	-1.038036	1.866002
C	-0.527297	1.219536	0.583097
N	-0.953842	2.2017	1.070452
H	2.675578	0.0	0.0
