17

C	-0.509857	0.028064	-1.445053
C	0.0	0.0	0.0
Cl	0.228277	1.434609	-2.304504
H	1.103674	0.0	0.0
C	-0.094667	-1.186613	-2.155877
N	0.117224	-2.177927	-2.750773
C	-2.02642	0.167409	-1.568614
H	-2.519138	-0.677718	-1.081807
H	-2.340659	1.094078	-1.085988
H	-2.32141	0.193196	-2.619709
C	-0.373735	-1.280718	0.748682
H	0.041637	-2.142635	0.221301
H	0.108755	-1.243144	1.728569
H	-1.450168	-1.417792	0.889418
C	-0.486132	1.16929	0.709428
N	-0.87622	2.102995	1.310859
H	2.656877	0.0	0.0
