17

C	-0.476617	0.180496	-1.445869
C	0.0	0.0	0.0
Cl	0.161442	1.745934	-2.084301
H	1.107563	0.0	0.0
C	0.066597	-0.889785	-2.29059
N	0.383605	-1.780236	-2.98935
C	-1.993743	0.20625	-1.608364
H	-2.40528	1.013577	-1.000389
H	-2.419005	-0.745391	-1.279998
H	-2.261928	0.371807	-2.653814
C	-0.366016	-1.366955	0.583085
H	0.132031	-1.457452	1.551494
H	-1.440441	-1.518463	0.722469
H	0.037891	-2.154781	-0.057074
C	-0.526443	1.063811	0.832601
N	-0.97421	1.893353	1.538687
H	2.648559	0.0	0.0
