19

C	0.0	0.0	0.0
C	-0.453894	-0.175449	-1.474134
Br	1.954953	0.0	0.0
H	0.063591	-1.066739	-1.836714
C	-0.567682	1.198711	0.709547
H	-1.656352	1.095752	0.757274
H	-0.17773	1.279128	1.722408
H	-0.307497	2.099778	0.153036
N	-0.343634	-1.276373	0.770946
O	-0.757725	-1.153154	1.918571
O	-0.153632	-2.34063	0.191315
N	-0.081262	0.933993	-2.33778
H	0.893088	1.184138	-2.221237
H	-0.656703	1.741617	-2.131853
C	-1.95506	-0.388399	-1.570914
H	-2.191653	-0.667455	-2.599847
H	-2.53042	0.504094	-1.323453
H	-2.334423	-1.164638	-0.909217
Cl	-4.895803	0.0	0.0
