19

C	0.0	0.0	0.0
C	-0.527769	0.29335	-1.431281
Br	1.952656	0.0	0.0
H	-1.565052	-0.053065	-1.399601
C	-0.486161	0.945103	1.06956
H	-0.067062	1.934819	0.894568
H	-1.579483	0.968579	1.021935
H	-0.169058	0.596684	2.049971
N	-0.356981	-1.43927	0.402736
O	-0.476859	-2.266376	-0.497127
O	-0.446466	-1.688636	1.598161
N	0.141815	-0.365428	-2.543348
H	1.116782	-0.088345	-2.569424
H	0.105432	-1.365312	-2.404169
C	-0.547227	1.793431	-1.695214
H	-0.837681	1.934964	-2.737557
H	0.439698	2.247924	-1.546571
H	-1.280402	2.291304	-1.061159
Cl	-3.654204	0.0	0.0
