16
Coordinates from ORCA-job run
  C   0.78840661498199      0.05362350819303     -0.16712307619672
  C   -0.71770189714462     -0.04716354501148     -0.44227852895998
  Cl  1.70830766754704     -0.84041151098014     -1.39548236240040
  H   -0.88762983796142      0.34017474454202     -1.44936823726424
  N   1.20007248693232      1.55149104886534     -0.41121285297067
  O   0.70192492716147      2.11625185747725     -1.37540027994186
  O   2.00405118573615      2.02414916593045      0.38210672702803
  N   1.13287376961832     -0.40071880206446      1.11333831053943
  H   2.12632918392994     -0.30788826662672      1.28285173863868
  H   0.62332404246040      0.10830089145700      1.82766083100123
  C   -1.39721925825924      0.83969766096693      0.50607916756216
  N   -1.91028858753158      1.52264382291955      1.31256921512509
  C   -1.24442800947227     -1.47801190762936     -0.31545592046990
  H   -2.31710290472728     -1.49031736452878     -0.51468829234403
  H   -1.06188026901141     -1.86778425884017      0.68499043932019
  H   -0.74903911425980     -2.12403704467047     -1.03958687866701
