16
Coordinates from ORCA-job run
  C   0.69348119046062      0.28886163514400     -0.18181307283008
  C   -0.54747660327908     -0.54970964451693      0.16179102168773
  Cl  0.29199740600207      1.45729127305466     -1.51201112559395
  H   -0.31044466196616     -1.03553410664361      1.11358394879216
  N   1.09844956840604      1.16380718394835      1.01490855793077
  O   2.11344160960514      1.82695703480197      0.85678240490240
  O   0.41942340693973      1.10201083867147      2.03278765121127
  N   1.82168673893659     -0.51284400535079     -0.42473671100891
  H   2.63836745957307      0.05763713146251     -0.60969751725582
  H   1.66928831793170     -1.16611166616451     -1.18309198526741
  C   -0.66828782926119     -1.59648983791885     -0.85456936314937
  N   -0.76040192470211     -2.42460465684104     -1.68213021941857
  C   -1.86807528359974      0.21529086922061      0.28833922599511
  H   -2.20417050455665      0.57982894349601     -0.68069732033953
  H   -1.75825132214352      1.05292306546920      0.97375186720816
  H   -2.62702756834652     -0.46031405783306      0.68680263713605
