16
Coordinates from ORCA-job run
  C   0.72018422013898      0.19598637735792     -0.38353443740588
  C   -0.54339575399471     -0.56528188916461      0.05228117002852
  Cl  0.45632812327523      1.12724587053564     -1.84795947901864
  H   -0.24599221346732     -1.15259270123176      0.92980417758945
  N   0.98297382059915      1.19318687957058      0.79909720789651
  O   1.36502970745315      0.62313343185366      1.81956399065899
  O   0.76869706956791      2.38763791948441      0.67162042774364
  N   1.80018395900854     -0.69348155087255     -0.56794064501602
  H   2.61220596508515     -0.23102882909057     -0.95726107756380
  H   2.03878062180245     -1.15069308738442      0.30373219024405
  C   -0.91825170090382     -1.49927339215833     -1.00839255076258
  N   -1.28278954090562     -2.24478113198056     -1.83857062639460
  C   -1.71672579146534      0.33978738659967      0.43325325009597
  H   -1.47360014168093      0.94072173042602      1.31065815114079
  H   -1.97990506850686      1.00347323435386     -0.39056438545060
  H   -2.58472327600597     -0.27504024829896      0.67421263621420
