16
Coordinates from ORCA-job run
  C   0.85957086670793      0.16070328478615     -0.16789599266616
  C   -0.64959257702769     -0.03052325930156     -0.46518269343851
  Cl  1.79090918785266     -0.67218307493691     -1.42613362550176
  H   -0.83248259949841      0.34604733373468     -1.47603680457301
  N   1.10589282805917      1.67800722005065     -0.33256629549677
  O   1.42659532470629      2.29925268828474      0.67147826364725
  O   0.88632982428303      2.13809945049501     -1.44463711430984
  N   1.35055562508035     -0.22002765067572      1.10055541049940
  H   1.29065676023305     -1.21783931371045      1.24375239656351
  H   0.91723353915954      0.29972136209638      1.85265473954422
  C   -1.39566511791681      0.80050282347046      0.48198682090368
  N   -1.97264324291503      1.43914855120214      1.28170219583760
  C   -1.10170154793657     -1.48704661043427     -0.34997003141737
  H   -0.55167518443242     -2.11556579445027     -1.04978920387807
  H   -0.95714324887850     -1.86171432447654      0.66478017725655
  H   -2.16484043747659     -1.55858268613448     -0.58369824297072
