16
Coordinates from ORCA-job run
  C   0.69159048563174      0.41819790837816     -0.31045709006905
  C   -0.41480544534209     -0.58784711644913      0.08773448938541
  Cl  0.26395678585116      1.25295791841976     -1.79392546708046
  H   -0.05956207154797     -1.04955086856082      1.01680271750056
  N   0.74738871688407      1.41239725699900      0.86520092668512
  O   1.16073755747299      0.89856277144994      1.90174674155446
  O   0.37145013000425      2.56287617338091      0.71989500747635
  N   2.01411012530175     -0.10247307650434     -0.43224617238273
  H   2.25249910383185     -0.66095112168259      0.37841132897617
  H   2.10817865396297     -0.64786817522896     -1.27938226341553
  C   -0.46338029671467     -1.63089578120267     -0.93505973605029
  N   -0.49479848613747     -2.46642493358941     -1.75965147817804
  C   -1.78792611291922      0.03826328509640      0.33406746051753
  H   -1.73156586474583      0.77457768045126      1.13775238279318
  H   -2.49569290979200     -0.73617173291945      0.63353259129185
  H   -2.16318037174155      0.52534981196196     -0.56542143900455
