16
Coordinates from ORCA-job run
  C   0.65469280613035      0.37921131438531     -0.15764177478408
  C   -0.47621995410396     -0.61898216475933      0.13534359652856
  Cl  0.13706630061206      1.52251821237687     -1.46915836597462
  H   -0.20014707275265     -1.09505673061781      1.08147217388724
  N   0.91817974701605      1.26670553989637      1.06947637199508
  O   0.22971640008538      1.09279892836829      2.06777107436034
  O   1.84386331023777      2.05698552573437      0.95285194440085
  N   1.88114883179930     -0.26592042234783     -0.39090757984619
  H   1.82910144584454     -0.91392119160013     -1.16714157412430
  H   2.62123607798494      0.40879170228477     -0.54477696937592
  C   -0.44047286956503     -1.64576807451522     -0.90757408880817
  N   -0.40655354117723     -2.45687080530027     -1.75616628590562
  C   -1.88617497329923     -0.03157820648538      0.24633887181444
  H   -2.56143399177781     -0.80850855261538      0.60923814453097
  H   -1.89948037974055      0.79463351449290      0.95394568415310
  H   -2.24452213729393      0.31296141070247     -0.72207122285171
