16
Coordinates from ORCA-job run
  C   0.78782259229567      0.05466906004667     -0.17428151195555
  C   -0.72050224612505     -0.05440812053094     -0.43387321726555
  Cl  1.69882549557165     -0.85594560909088     -1.39682634748244
  H   -0.90144733816692      0.32153573526780     -1.44335300936626
  N   1.19293199879296      1.54919499551648     -0.44458792178236
  O   2.00020650446171      2.03705384960318      0.33607934225866
  O   0.68512312861258      2.09736048931906     -1.41331791532487
  N   1.14503516523039     -0.37982141283685      1.10986399137328
  H   2.14034065166219     -0.28498131193224      1.26759587202703
  H   0.64367759965846      0.14171662106104      1.82108661789244
  C   -1.39528203059024      0.84034524515641      0.51056122295358
  N   -1.91974034826391      1.52215133203922      1.31068254189016
  C   -1.24130844328795     -1.48531227088622     -0.28583987879996
  H   -2.31819232094189     -1.50079555606218     -0.46092964520281
  H   -1.03545923237796     -1.86763766249380      0.71301544517071
  H   -0.76103117653170     -2.13512538417678     -1.01687558638608
