16
Coordinates from ORCA-job run
  C   0.66674320735046      0.36211322682257     -0.35987919707346
  C   -0.49521839365985     -0.60436348695372     -0.07466567873307
  Cl  0.20369635624651      1.63952066805310     -1.47153716514834
  H   -0.07819065498766     -1.38359360087260      0.57523957197470
  N   0.96985033290702      1.00670707118612      1.03885910843907
  O   1.47573471357434      0.20759905668325      1.82486655244054
  O   0.66258480521743      2.16335600412486      1.27660217042780
  N   1.78333525822112     -0.33489785813554     -0.86739581293803
  H   2.52314550943445      0.29071430414499     -1.16065101987104
  H   2.13095671656065     -0.99851930259976     -0.18593319800785
  C   -0.90111531373609     -1.23483837447231     -1.32986131595625
  N   -1.28969157252823     -1.74696365277734     -2.31201556384894
  C   -1.68844529656430      0.04481112357094      0.62946753824494
  H   -2.07520285761788      0.88175152323747      0.04778436646990
  H   -1.40663276937404      0.40089511518859      1.62134951180679
  H   -2.48355004104394     -0.69229181720061      0.74777013177323
