16
Coordinates from ORCA-job run
  C   0.76285883529464      0.08795636930746     -0.24599894643609
  C   -0.76107649213845     -0.04588789815256     -0.36176847638654
  Cl  1.56493321286444     -0.71409058062488     -1.61318400495868
  H   -1.05105816402212      0.39312906410229     -1.31892322847220
  N   1.11004838591395      1.60717406289229     -0.45323983912577
  O   0.48565148967409      2.21022553821139     -1.31544128492556
  O   1.99985119731628      2.05598929076178      0.25809598429075
  N   1.25762014288776     -0.41952331992125      0.96315984992920
  H   2.26039096083014     -0.29956662003456      1.03063680014441
  H   0.81252732410537      0.03176830738354      1.75521119321918
  C   -1.35513032978642      0.76280164237285      0.70634377633478
  N   -1.79730678053663      1.38272378924353      1.60094017938287
  C   -1.23334774892206     -1.49811048648346     -0.26570450984957
  H   -2.32232511385661     -1.53166621296089     -0.32535434722412
  H   -0.82225089871453     -2.07997950179329     -1.09012097528597
  H   -0.91238602090988     -1.94494344430426      0.67434782936331
