16
Coordinates from ORCA-job run
  C   0.64067896969070      0.45638303348311     -0.29151254364564
  C   -0.54051516692057     -0.52564816273914     -0.21915657886963
  Cl  0.13503624056344      2.06092263832344     -0.79256272831642
  H   -0.10175152966805     -1.49606984672477      0.04376514037631
  N   1.15247662848540      0.53687866061617      1.19023314269088
  O   1.69884314076684     -0.50212245848643      1.55634458129524
  O   0.95960911029010      1.53350459608445      1.86741065772216
  N   1.63920720003006     -0.02666967388006     -1.16370734499022
  H   2.37862170646517      0.64943776343243     -1.30843308888223
  H   2.02111711292309     -0.89995525348708     -0.82143758718820
  C   -1.13405611218567     -0.64563962033617     -1.55008380979492
  N   -1.66971795822436     -0.75736923477787     -2.58859726165003
  C   -1.59556307151301     -0.15763001337537      0.82609211618037
  H   -1.17476371151315     -0.19595672561002      1.83184286089801
  H   -2.41854774362169     -0.87158035709195      0.77599652785988
  H   -1.99167481556831      0.84151465456929      0.64380591631446
