16
Coordinates from ORCA-job run
  C   0.86025847351487      0.19133712709751     -0.12698601944866
  C   -0.62349240113863     -0.06146208558394     -0.49675040274872
  Cl  1.88649751132473     -0.62555168714742     -1.31901266114006
  H   -0.76912588214768      0.29461152648502     -1.52096596053004
  N   1.05791883291262      1.71456345419638     -0.30659832218239
  O   1.30189647364569      2.36372734907221      0.70130108175481
  O   0.87991227032124      2.14754456595638     -1.43684189694132
  N   1.29822285550702     -0.14923268476018      1.17195400113212
  H   1.28136219121309     -1.14701461135574      1.32606897291951
  H   0.79767324142862      0.35570999942023      1.89192306501725
  C   -1.44634926691635      0.75364252328987      0.39950150752065
  N   -2.08535437338431      1.37982580193474      1.16083230899502
  C   -1.02674624188516     -1.53211163060286     -0.38125814490681
  H   -0.91917241221145     -1.88687101266339      0.64525233207849
  H   -2.07356132989838     -1.64604404122630     -0.66635496505767
  H   -0.41993994228592     -2.14967459411249     -1.04306489646220
