16
Coordinates from ORCA-job run
  C   0.88247484806393      0.23818675782708     -0.38387026669904
  C   -0.56132246350944     -0.29554607539796     -0.58936266118405
  Cl  1.49591090103927      0.78257219102840     -1.94655389163281
  H   -0.45383303828204     -1.09292980044776     -1.33469720242730
  N   0.77709743964183      1.43578616849881      0.57535202500785
  O   0.57187473128372      2.54481891738030      0.10893984687635
  O   0.83664752275045      1.13922523844844      1.76647368241634
  N   1.82312449764480     -0.65813948048534      0.19212268242449
  H   1.56580582315235     -0.91457382773767      1.13497864525123
  H   1.96535135410407     -1.46941052003310     -0.39389710088612
  C   -1.43665714993939      0.72545626727826     -1.16737764596715
  N   -2.18895071801654      1.51601091702139     -1.60113999242536
  C   -1.19521561534637     -0.87439336316436      0.67903946087258
  H   -2.16653132597602     -1.30371769493826      0.42866275538696
  H   -0.57269891314399     -1.66844240841033      1.09328209271277
  H   -1.34507789346663     -0.10790328686798      1.43904757027325
