14

C	0.0	0.0	0.0
C	-0.519996	0.045115	-1.481741
Br	1.957088	0.0	0.0
H	-1.57853	-0.240739	-1.373605
C	-0.425629	1.187957	0.736042
N	-0.576988	2.205827	1.305483
C	-0.387584	-1.242286	0.670857
N	-0.571669	-2.264494	1.221728
C	0.175311	-0.956309	-2.293205
N	0.698651	-1.769528	-2.961126
N	-0.480364	1.345036	-2.097249
H	0.39858	1.817753	-1.926199
H	-1.243549	1.892055	-1.715922
Cl	-3.223384	0.0	0.0
