14

C	-0.485939	-0.337642	-1.390049
C	0.0	0.0	0.0
F	-0.097346	0.767935	-2.182367
H	1.092891	0.0	0.0
H	-0.385532	0.981242	0.278136
C	0.175694	-1.505033	-2.007811
N	0.638574	-2.397431	-2.612246
N	-1.895144	-0.525888	-1.458357
H	-2.193333	-0.645641	-2.419206
H	-2.356782	0.280255	-1.056922
N	-0.479501	-0.961497	0.98775
O	-0.426024	-2.158579	0.703299
O	-0.856087	-0.526377	2.080409
F	2.510312	0.0	0.0
