17
Coordinates from ORCA-job run
  C   -0.65649828403987     -0.17705278902173      0.22016812080738
  C   0.69164301519445      0.49846210674688     -0.07652703675925
  F   -0.44048197766077     -1.06969459963572      1.28044208572308
  H   0.55205309338914      1.33641051294099     -0.75840515532054
  C   -1.11292972500500     -0.99666425827594     -0.97049773545685
  H   -2.10366780714786     -1.39971257825741     -0.75078474284856
  H   -1.16955963907155     -0.38621833274807     -1.87200487153167
  H   -0.44058595281711     -1.83755650928450     -1.13648106618589
  N   -1.60944522451753      0.82394331235986      0.53206688105424
  H   -1.37728111515519      1.27841170890348      1.40542349715438
  H   -2.53554502181840      0.42124781885842      0.59249965855665
  N   1.62471956729035     -0.46106613960136     -0.74069791108668
  O   1.81295675935815     -0.27507159835634     -1.94087739507614
  O   2.06945983389426     -1.37285912757917     -0.05516969024058
  N   1.39413947699449      1.04787243901081      1.14008835182519
  O   0.68929731921903      1.43247115016601      2.06589608224106
  O   2.61172568189343      1.13807688377379      1.06686092714418
