17
Coordinates from ORCA-job run
  C   -0.62577955405068     -0.37898560012191      0.34801256154591
  C   0.82328150314066      0.09630866123999      0.54089665598566
  F   -0.68708579677559     -1.57355328407401      1.05322481019601
  H   1.09957113294145     -0.03332765333111      1.58455581541871
  C   -1.02458493801522     -0.67563870126904     -1.08003809187892
  H   -0.41331817981257     -1.47935614141040     -1.49356576741544
  H   -0.92232612115895      0.21023603493635     -1.70467427972238
  H   -2.06608879779772     -1.00250893252115     -1.07840599147748
  N   -1.44841765135892      0.55757714796521      1.07845958442864
  H   -2.23294933195072      0.04795726375091      1.46692737467367
  H   -1.79424256525757      1.28303833264613      0.46361600285007
  N   1.03429741811136      1.53396893705891      0.19637780891446
  O   2.02904259647090      2.04495849495478      0.70047843789823
  O   0.24253976432352      2.07972331901750     -0.56629352781057
  N   1.77937301707456     -0.69787000198206     -0.29564568154004
  O   2.14709399930869     -1.76078505311488      0.19071442928211
  O   2.06059350480680     -0.25174282374523     -1.40364014134862
