17
Coordinates from ORCA-job run
  C   -0.66583844029071     -0.45929339423828      0.33559931564251
  C   0.79802750904220      0.03245821149121      0.48596235169827
  F   -0.67867304866650     -1.64142729663666      1.06636261792888
  H   1.11757363800328     -0.11317839927846      1.51869990877160
  C   -1.10442252939563     -0.75620699594243     -1.07905174178430
  H   -0.99526680920187      0.11858355539604     -1.71960291435881
  H   -0.51955331781985     -1.57821437712103     -1.48613575896686
  H   -2.15196020022661     -1.05644365655550     -1.03974370877866
  N   -1.57513736038432      0.43763186708142      0.96625175474293
  H   -1.87800952836547      1.18567278294847      0.36031818508613
  H   -1.25082309883675      0.79876120175247      1.85364026164436
  N   0.88138147144154      1.49191324364836      0.20040363282741
  O   1.18407006847769      2.21734132430957      1.14491966687989
  O   0.59446792814032      1.85270444827318     -0.93643431078372
  N   1.82217259661231     -0.66758911318639     -0.37155426321731
  O   1.68034643433587     -1.87719241552040     -0.49285218492713
  O   2.74164468713450      0.01447901357843     -0.80778281240519
