17
Coordinates from ORCA-job run
  C   -0.50433023550191     -0.61124502800643      0.01312115457564
  C   0.91702550327644     -0.05147061726680     -0.15377139731720
  F   -0.33631851642498     -1.99200604814465     -0.00837341657835
  H   1.43861450355534     -0.57780076228361     -0.95025931887010
  C   -1.37394337327632     -0.27439388508430     -1.18695087198740
  H   -1.63212281631349      0.78359750528935     -1.20185786401660
  H   -2.29191400917117     -0.86060434808573     -1.10696405086494
  H   -0.88038421240596     -0.54658272749454     -2.12336295341673
  N   -1.01011733661894     -0.28126207091549      1.30710929468772
  H   -1.94601370366043     -0.65250733637617      1.41686773859445
  H   -1.02797483139263      0.72266062352947      1.43663582386765
  N   1.71779216769068     -0.25812364277618      1.10505002898079
  O   2.19256863966644     -1.37760101266668      1.23035825831469
  O   1.79902489317902      0.68133799925752      1.88479494504440
  N   0.95724613652983      1.40407722394179     -0.47820368035116
  O   1.88212502207759      1.76251323969319     -1.20302335429568
  O   0.09972216879048      2.13041088738926      0.01882966363282
