17

C	0.0	0.0	0.0
C	-0.447928	0.112175	-1.4464
F	1.415983	0.0	0.0
H	-0.179893	1.118521	-1.808012
H	-1.538578	0.031256	-1.444186
C	-0.4632	1.199153	0.796757
H	-0.06512	2.121102	0.362016
H	-0.110003	1.121605	1.82899
H	-1.555696	1.228431	0.788538
C	-0.453193	-1.300828	0.624484
H	-0.043311	-1.387192	1.635279
H	-1.544663	-1.30723	0.669841
H	-0.108081	-2.138814	0.018333
N	0.131532	-0.96197	-2.256793
H	-0.300612	-0.955398	-3.171819
H	1.119376	-0.77603	-2.376652
Cl	-3.94249	0.0	0.0
