17

C	0.0	0.0	0.0
C	-0.315208	-0.297696	-1.480697
F	1.4092	0.0	0.0
H	0.308975	0.399043	-2.054396
H	0.07593	-1.301746	-1.688196
C	-0.487484	1.367058	0.422358
H	-0.094791	1.615353	1.412739
H	-0.149192	2.128825	-0.286286
H	-1.579687	1.369282	0.464762
C	-0.49322	-1.081078	0.93274
H	-0.094623	-2.053374	0.628786
H	-1.586204	-1.109478	0.908816
H	-0.17146	-0.876718	1.958082
N	-1.67365	-0.209504	-1.968544
H	-2.039234	0.723953	-1.828604
H	-2.311346	-0.78686	-1.430237
Cl	-4.266798	0.0	0.0
