17

C	0.0	0.0	0.0
C	-0.438039	-0.00686	-1.460824
F	1.413901	0.0	0.0
H	-1.529376	0.053655	-1.480297
H	-0.036138	0.900416	-1.927278
C	-0.459111	1.269007	0.683857
H	-0.07232	1.306605	1.706417
H	-1.551575	1.284055	0.70418
H	-0.089545	2.144165	0.141273
C	-0.457373	-1.230454	0.751259
H	-0.098983	-1.190995	1.783637
H	-0.059006	-2.136262	0.287896
H	-1.550145	-1.258544	0.745758
N	0.002946	-1.158998	-2.248257
H	-0.567456	-1.960021	-2.007916
H	0.958437	-1.37606	-1.987808
Cl	-3.899912	0.0	0.0
