17

C	-0.474566	-0.014643	-1.455887
C	0.0	0.0	0.0
F	-0.019789	1.15085	-2.071601
H	1.09626	0.0	0.0
C	0.112389	-1.156434	-2.191137
N	0.459787	-2.074896	-2.835266
C	-1.985986	-0.046814	-1.631754
H	-2.403064	-0.952668	-1.18926
H	-2.232573	-0.019061	-2.695706
H	-2.422766	0.827021	-1.145334
C	-0.482671	-1.19287	0.671578
N	-0.883545	-2.15496	1.218256
C	-0.407997	1.267627	0.749257
H	-1.480856	1.33853	0.951362
H	-0.082213	2.135427	0.174465
H	0.133288	1.282422	1.698434
H	2.696442	0.0	0.0
