17

C	-0.361668	-0.026556	-1.479646
C	0.0	0.0	0.0
F	-1.75682	-0.136087	-1.657564
H	1.096965	0.0	0.0
C	0.012261	1.257888	-2.10907
N	0.247493	2.296459	-2.60464
C	0.322714	-1.17864	-2.187303
H	1.398363	-1.101075	-1.989715
H	0.119874	-1.145203	-3.259225
H	-0.05219	-2.119066	-1.777555
C	-0.469883	-1.225179	0.625806
N	-0.836721	-2.207396	1.159006
C	-0.498423	1.231748	0.749436
H	-0.221475	1.150524	1.802894
H	-1.582727	1.348384	0.674392
H	-0.008342	2.121087	0.348397
H	2.713167	0.0	0.0
