17

C	-0.360901	-0.024207	-1.479397
C	0.0	0.0	0.0
F	-1.755089	-0.141146	-1.659064
H	1.096822	0.0	0.0
C	0.004254	1.26305	-2.105506
N	0.235197	2.2957	-2.614657
C	0.332768	-1.167611	-2.188727
H	1.406362	-1.084686	-1.983857
H	-0.038389	-2.111045	-1.78356
H	0.13491	-1.131353	-3.262082
C	-0.470322	-1.22624	0.623366
N	-0.839115	-2.209667	1.15299
C	-0.496701	1.231293	0.751046
H	-1.579814	1.356525	0.667929
H	-0.228399	1.14281	1.805994
H	0.003656	2.119164	0.357631
H	2.712286	0.0	0.0
