15
Coordinates from ORCA-job run
  C   0.95250332570273      0.22315010628538     -0.17365493021176
  C   -0.37130872472535     -0.02104544798735     -0.09870648782460
  C   1.68361697577826      0.97900359095794      0.79210945196158
  N   2.24807894686425      1.62335190652837      1.59804300052719
  N   1.80009615280263     -0.33553714673074     -1.24249194407366
  O   2.92310190141301     -0.70186067309492     -0.90742658068013
  O   1.32654752218252     -0.39089996342097     -2.37394721779185
  C   -1.12869404788908     -0.85142500263371     -1.09328552126792
  H   -2.01268947396471     -1.27563478517374     -0.61341975732296
  H   -0.53331702795705     -1.65492198765413     -1.52395756324467
  H   -1.46298422194895     -0.22182837901916     -1.92323865453853
  C   -1.18276646313841      0.55487152754008      1.02250545188635
  H   -0.61336575190591      1.22144863191537      1.66938447634941
  H   -1.59671674249738     -0.25610172273230      1.62965230184923
  H   -2.03210237071656      1.10642934521987      0.60743397438234
