15
Coordinates from ORCA-job run
  C   0.95925750464324      0.08325597928802     -0.34476667709932
  C   -0.34521812018787     -0.12062519010267     -0.07224078430291
  C   2.00997430711418     -0.78821350809693      0.07358470131281
  N   2.84916783318908     -1.53737551420889      0.41664881747374
  N   1.44220058913861      1.28002769805163     -1.05643193850615
  O   2.50322153361547      1.75466475287341     -0.66001546275590
  O   0.75866494426054      1.70580192009327     -1.98337897659602
  C   -1.44497532056811      0.81524146467347     -0.47983506315373
  H   -2.28535940507827      0.70966749137148      0.20906600992120
  H   -1.79454919841055      0.55589266974924     -1.48373970766330
  H   -1.13340643555696      1.85786990098659     -0.51151547513811
  C   -0.77695869225318     -1.34886906127992      0.67150027807036
  H   0.03705297320978     -2.04782511251076      0.86110868869821
  H   -1.22082815788976     -1.05915012430880      1.62934159292915
  H   -1.55824435522620     -1.86036336657915      0.10067399680998
