15
Coordinates from ORCA-job run
  C   0.90436121533672      0.37025911086471     -0.17930803521018
  C   -0.35669740950602     -0.09694554496872     -0.08519626416914
  C   1.48544027405230      1.29897391844438      0.73634465754986
  N   1.94112309678767      2.04976288277138      1.51848330183234
  N   1.79998988994106      0.01284163713210     -1.29439442654227
  O   1.75808067919436     -1.14145018976042     -1.71074084436804
  O   2.52394661340346      0.91046810667458     -1.71654723306053
  C   -1.23011870117825      0.31670068809238      1.06124079190599
  H   -1.63558904819530     -0.57610611505057      1.54709289781748
  H   -2.08331249916781      0.88885493238860      0.68315878486027
  H   -0.70934512407767      0.91816177769717      1.80560299839720
  C   -0.97706383015336     -1.04429286274703     -1.06958580850244
  H   -0.60486646645863     -0.91491874988190     -2.08446010210766
  H   -0.75571095949074     -2.07508619980315     -0.77681457971593
  H   -2.06123773048781     -0.91622339185351     -1.06387613868694
