15
Coordinates from ORCA-job run
  C   0.89472779501157      0.39146478530761     -0.11347857704910
  C   -0.35916927328025     -0.10256431551258     -0.11588397879873
  C   1.35126994269434      1.40424544504569      0.78353926743381
  N   1.69748637432833      2.23108457803479      1.54474133105425
  N   1.91391235882164     -0.02901162360151     -1.09124792471100
  O   1.97870937139217     -1.22387008541979     -1.36840702297320
  O   2.62084276447601      0.86368851150008     -1.55035075415343
  C   -1.36384168309612      0.38183301406524      0.88837975751226
  H   -2.15374715532788      0.93965967323465      0.37524149109690
  H   -0.93076567201983      1.02397942236715      1.65530455039537
  H   -1.83911858041595     -0.47811772409902      1.37055135501518
  C   -0.85031402278101     -1.13993105112081     -1.07955475187788
  H   -0.72413164894956     -2.13291325822006     -0.63723807996262
  H   -0.31719524380359     -1.14075755675877     -2.02874266741833
  H   -1.91666532704988     -0.98878981482266     -1.26285399556349
