15
Coordinates from ORCA-job run
  C   0.91387725082779      0.34037097959969     -0.09886691290106
  C   -0.36626177214731     -0.08074902535460     -0.11662837818064
  C   1.49578366768695      1.09724381919229      0.96208889200725
  N   1.93838562760809      1.73891744800989      1.84288194967416
  N   1.86889146347844     -0.00663568158081     -1.16565212431374
  O   1.46123836926918      0.03023250181634     -2.32382767630700
  O   3.00341557909030     -0.30698812754870     -0.80406625744855
  C   -1.29705476212107      0.28558420569063      1.00005920632389
  H   -2.19476026354069      0.75168994008301      0.58174558822930
  H   -0.85402423262851      0.96755343796413      1.72533184044388
  H   -1.62280373916941     -0.61980660793909      1.52196989771524
  C   -0.96094566074945     -0.90188855274335     -1.22242644418158
  H   -1.35218512576682     -0.23910033894974     -1.99986490363090
  H   -0.24211966283515     -1.56529509317173     -1.70045241020424
  H   -1.79143673900234     -1.49312890506796     -0.83229226722601
