15
Coordinates from ORCA-job run
  C   0.93846291775874      0.27383500195671     -0.15536193701434
  C   -0.36640837298211     -0.05971500092949     -0.09504319007389
  C   1.59026579722320      1.12928754582501      0.78385839816778
  N   2.10019627648488      1.82171033927893      1.58617946424998
  N   1.81881350773677     -0.16640996110055     -1.25250035283336
  O   1.66591860850763     -1.30606590517588     -1.68303948412241
  O   2.64371279745656      0.65342297988907     -1.64677769171188
  C   -1.05908234326924     -0.92821498711112     -1.10351053369754
  H   -0.64941703298837     -0.83210788098416     -2.10754040331246
  H   -2.12315915210666     -0.68493825913220     -1.12273880487179
  H   -0.95678998380253     -1.97899728075236     -0.81625385434231
  C   -1.21877678554957      0.43293367385219      1.03586229139504
  H   -1.72058845384738     -0.41758263859151      1.50764226432438
  H   -0.65745880660276      0.97728116212679      1.79471762202085
  H   -2.00368897401916      1.08756121084858      0.64350621182194
