15
Coordinates from ORCA-job run
  C   0.95964845232907      0.17203454919834     -0.10266133395759
  C   -0.37638870071846     -0.00706100434671     -0.12388863368236
  C   1.65788479604622      0.86679816094380      0.93103477294757
  N   2.19922285418014      1.46168600486500      1.78909032553449
  N   1.85181002112665     -0.39786172190242     -1.12832278481236
  O   2.93067907300299     -0.82759674322743     -0.72906688248968
  O   1.45637918778226     -0.39793954679113     -2.29072804190049
  C   -1.10510177488137     -0.76878645744923     -1.19155400486811
  H   -2.03553308529174     -1.16761494060995     -0.78285536204910
  H   -0.51968908887819     -1.58283169249920     -1.61548944561953
  H   -1.35821582887084     -0.09474035998612     -2.01553430957383
  C   -1.23309091420797      0.58152883724690      0.95680269031751
  H   -0.67849757216456      1.20773312739469      1.65495747968846
  H   -2.02963477224156      1.17789705557291      0.50093244669928
  H   -1.71947264721261     -0.22324526840945      1.51728308376574
