15
Coordinates from ORCA-job run
  C   0.96187267714401      0.16423926558228     -0.12606380688193
  C   -0.34632995518055     -0.15796268000326     -0.15799199781583
  C   2.01667841300660     -0.77060875451133      0.09701765702032
  N   2.86437356855963     -1.55928413578526      0.30418542009116
  N   1.44231909554719      1.53175582729222     -0.39694623937062
  O   0.79500297317610      2.46506339754740      0.06908491938123
  O   2.46396453545969      1.62143442149999     -1.07261268928709
  C   -0.78339794863470     -1.56898096796656      0.09993266905439
  H   0.03155916664931     -2.22214934502019      0.41079034475956
  H   -1.56032681501644     -1.57396990576105      0.87057733875088
  H   -1.23458406135694     -1.98120826619881     -0.80871967415270
  C   -1.44385296975824      0.82501604144593     -0.43810435937744
  H   -1.76231842068414      1.30037697326176      0.49448434075771
  H   -2.30348288238185      0.30280429803294     -0.86263745015356
  H   -1.14247737652967      1.62447383058395     -1.11299647277607
