15

C	-0.505554	0.008939	-1.438734
C	0.0	0.0	0.0
F	-1.921855	0.216103	-1.405122
H	1.091573	0.0	0.0
N	0.145547	0.940377	-2.264912
H	-0.32524	1.017314	-3.15663
H	0.229109	1.831113	-1.794213
C	-0.346036	-1.336203	-2.035843
N	-0.233008	-2.367705	-2.585809
C	-0.515712	-1.145423	0.720984
N	-0.891933	-2.110343	1.277031
N	-0.382575	1.239246	0.718892
O	-0.722791	1.149114	1.895445
O	-0.258559	2.310217	0.118125
F	2.421261	0.0	0.0
