15

C	-0.144724	-0.044486	-1.537399
C	0.0	0.0	0.0
F	-0.008478	1.304501	-1.962781
H	1.092749	0.0	0.0
N	0.886624	-0.880909	-1.976294
H	1.760152	-0.644385	-1.458631
H	0.98512	-0.883167	-2.98242
C	-1.466089	-0.458348	-2.05796
N	-2.510857	-0.788302	-2.483442
C	-0.566346	-1.162082	0.645338
N	-1.00452	-2.104163	1.194228
N	-0.631892	1.238618	0.533099
O	-1.859288	1.307601	0.453301
O	0.103828	2.103676	0.993164
F	2.568287	0.0	0.0
