15

C	-0.45255	-0.014259	-1.458724
C	0.0	0.0	0.0
F	0.162731	-1.111472	-2.037861
H	1.091506	0.0	0.0
N	-1.859901	-0.183504	-1.645293
H	-2.104135	-0.054739	-2.61906
H	-2.348316	0.50358	-1.081293
C	0.085351	1.187613	-2.154905
N	0.348114	2.198507	-2.692241
C	-0.492874	-1.159194	0.716682
N	-0.86419	-2.086547	1.338077
N	-0.453116	1.224079	0.732263
O	-1.471693	1.819446	0.326879
O	0.227093	1.562649	1.703106
F	2.453436	0.0	0.0
