15

C	-0.178697	0.166841	-1.535215
C	0.0	0.0	0.0
F	-1.378962	0.838264	-1.816681
H	1.092554	0.0	0.0
N	0.93034	0.884104	-2.026159
H	1.113291	0.68308	-2.999102
H	1.75718	0.694667	-1.428006
C	-0.333755	-1.162447	-2.185224
N	-0.362089	-2.193195	-2.749909
C	-0.640695	-1.170156	0.551463
N	-1.116019	-2.149785	0.993522
N	-0.483643	1.239128	0.674655
O	-1.43524	1.144257	1.45156
O	0.112072	2.275653	0.407813
F	2.545777	0.0	0.0
