15

C	0.0	0.0	0.0
C	-0.220268	-0.022161	-1.526123
F	1.34018	0.0	0.0
H	0.509204	0.697221	-1.892612
H	0.052878	-1.027702	-1.833361
N	-0.376409	1.307145	0.687207
O	-0.688837	1.330573	1.862276
O	-0.159497	2.27492	-0.035804
N	-0.379077	-1.275447	0.728917
O	-0.252785	-1.272212	1.945165
O	-0.58669	-2.250613	0.020539
N	-1.455329	0.315176	-2.298258
O	-1.956439	-0.60916	-2.929979
O	-1.736289	1.500735	-2.410009
Cl	-2.966688	0.0	0.0
