12

C	0.0	0.0	0.0
C	-0.53656	0.080418	-1.412963
Br	1.945641	0.0	0.0
H	-1.638017	0.055931	-1.333738
H	-0.330879	-0.924098	0.47263
H	-0.187504	0.963148	-1.946161
C	-0.414877	1.159648	0.785228
N	-0.601981	2.117414	1.439629
N	-0.115916	-1.100261	-2.206999
O	-0.061836	-2.185976	-1.633364
O	0.103764	-0.920635	-3.404619
Br	-3.570758	0.0	0.0
