11
Coordinates from ORCA-job run
  C   -0.87145992694433     -0.78531348290741      0.05799265805969
  C   0.23532675897484     -0.00899599983592     -0.06027828170879
  H   -0.78481954389398     -1.86243168702013      0.04311664752570
  C   -2.13407260459954     -0.15767401148726      0.19219778199246
  N   -3.15507115131979      0.41972156545701      0.30771923701803
  N   1.55141150470067     -0.68614773182161     -0.16692478715101
  O   1.56249862174184     -1.90206502999831     -0.31461702200914
  O   2.54322281076651      0.03870320313697     -0.08354060246783
  N   0.32226853532038      1.33850542819489     -0.15392269887086
  H   1.22191499034860      1.73951897207725      0.05826770086656
  H   -0.49221999509520      1.86717877420451      0.11798936674517
