11
Coordinates from ORCA-job run
  C   -0.87775732412614     -0.77651824092260      0.07008756365591
  C   0.23871528190281     -0.01369354709986     -0.04289347062217
  H   -0.79587691857979     -1.85103121345765      0.15262639694395
  C   -2.14303935433990     -0.13984133829349      0.06839985654076
  N   -3.16664154762251      0.44446128685394      0.06927355182869
  N   1.55446283820570     -0.69855547341145     -0.00948294359010
  O   1.56757567638858     -1.92252264827313     -0.05835984914931
  O   2.54368019327491      0.02959930291597      0.07776784124885
  N   0.33967404946049      1.32066587483609     -0.24681077233560
  H   -0.48692954898182      1.87086193182221     -0.07025931981795
  H   1.22613665441766      1.73757406502996     -0.01034885470302
