11
Coordinates from ORCA-job run
  C   -0.92311168206778     -0.70808096834077     -0.15382158198600
  C   0.22098671314767      0.01957453296974     -0.10037583974150
  H   -0.94422723987316     -1.64796921341062     -0.68665047043789
  C   -2.08088727526439     -0.20982432730726      0.49223371699054
  N   -3.01061351583164      0.24884620631617      1.05285466670822
  N   1.42963065400689     -0.53777640302225     -0.75616224405453
  O   1.29600241198803     -1.53085526843400     -1.46053998464927
  O   2.48969991172088      0.04434816838956     -0.52567208787686
  N   0.42419174016617      1.24775096392106      0.43180188775805
  H   1.38111729916126      1.48563461036622      0.63984251387119
  H   -0.28078901715390      1.58835169855215      1.06748942341806
