11
Coordinates from ORCA-job run
  C   -0.89259159816199     -0.66836797463070     -0.36557177248804
  C   0.23702549321645     -0.03654166510039      0.04171647281536
  H   -0.83404951608309     -1.64027665764948     -0.83466604010526
  C   -2.14267442349356     -0.03522049178438     -0.15849260663450
  N   -3.15335726910291      0.54044302601446      0.03181175083797
  N   1.53728445413556     -0.70366755468534     -0.21535351465642
  O   1.52090837811249     -1.86293989501532     -0.61088454633212
  O   2.54472177297138     -0.02353804753768     -0.01916394040828
  N   0.36301181888052      1.12730242662398      0.72194736380354
  H   1.26488594985529      1.57361037907399      0.66694620927594
  H   -0.44516506033014      1.73019645469087      0.74271062389181
