11
Coordinates from ORCA-job run
  C   -1.15209848917805      0.09604613869113     -0.04499495431892
  C   0.18395670322384      0.29407127264418      0.07810875516224
  H   -1.78326314119766      0.98058591676583     -0.05769161540648
  C   -1.81681188290756     -1.14866661066540     -0.17322923669534
  N   -2.46819712919287     -2.12166339164778     -0.30134674720937
  N   1.13106939636581     -0.84630503576304      0.08215622769133
  O   0.69073224690800     -1.95828189590486      0.34608141019695
  O   2.30200696276948     -0.57653356247621     -0.18872687912093
  N   0.82135988540022      1.48384750139139      0.25927049312416
  H   0.29968464318528      2.31063419242042      0.01740900154452
  H   1.79156080462350      1.48726547454435     -0.01703645496816
