11
Coordinates from ORCA-job run
  C   -1.13398534303867      0.05289166203693      0.18944044567549
  C   0.19162925108206      0.29422391617797      0.02490018174048
  H   -1.73210245834513      0.87902566844154      0.56679233112030
  C   -1.84497728888194     -1.14302675309207     -0.08280938019739
  N   -2.54785668286150     -2.07166899142214     -0.26169794803937
  N   1.11101412896529     -0.75567090221125     -0.48940288311817
  O   0.61537128034940     -1.74889960798093     -1.00582066129773
  O   2.31576049603335     -0.53480385243420     -0.36039953120693
  N   0.82710760797696      1.47902584346506      0.23867353578126
  H   1.82865389539823      1.41230874159206      0.33102845024959
  H   0.36838511332195      2.13559427542703      0.84829545929248
