11
Coordinates from ORCA-job run
  C   -1.14711550371107      0.07353148074056     -0.13203139506571
  C   0.18792196227056      0.29765350504870     -0.04988650217138
  H   -1.79026636120802      0.94536921176753     -0.21714651319588
  C   -1.79979990897530     -1.18380524922884     -0.10423880713621
  N   -2.44428298045314     -2.16935792722086     -0.07396811104668
  N   1.14657555613988     -0.82418767581922      0.09312714940633
  O   2.25680325083633     -0.53190941888046      0.53931737246808
  O   0.77288862424183     -1.94424852343992     -0.23225435331894
  N   0.82256434407300      1.49961292304442     -0.13424694933714
  H   1.73890092163510      1.52179651516080      0.28705376503739
  H   0.25481009515083      2.31654515882729      0.02227434436015
