11
Coordinates from ORCA-job run
  C   -1.15238357442798      0.06462498198327      0.08377513483053
  C   0.17521195064750      0.30550260672377     -0.05221917086334
  H   -1.80150208913302      0.92713351557940      0.20891824136093
  C   -1.78715432354089     -1.20216997084133      0.09732728477312
  N   -2.41352591892095     -2.19876047328079      0.14139154708069
  N   1.14460553787734     -0.80654454944364     -0.20205608331965
  O   0.71989995351530     -1.89294169361388     -0.57522867913522
  O   2.31581375549611     -0.54203417112111      0.07260125572180
  N   0.78431691132538      1.52157461904305     -0.12271568552314
  H   0.25390321218914      2.30678934893553      0.21847038715762
  H   1.76081458497207      1.51682578603574      0.13073576791665
