11
Coordinates from ORCA-job run
  C   -1.14908786799174      0.02246020642596      0.13502492799274
  C   0.18582554704281      0.26129142247944      0.15320285093958
  H   -1.79679118168200      0.80937911313799      0.51221409869962
  C   -1.79560344167463     -1.14507680874484     -0.34079302331189
  N   -2.43432042750001     -2.05847767288897     -0.72189867396040
  N   1.15113619770018     -0.73881960429510     -0.36232117199996
  O   0.77892611914161     -1.90195470883270     -0.45519484013355
  O   2.26500164394220     -0.30830330267941     -0.66419657356482
  N   0.81415799574589      1.35719820850396      0.66164111976412
  H   1.73560560848261      1.52521722633120      0.28720849254968
  H   0.24514980679309      2.17708592056248      0.79611279302488
