11
Coordinates from ORCA-job run
  C   -0.85741501603963     -0.75518561625500     -0.27364847920666
  C   0.23610065053339      0.01815893425468     -0.05567927660858
  H   -0.75107341815979     -1.73811188282235     -0.71013270561982
  C   -2.13260079807341     -0.24554964532317      0.07357512111858
  N   -3.16331799599914      0.23073750440236      0.38951143102393
  N   1.56570551557424     -0.54736929971321     -0.39213336238595
  O   2.54249414988583      0.08606588711797      0.00892819912166
  O   1.60158641227222     -1.59693303241799     -1.02303692226103
  N   0.29986162747152      1.29549649352207      0.38824401954034
  H   -0.52858728896459      1.66593839631439      0.82796828086437
  H   1.18724616149937      1.58575226092025      0.76740369441315
