11
Coordinates from ORCA-job run
  C   -0.93273994953337     -0.47076441968991     -0.53744447986046
  C   0.23706491081024     -0.05219198474380      0.00847113345450
  H   -0.93030348063927     -1.18929704892843     -1.34476682594033
  C   -2.14767684301234      0.04743491290973     -0.02584446851830
  N   -3.12322165303189      0.51974310328719      0.43702059707268
  N   1.49976756307540     -0.58029800073825     -0.56504188177821
  O   1.42499993967450     -1.49702125023507     -1.37407950077218
  O   2.53777789047128     -0.03849275611438     -0.18417579746567
  N   0.43623563270595      0.76215970917978      1.07090967448896
  H   1.34840713571583      1.18457369201374      1.14019701091668
  H   -0.35031114623634      1.31515404305939      1.37475453840234
