11
Coordinates from ORCA-job run
  C   -0.92045042926656     -0.57105537544900     -0.45149331320456
  C   0.23165714013743      0.03370449818136     -0.06677180044519
  H   -0.90822707681320     -1.31530276587843     -1.23513383498768
  C   -2.13102305941414     -0.20647731345996      0.18695150473919
  N   -3.10717711131950      0.12863933374885      0.75623003818496
  N   1.49254558290606     -0.39171916529623     -0.72395172872677
  O   1.41274738360632     -1.12543280447581     -1.70150198541758
  O   2.53529659011032      0.02487255881449     -0.21881209826548
  N   0.40914402439154      1.04162569134601      0.81917188580759
  H   1.34137654536138      1.14711086593041      1.18696959408413
  H   -0.35588958969964      1.23403447653829      1.44734173823139
