11
Coordinates from ORCA-job run
  C   -0.83653520510018     -0.82391516469414      0.00477684430144
  C   0.24211210433641     -0.00067482845129      0.01731593354598
  H   -0.70524431497681     -1.89078003412831     -0.10906704562957
  C   -2.12797459697954     -0.26151329183834      0.15339176615245
  N   -3.17653111624349      0.26271909088905      0.27512821128259
  N   1.58263216964001     -0.60905843154617     -0.17059408381294
  O   1.66860262869603     -1.83066176791300     -0.14492970556273
  O   2.51398238765686      0.17535330709113     -0.35294464166915
  N   0.29164114010538      1.33374307939747      0.23883301880501
  H   -0.57754723221448      1.83983637062532      0.16825655927914
  H   1.12386203507983      1.80395167056827     -0.08016685669223
