11
Coordinates from ORCA-job run
  C   -0.87096381305763     -0.69542178972384     -0.36756056224432
  C   0.24125077570511      0.00358689062885     -0.02794243165993
  H   -0.78149129448708     -1.68319699419345     -0.79712845476510
  C   -2.14117373051024     -0.10536387038789     -0.15670452783323
  N   -3.17112192169912      0.43036688175694      0.04687301825734
  N   1.55942185749701     -0.64866656447270     -0.22812172376451
  O   1.59131838596683     -1.70166724244988     -0.85313169307835
  O   2.52948633210828     -0.07613967199118      0.26891017002942
  N   0.34212013389571      1.27355574795347      0.42982856870650
  H   -0.50186376109946      1.69647708752646      0.78443908814436
  H   1.20301703568059      1.50546952535321      0.89953854820783
