11
Coordinates from ORCA-job run
  C   -0.91464412719307     -0.73444729808497     -0.15050526246174
  C   0.23815569173574     -0.02579068430817     -0.02879876276934
  H   -0.88908929387873     -1.80270677188016     -0.31631892439462
  C   -2.14206590559588     -0.03867736456540     -0.02105269906358
  N   -3.12138584909678      0.60983024660525      0.08512180256124
  N   1.52199150763476     -0.74885973402625     -0.15328320178613
  O   1.48371639707251     -1.94201605917290     -0.43046253356182
  O   2.54408553049233     -0.08506699493265      0.02855354749959
  N   0.38708714738532      1.30825106963479      0.13216368475081
  H   -0.41138932638371      1.84051338353184      0.44000081634396
  H   1.30353822782750      1.61997020719862      0.41458153288162
