11
Coordinates from ORCA-job run
  C   -1.10169311178848     -0.01861538752252      0.35140378941866
  C   0.17210871717939      0.31093966915405      0.02327534386692
  H   -1.66997845934993      0.71431858280378      0.91869779964418
  C   -1.76956635801924     -1.23386233204065      0.06203801311424
  N   -2.41487407315451     -2.20408012894211     -0.11135508967883
  N   1.03789495076073     -0.63093006742592     -0.72926718743443
  O   2.24930223371435     -0.41754594637233     -0.66765380326024
  O   0.49688882360161     -1.53888430483683     -1.34800183445819
  N   0.79864598335197      1.49661237486869      0.26080194612095
  H   1.80635957984230      1.44483113278472      0.26181928090391
  H   0.39491171386180      2.07721640752912      0.97824174176284
