11
Coordinates from ORCA-job run
  C   -0.92846710618213     -0.68516282902372     -0.21506943446648
  C   0.24168728424039     -0.02702353851695     -0.01745198630261
  H   -0.94639654749187     -1.60378535007916     -0.78415310448041
  C   -2.11593177486102     -0.15048630050365      0.34198579879932
  N   -3.07244990919066      0.34460194002553      0.82077609629702
  N   1.46611954346063     -0.58422530713316     -0.64343867008785
  O   1.39801809491802     -1.69785507157751     -1.14910906344727
  O   2.46610317325885      0.13364631385935     -0.61491249322997
  N   0.48234980761128      1.07365847388782      0.73266873363134
  H   1.32826552394159      1.57763368997977      0.51899855106123
  H   -0.31929808970509      1.61899797908167      1.00970557222566
