11
Coordinates from ORCA-job run
  C   -1.15406153959200     -0.03345409660586      0.07501204178648
  C   0.14872710068514      0.31661097366538     -0.06422278718085
  H   -1.87713055571298      0.77373230216095      0.15585774092260
  C   -1.67646489573763     -1.34885784566778      0.14143025022615
  N   -2.21529238474855     -2.39296794406884      0.22490067785353
  N   1.21309597185435     -0.71090377760490     -0.15914333077138
  O   2.35519450683285     -0.33082601296311      0.10221179946767
  O   0.88782931092781     -1.84705671295717     -0.48070080809716
  N   0.64877533916863      1.57763456622450     -0.18464616757741
  H   1.62031409023099      1.67033302490976      0.07061241567073
  H   0.04801305609139      2.32675552290707      0.11868816769965
