11
Coordinates from ORCA-job run
  C   -0.93513413224663     -0.45218906026698     -0.54741363322851
  C   0.23907611608474     -0.04560779074974     -0.00208135585936
  H   -0.93796673207790     -1.10051073627887     -1.41214812371353
  C   -2.14797584567374     -0.01833885243437      0.04164196657765
  N   -3.12427148399797      0.38014341353759      0.56819415088799
  N   1.49728330559950     -0.48103967469044     -0.65717492404485
  O   2.53020964546986      0.06164786815432     -0.26433256818962
  O   1.42291595720294     -1.32591872050580     -1.54096021798382
  N   0.44910463186798      0.67956185223834      1.12124813820746
  H   1.34932023852988      1.12613359204121      1.19711573379733
  H   -0.34356170075867      1.17711810895473      1.49691083354925
