11
Coordinates from ORCA-job run
  C   -0.94267050595553     -0.68872555214516     -0.13298709989070
  C   0.23835833844570     -0.03800428680795      0.01937670032875
  H   -0.95555100484350     -1.73353911504146     -0.40894644529015
  C   -2.14689488558161      0.02261400753310      0.08975065622347
  N   -3.11392145196172      0.66808577252336      0.28353934604502
  N   1.48742038534714     -0.79431266198634     -0.24582695642441
  O   2.52579633048971     -0.13360574218126     -0.27957369657260
  O   1.40134648720293     -2.00326838953674     -0.42423147920192
  N   0.46406314616300      1.22710605571390      0.44367698850545
  H   -0.32370619883372      1.85649019972811      0.43896104644123
  H   1.36475935952762      1.61615971220044      0.21426093983587
