11
Coordinates from ORCA-job run
  C   -0.97732361954805     -0.54565818968339     -0.35158748565318
  C   0.23382910602432     -0.00443543945478     -0.06659164489382
  H   -1.04747406148401     -1.41761911095803     -0.98631055649075
  C   -2.14026458558132      0.05858749987040      0.18585062166865
  N   -3.07350433958629      0.59760955109004      0.66284164325882
  N   1.43938439795100     -0.67186825632344     -0.61673568317675
  O   2.52237895532392     -0.28797697866412     -0.17420952079255
  O   1.27836000494364     -1.55321782347319     -1.45224903012035
  N   0.52079510926375      1.12427829239950      0.62349975473624
  H   1.46085946900250      1.19553919593703      0.97957753589556
  H   -0.21604043630946      1.50676125926000      1.19591436556815
