11
Coordinates from ORCA-job run
  C   -0.87362781606495     -0.64820202094164     -0.44290750457454
  C   0.24312784607775     -0.00598807383754     -0.01624100397197
  H   -0.80010718034628     -1.62743368051521     -0.89409763316669
  C   -2.12863654854408     -0.00993365814869     -0.28858433013302
  N   -3.14397776941371      0.56599493283704     -0.12592943662562
  N   1.54287815814274     -0.70946876644134     -0.14830821886032
  O   2.50139997567361     -0.19109121079377      0.42491552257740
  O   1.57134502596906     -1.74931499981797     -0.79515241317053
  N   0.36547718874269      1.24577660707523      0.48396754000000
  H   -0.48186745379186      1.69815128064570      0.79075788932523
  H   1.20298857355503      1.43150958993817      1.01257958860007
