11
Coordinates from ORCA-job run
  C   -1.15758540239805      0.02424621501089      0.01710094936831
  C   0.16702394127570      0.31426957373307     -0.00892814169607
  H   -1.84214716005719      0.85020297694003      0.19034240071870
  C   -1.74736571239504     -1.25473959685536     -0.14017522071184
  N   -2.33789511164790     -2.26965521686192     -0.23445813880998
  N   1.18015279794396     -0.74764592328761     -0.21742377989037
  O   2.32395717222670     -0.48310059886386      0.15521752813529
  O   0.81495069309360     -1.79712511309182     -0.73239767451892
  N   0.73774038115392      1.54685465432065      0.09035869785798
  H   1.69816844778779      1.54035125629708      0.39938892465103
  H   0.16299995301650      2.27534177265884      0.48197445489588
