11
Coordinates from ORCA-job run
  C   -1.12653341412868     -0.01714553070144      0.26378419430892
  C   0.16832601194459      0.31170071197423      0.03042034229317
  H   -1.74270210382119      0.72568661105193      0.76325375973595
  C   -1.76298521356637     -1.24072322434612     -0.06100544141657
  N   -2.38448214668355     -2.21943318860737     -0.26944596132374
  N   1.09676254871799     -0.64285571267270     -0.62180004344310
  O   0.61324803448297     -1.56196304045675     -1.27098591096779
  O   2.29781099604827     -0.43118567251256     -0.44904283178408
  N   0.76883971948268      1.50624012933298      0.28933824606350
  H   1.77233834427548      1.46083340043985      0.38215874096620
  H   0.30037722324781      2.10884551649796      0.94632490556754
