11
Coordinates from ORCA-job run
  C   -0.96238913258774     -0.59475467101974     -0.31464172450952
  C   0.23894984819774     -0.02842741621815     -0.03626594894463
  H   -1.03846704516418     -1.36762501786673     -1.06630408825030
  C   -2.10414356939765     -0.16071388904954      0.40250906527233
  N   -3.01887702835690      0.24534848434530      1.02504038648802
  N   1.41613309721733     -0.47368000319448     -0.82203776474383
  O   2.44252184414652      0.19295978760705     -0.68746314912018
  O   1.28597098746663     -1.45018342920038     -1.55019525091684
  N   0.55113794189665      0.87553810847827      0.92184432882895
  H   1.40592064534675      1.39035745236779      0.78134600986209
  H   -0.21775758876516      1.37118059375061      1.34616813603392
