11
Coordinates from ORCA-job run
  C   -1.15481634115852      0.00594874591647      0.07552721533268
  C   0.15963571022309      0.31223662380275     -0.05787752108027
  H   -1.84825904349148      0.83690909051630      0.17356781547142
  C   -1.72316648112636     -1.29130364357362      0.11772368728050
  N   -2.29625817840376     -2.31847753990106      0.18094959705581
  N   1.18704656717758     -0.75024861095219     -0.17252714506820
  O   2.34121893497401     -0.41672012608709      0.09926433382794
  O   0.82259500364490     -1.86740483560129     -0.51785244991607
  N   0.70421890107982      1.55650897607918     -0.15735791471279
  H   1.67829816670346      1.61089134010746      0.09931659858291
  H   0.13048676037726      2.32165997969310      0.15826578322607
