11
Coordinates from ORCA-job run
  C   -0.97170767367347     -0.55793804026764     -0.34978616610350
  C   0.23857782601755     -0.04768076151551     -0.00920758986422
  H   -1.03719883746635     -1.40123564383846     -1.02230628385767
  C   -2.13835502633906      0.02502212997777      0.20274944053671
  N   -3.07320460235424      0.55390494006453      0.68797338998143
  N   1.44571892492912     -0.65335352340772     -0.62352105516580
  O   1.30869050305540     -1.69166343368304     -1.25886744821742
  O   2.50340907771794     -0.04612672034003     -0.45467432652593
  N   0.52919338883131      0.93014404513728      0.88122575266501
  H   -0.23552543518706      1.52017513902537      1.17131305956546
  H   1.43040185446888      1.36875186884745      0.77610122698592
