11
Coordinates from ORCA-job run
  C   -1.14716088700992      0.09093319855218     -0.12304626044149
  C   0.18201410568514      0.30285240348630      0.04374923210155
  H   -1.80816268786920      0.93644365386632      0.04769805290885
  C   -1.77299864547520     -1.12851422757246     -0.48165085233133
  N   -2.39586622357792     -2.08963099279456     -0.75699080368933
  N   1.16187836315514     -0.79394112326259     -0.14135151221234
  O   2.26036515519427     -0.63231468319617      0.39218666775991
  O   0.81553467038830     -1.77002972433847     -0.79524157884898
  N   0.79243973700859      1.48478039024419      0.33532690227635
  H   1.70450473826191      1.39278383137294      0.75673170684352
  H   0.20745167423889      2.20663727364232      0.72358844563330
