11
Coordinates from ORCA-job run
  C   -0.97655942796752     -0.50638331784178     -0.41053169553806
  C   0.23642202869619     -0.05725362598311     -0.00020638275740
  H   -1.04425978531163     -1.32252626463033     -1.11579002128014
  C   -2.14302402829947      0.10685001944874      0.10851350000169
  N   -3.07710661155591      0.65896245466204      0.56879368067308
  N   1.44529425238729     -0.69162705589965     -0.58157775164136
  O   2.51774713817086     -0.13524570711102     -0.34432284862648
  O   1.29607539605666     -1.70152221741340     -1.25856049124269
  N   0.52530216145075      0.87870669751584      0.93405398510555
  H   1.44811796519767      1.28066157653254      0.88622431039869
  H   -0.22700908882489      1.48937744072016      1.21340371490711
