11
Coordinates from ORCA-job run
  C   -0.94159418851780     -0.46440031201054     -0.52461000985973
  C   0.23452600047228      0.02808608708110     -0.06018859281493
  H   -0.95648151432316     -1.10705663623080     -1.39350199682111
  C   -2.14090420733862     -0.11410816511647      0.14249268775708
  N   -3.10468943067076      0.20482740918587      0.74119848777092
  N   1.48081090155506     -0.38017611503851     -0.75390478222553
  O   2.53628826548156     -0.08137299860488     -0.19462609881274
  O   1.37766469827928     -0.98894397420048     -1.81191071882429
  N   0.44997209938068      0.91134653854845      0.94259814141789
  H   1.38035118884868      0.92391860628207      1.32950004481552
  H   -0.31394381316718      1.06787956010418      1.58195283759694
