11
Coordinates from ORCA-job run
  C   -1.15507597987180      0.05969614192189     -0.03270143847057
  C   0.16547884596090      0.20042352541160      0.24224845557746
  H   -1.83597109578469      0.76154682085410      0.44142070481281
  C   -1.74592981842893     -0.90206187323799     -0.88910754360258
  N   -2.33825072265459     -1.64278471539022     -1.58769387717677
  N   1.17674817059045     -0.69233943707545     -0.37296717650056
  O   2.33414727002658     -0.27098155403331     -0.38294810495792
  O   0.79682099581264     -1.76523521544995     -0.82521855306166
  N   0.73083314345412      1.08596813905579      1.10884886174692
  H   1.70337220845003      1.28565253934318      0.93034902162336
  H   0.16682698244529      1.87911562860036      1.36776965000950
