11
Coordinates from ORCA-job run
  C   -0.91754650401841     -0.39552151828954     -0.61512243090409
  C   0.24176178758985     -0.01181521473675     -0.02377666828604
  H   -0.90747935741920     -1.13445546244361     -1.40372784808719
  C   -2.13170620230592      0.19575962826160     -0.18771916174176
  N   -3.11096481008189      0.71647716665063      0.21111638422623
  N   1.49739319717969     -0.66667518053836     -0.46741391035420
  O   2.49618337988050     -0.44648535181426      0.21817479725181
  O   1.45362304245870     -1.38110337320457     -1.46153340697995
  N   0.44504719584731      0.95287311956295      0.90402380479922
  H   1.30301979226840      0.88622174365361      1.42812227090547
  H   -0.36833152139901      1.28472444289829      1.39885616917051
