11
Coordinates from ORCA-job run
  C   -0.93341061631478     -0.66178741666758     -0.26304191513144
  C   0.22854557416292      0.01445299109514     -0.07965546308764
  H   -0.94741078164886     -1.57027672825194     -0.84816191717010
  C   -2.12069948764739     -0.15077327423745      0.31595602224419
  N   -3.07549360158334      0.31839828836052      0.82335083669834
  N   1.46431034504805     -0.55450894252334     -0.67321955753153
  O   2.52359231267225     -0.03117211685862     -0.32671751436845
  O   1.34989844840883     -1.49732144077930     -1.44667954521412
  N   0.43389739052469      1.20220773006816      0.53623247157962
  H   1.38072891527458      1.39187374034696      0.82432862646275
  H   -0.30395849889695      1.53690716944744      1.13660795551838
