11
Coordinates from ORCA-job run
  C   -0.94539170218515     -0.63439356941631     -0.28726756355987
  C   0.24048122839446     -0.03059808175489     -0.02176393059156
  H   -0.98480781032966     -1.49094005511003     -0.94523774705859
  C   -2.12076171576935     -0.12705301026579      0.31867340130218
  N   -3.06538940512045      0.34134426559305      0.84533434721827
  N   1.45439192116348     -0.55721514191770     -0.69256140481665
  O   1.36072241275186     -1.61465333630895     -1.30407739922213
  O   2.47278002614646      0.12713864510061     -0.58893892288687
  N   0.50544535397064      0.98263225220775      0.83594305966678
  H   1.36647098751823      1.48164217806659      0.67762268945587
  H   -0.28294129654053      1.52009585380567      1.16227347049257
