16

C	-0.409556	-0.007314	-1.471027
C	0.0	0.0	0.0
F	-0.003294	-1.238191	-1.995578
H	1.102284	0.0	0.0
C	-1.876127	0.050495	-1.646418
N	-3.033001	0.137817	-1.828881
C	0.304667	1.08907	-2.233355
H	0.119885	0.973523	-3.303608
H	-0.045862	2.070875	-1.91016
H	1.371435	0.992529	-2.009932
N	-0.548752	-1.191503	0.667757
H	0.010589	-1.964063	0.314907
H	-0.30223	-1.114563	1.650543
C	-0.483566	1.215281	0.637015
N	-0.835422	2.204229	1.167189
H	2.756788	0.0	0.0
