16

C	-0.366394	-0.081927	-1.481278
C	0.0	0.0	0.0
F	-1.738561	-0.397497	-1.622192
H	1.096137	0.0	0.0
C	-0.176395	1.215451	-2.151417
N	-0.043719	2.229554	-2.728625
C	0.448965	-1.152261	-2.174754
H	0.233897	-1.162108	-3.245108
H	0.193058	-2.123812	-1.750181
H	1.50941	-0.952589	-1.979792
N	-0.358817	-1.196221	0.747801
H	-1.158163	-1.663852	0.341034
H	0.447902	-1.811793	0.753589
C	-0.567066	1.18757	0.628349
N	-1.01444	2.146093	1.141666
H	2.675909	0.0	0.0
