16

C	-0.438542	-0.059159	-1.455218
C	0.0	0.0	0.0
F	-1.833619	-0.244041	-1.536714
H	1.095148	0.0	0.0
C	-0.157077	1.220176	-2.134007
N	0.060541	2.235547	-2.682638
C	0.252859	-1.202353	-2.163148
H	1.334188	-1.071733	-2.050003
H	-0.030615	-1.223591	-3.217636
H	-0.0458	-2.126454	-1.670115
N	-0.346876	-1.245054	0.680057
H	-1.188707	-1.146109	1.230681
H	0.43209	-1.472436	1.29134
C	-0.514118	1.185473	0.6783
N	-0.936139	2.106649	1.276844
H	2.66858	0.0	0.0
