16

C	-0.365058	-0.084126	-1.480906
C	0.0	0.0	0.0
F	-1.740202	-0.385103	-1.625086
H	1.096149	0.0	0.0
C	-0.153415	1.210419	-2.15256
N	0.021897	2.237295	-2.69686
C	0.441363	-1.166342	-2.16683
H	0.230728	-1.17759	-3.237337
H	0.174535	-2.134162	-1.739408
H	1.502257	-0.975597	-1.96881
N	-0.360164	-1.195369	0.749019
H	0.452448	-1.802486	0.768017
H	-1.148363	-1.67325	0.332249
C	-0.566489	1.189636	0.625739
N	-1.009461	2.150608	1.138405
H	2.673754	0.0	0.0
