16

C	-0.426912	-0.070002	-1.459235
C	0.0	0.0	0.0
F	-1.816412	-0.285277	-1.550764
H	1.095215	0.0	0.0
C	-0.168508	1.21441	-2.136579
N	0.033935	2.238187	-2.674559
C	0.297299	-1.198626	-2.157299
H	0.010419	-2.128937	-1.668789
H	0.029565	-1.225705	-3.216141
H	1.374236	-1.047252	-2.026856
N	-0.350348	-1.242981	0.680884
H	0.409974	-1.454269	1.320804
H	-1.213308	-1.151772	1.200199
C	-0.521316	1.187287	0.66996
N	-0.953747	2.108265	1.261414
H	2.673361	0.0	0.0
