16

C	-0.431319	-0.009257	-1.469737
C	0.0	0.0	0.0
F	0.090229	1.119675	-2.095906
H	1.095853	0.0	0.0
C	0.124973	-1.2055	-2.139336
N	0.443024	-2.172462	-2.723562
C	-1.936786	0.027322	-1.691667
H	-2.330699	0.941708	-1.244808
H	-2.153511	0.025651	-2.762231
H	-2.427968	-0.834715	-1.23502
N	-0.329888	-1.213178	0.734432
H	-1.100247	-1.732249	0.336567
H	0.505269	-1.793052	0.72509
C	-0.543788	1.187429	0.647884
N	-0.9841	2.15739	1.147337
H	2.637312	0.0	0.0
