16

C	-0.418921	-0.039307	-1.472411
C	0.0	0.0	0.0
F	0.048491	-1.22771	-2.014687
H	1.095308	0.0	0.0
C	-1.892534	-0.067976	-1.607037
N	-3.064211	-0.075089	-1.694245
C	0.208791	1.107189	-2.241772
H	1.283088	1.073333	-2.037498
H	-0.195668	2.066873	-1.914169
H	0.021214	0.980628	-3.309965
N	-0.437849	-1.190906	0.711891
H	0.365108	-1.54801	1.220337
H	-1.184313	-0.991403	1.363005
C	-0.454451	1.244651	0.610795
N	-0.835257	2.23277	1.124543
H	2.706851	0.0	0.0
