16

C	-0.40865	-0.021933	-1.470971
C	0.0	0.0	0.0
F	-0.002327	-1.257987	-1.982889
H	1.102317	0.0	0.0
C	-1.87528	0.034383	-1.64726
N	-3.032311	0.120658	-1.829943
C	0.30631	1.066502	-2.243732
H	1.372833	0.972433	-2.018074
H	0.122746	0.939766	-3.312776
H	-0.044251	2.051913	-1.93166
N	-0.549417	-1.184687	0.678937
H	0.020448	-1.958799	0.346566
H	-0.319386	-1.091412	1.664203
C	-0.483822	1.221659	0.624407
N	-0.836488	2.215368	1.144904
H	2.757134	0.0	0.0
