16

C	-0.418848	-0.038783	-1.472195
C	0.0	0.0	0.0
F	0.040209	-1.229887	-2.014351
H	1.09533	0.0	0.0
C	-1.892769	-0.056358	-1.607879
N	-3.064415	-0.056354	-1.700126
C	0.215292	1.101582	-2.244719
H	-0.178655	2.06623	-1.915133
H	1.288587	1.061433	-2.048787
H	0.020531	0.973568	-3.310857
N	-0.435935	-1.190632	0.711334
H	0.355568	-1.525822	1.253924
H	-1.212166	-0.99956	1.332303
C	-0.459297	1.245202	0.608073
N	-0.845433	2.229836	1.123179
H	2.705135	0.0	0.0
