15

C	0.0	0.0	0.0
C	-0.262984	0.771051	-1.342633
Cl	1.825119	0.0	0.0
H	0.002527	1.812852	-1.150756
H	0.493238	0.37192	-2.020607
N	-0.317828	0.877311	1.257098
O	-0.469231	0.261119	2.307156
O	-0.362433	2.095895	1.141568
N	-0.630537	-1.228338	0.053001
H	-1.665132	-0.938361	0.013227
H	-0.450583	-1.668205	0.94809
N	-1.537549	0.680345	-2.00539
H	-2.271139	0.713883	-1.27818
H	-1.623305	-0.265705	-2.358466
F	-2.930322	0.0	0.0
