15

C	0.0	0.0	0.0
C	-0.500521	-0.049889	-1.445453
Cl	1.758907	0.0	0.0
H	-1.585906	0.070499	-1.336903
H	-0.280826	-1.075241	-1.754806
N	-0.345138	1.410545	0.614762
O	-0.351652	1.474065	1.839736
O	-0.562667	2.358729	-0.131582
N	-0.605209	-1.011513	0.742089
H	-0.380548	-0.879958	1.722662
H	-1.644362	-0.795485	0.570779
N	0.173408	0.870064	-2.364249
H	0.046769	0.520128	-3.306075
H	-0.290648	1.766055	-2.300304
F	-2.852564	0.0	0.0
