15

C	0.0	0.0	0.0
C	-0.466358	0.060434	-1.447357
Cl	1.839786	0.0	0.0
H	-1.555866	0.133796	-1.335277
H	-0.070231	0.971516	-1.898214
N	-0.254839	1.427301	0.646578
O	-0.25306	2.41988	-0.072708
O	-0.40391	1.447585	1.863486
N	-0.593558	-0.997267	0.732877
H	-0.395678	-0.853523	1.716195
H	-1.638231	-0.793909	0.535345
N	-0.080618	-1.15469	-2.158208
H	0.721775	-0.981812	-2.748227
H	-0.849553	-1.45552	-2.740543
F	-2.831008	0.0	0.0
