15

C	0.0	0.0	0.0
C	-0.462855	-0.018225	-1.449847
Cl	1.847426	0.0	0.0
H	-0.062095	0.864024	-1.951837
H	-1.552547	0.065347	-1.344536
N	-0.252064	1.460059	0.569873
O	-0.272085	2.410572	-0.20461
O	-0.382545	1.54477	1.786817
N	-0.590311	-0.957278	0.784763
H	-0.380594	-0.773767	1.75946
H	-1.637223	-0.761852	0.581918
N	-0.084418	-1.275921	-2.088246
H	-0.841886	-1.582837	-2.682954
H	0.741662	-1.149898	-2.658647
F	-2.824015	0.0	0.0
