15

C	0.0	0.0	0.0
C	-0.496583	0.004916	-1.439668
Cl	1.76825	0.0	0.0
H	-1.554801	0.264675	-1.34499
H	0.057735	0.752646	-2.006383
N	-0.307476	1.429339	0.596594
O	-0.455588	1.48795	1.812381
O	-0.33064	2.390358	-0.162864
N	-0.617809	-0.996694	0.740958
H	-0.378391	-0.895487	1.71993
H	-1.6634	-0.746979	0.572837
N	-0.260002	-1.326345	-2.018301
H	-0.687715	-1.985328	-1.375307
H	-0.801488	-1.371763	-2.875143
F	-2.845257	0.0	0.0
