15

C	0.0	0.0	0.0
C	-0.467884	0.039679	-1.445121
Cl	1.847112	0.0	0.0
H	0.116082	0.77751	-1.993842
H	-1.518488	0.333565	-1.362764
N	-0.255785	1.425544	0.616949
O	-0.224381	2.399616	-0.125374
O	-0.434668	1.468296	1.828955
N	-0.619168	-0.994498	0.720981
H	-0.394906	-0.901166	1.704742
H	-1.676515	-0.729344	0.534306
N	-0.274754	-1.289684	-2.041731
H	-0.744679	-1.941669	-1.421503
H	-0.799785	-1.295677	-2.909623
F	-2.825641	0.0	0.0
