15

C	0.0	0.0	0.0
C	-0.511968	0.036594	-1.433098
Cl	1.846945	0.0	0.0
H	-0.02531	0.860961	-1.952417
H	-1.579882	0.247734	-1.285331
N	-0.234219	1.459689	0.592941
O	-0.160958	2.424157	-0.160276
O	-0.438345	1.531668	1.800511
N	-0.609258	-0.95196	0.775911
H	-0.426079	-0.747581	1.752698
H	-1.651382	-0.758389	0.559757
N	-0.292465	-1.248504	-2.09047
H	0.256442	-1.137824	-2.930892
H	-1.187021	-1.650388	-2.336657
F	-2.869389	0.0	0.0
