15

C	0.0	0.0	0.0
C	-0.429792	-0.121524	-1.461977
Cl	1.837243	0.0	0.0
H	0.05102	0.646582	-2.0698
H	-1.510048	0.033999	-1.39542
N	-0.34092	1.413868	0.499464
O	-0.525644	1.576149	1.695327
O	-0.329621	2.30872	-0.343164
N	-0.545435	-0.931318	0.882674
H	-1.587891	-0.707113	0.736373
H	-0.36764	-1.828398	0.438148
N	-0.133409	-1.486956	-1.911727
H	-0.918314	-1.837568	-2.438334
H	0.678518	-1.494973	-2.513038
F	-2.76927	0.0	0.0
