14

C	-0.493113	-0.077496	-1.433034
C	0.0	0.0	0.0
Cl	0.278897	-1.394423	-2.311809
H	1.106283	0.0	0.0
H	-0.382374	0.937777	0.41646
N	-2.024055	-0.303446	-1.41384
O	-2.651469	0.632433	-0.925418
O	-2.497578	-1.353316	-1.808492
C	-0.286735	1.176944	-2.155214
N	-0.130706	2.18755	-2.733955
N	-0.483492	-1.17947	0.718914
H	0.337783	-1.649276	1.076679
H	-1.049928	-0.908141	1.509093
F	2.598124	0.0	0.0
