14

C	-0.349359	-0.130827	-1.482471
C	0.0	0.0	0.0
Cl	0.257022	-1.659261	-2.128104
H	1.093047	0.0	0.0
H	-0.423632	-0.875235	0.504032
N	-1.875606	-0.10975	-1.631663
O	-2.491105	-1.15693	-1.480522
O	-2.381376	1.008624	-1.743873
C	0.183481	0.979777	-2.265064
N	0.603264	1.884776	-2.884821
N	-0.419893	1.247912	0.601096
H	0.316479	1.927185	0.459674
H	-1.292935	1.617476	0.245673
F	2.578686	0.0	0.0
