14

C	-0.45257	0.000531	-1.431915
C	0.0	0.0	0.0
Br	-2.46349	-0.272938	-1.555519
H	1.093069	0.0	0.0
H	-0.330972	0.94146	0.450111
N	-0.002101	1.140639	-2.120618
H	-0.357227	1.992107	-1.707731
H	-0.226611	1.099185	-3.107106
N	0.11402	-1.192004	-2.20757
O	0.001331	-1.146396	-3.429387
O	0.657702	-2.074241	-1.560245
C	-0.494798	-1.098191	0.803132
N	-0.882308	-1.954695	1.513343
Br	2.750214	0.0	0.0
