14

C	-0.579812	0.025009	-1.400618
C	0.0	0.0	0.0
Br	0.308436	-1.440155	-2.430534
H	1.089316	0.0	0.0
H	-0.291119	-0.957694	0.447102
N	-1.986104	-0.032627	-1.421799
H	-2.334633	-0.030321	-2.371908
H	-2.321751	-0.843626	-0.919761
N	-0.208334	1.300842	-2.151233
O	-0.789582	1.473898	-3.219102
O	0.60983	2.046184	-1.635153
C	-0.54437	1.078335	0.820061
N	-1.005329	1.912027	1.505548
Br	3.481331	0.0	0.0
