14

C	-0.607391	-0.00365	-1.393386
C	0.0	0.0	0.0
Br	0.202622	-1.417609	-2.453664
H	1.089124	0.0	0.0
H	-0.311508	-0.939834	0.466193
N	-2.012408	-0.184633	-1.371966
H	-2.430872	0.501778	-0.751684
H	-2.387397	-0.066005	-2.305681
N	-0.231748	1.307132	-2.141207
O	0.683064	1.983591	-1.695849
O	-0.91344	1.561339	-3.133236
C	-0.552148	1.108746	0.772423
N	-1.055469	2.002764	1.344464
Br	3.48037	0.0	0.0
