14

C	-0.560099	-0.0583	-1.411639
C	0.0	0.0	0.0
Br	0.264599	-1.491847	-2.431815
H	1.089678	0.0	0.0
H	-0.315927	0.940638	0.465743
N	-1.965034	-0.222414	-1.44143
H	-2.311512	-0.124238	-2.388074
H	-2.408726	0.458358	-0.83476
N	-0.151605	1.243544	-2.164812
O	-0.765476	1.460883	-3.209668
O	0.702201	1.962694	-1.664264
C	-0.499868	-1.119987	0.789517
N	-0.889446	-2.010291	1.447881
Br	3.45149	0.0	0.0
