14

C	-0.536186	0.007284	-1.427711
C	0.0	0.0	0.0
Br	0.20688	-1.484117	-2.417628
H	1.093646	0.0	0.0
H	-0.338739	0.922625	0.485963
N	-1.960754	-0.002385	-1.633275
H	-2.325587	-0.904504	-1.350611
H	-2.371838	0.719549	-1.050463
N	-0.055739	1.344651	-2.022553
O	0.875564	1.386875	-2.807673
O	-0.695418	2.3101	-1.602794
C	-0.522445	-1.14035	0.721543
N	-0.955308	-2.065889	1.304477
Br	2.910374	0.0	0.0
