14

C	-0.289614	0.065084	-1.488997
C	0.0	0.0	0.0
Br	-2.20299	0.348345	-1.909503
H	1.099495	0.0	0.0
H	-0.381365	-0.919325	0.43959
N	0.494725	1.039354	-2.09992
H	0.477553	0.962253	-3.108074
H	1.453276	0.986676	-1.745683
N	-0.050643	-1.372321	-2.08326
O	0.413641	-1.408231	-3.216314
O	-0.370935	-2.339458	-1.40563
C	-0.499178	1.167927	0.705568
N	-0.901084	2.093402	1.305555
Br	3.416554	0.0	0.0
