14

C	-0.656852	-0.265622	-1.355512
C	0.0	0.0	0.0
Br	0.147985	-1.87073	-2.112476
H	1.098594	0.0	0.0
H	-0.299989	-0.819758	0.661691
N	-2.07655	-0.418615	-1.367613
H	-2.34212	-1.113622	-0.681379
H	-2.52098	0.466527	-1.148958
N	-0.319331	0.895535	-2.305824
O	-1.174049	1.217086	-3.125802
O	0.784466	1.399914	-2.166443
C	-0.536622	1.246917	0.537645
N	-1.036868	2.237539	0.924202
Br	3.497973	0.0	0.0
