15

C	-0.605913	-0.006383	-1.592518
C	0.135623	0.023439	-0.270293
F	-0.280061	1.128126	-2.345353
H	1.213978	0.10093	-0.433541
H	0.001597	-0.94149	0.230105
C	-0.159108	-1.151993	-2.432633
N	0.127583	-2.08207	-3.090424
N	-2.025298	-0.023764	-1.412352
H	-2.515293	-0.494084	-2.159713
H	-2.273834	-0.415774	-0.516923
C	-0.282011	1.160537	0.650077
H	-1.278848	1.021553	1.081093
H	0.480485	1.164138	1.441431
H	-0.263343	2.114822	0.118625
H	2.435077	0.240609	1.821988
