15

C	-0.325633	-0.120929	-1.434168
C	-0.191246	-0.166314	0.082821
F	-0.495727	-1.51721	-1.835144
H	0.76909	-0.652395	0.274759
H	-0.98445	-0.814963	0.467063
C	-1.633166	0.469219	-1.83658
N	-2.649064	0.971695	-2.148649
N	0.74215	0.484066	-2.04237
H	1.582061	0.892729	-1.472182
H	0.57592	0.919026	-2.935869
C	-0.216353	1.215052	0.724859
H	-0.212623	1.125685	1.815977
H	-1.114074	1.770848	0.437197
H	0.674342	1.767592	0.418339
H	2.672007	1.500288	-0.767759
