16

C	-0.318577	0.065185	-1.483503
C	0.0	0.0	0.0
Cl	-2.041314	0.535087	-1.801076
H	1.094766	0.0	0.0
H	-0.305268	0.976687	0.387059
N	0.546381	0.970643	-2.104978
H	1.495206	0.842488	-1.751226
H	0.533102	0.883245	-3.111892
N	-0.237462	-1.36444	-2.135388
O	-1.020459	-2.224534	-1.745937
O	0.61644	-1.521986	-3.004092
C	-0.592875	-1.117943	0.836131
H	-0.356858	-0.921561	1.884981
H	-0.165066	-2.086078	0.578724
H	-1.677761	-1.181848	0.727505
Cl	3.423166	0.0	0.0
