16

C	-0.45921	-0.001106	-1.431236
C	0.0	0.0	0.0
Cl	-2.348756	-0.293471	-1.454566
H	1.093103	0.0	0.0
H	-0.347065	-0.919298	0.469235
N	-0.079057	1.100879	-2.165908
H	-0.24319	1.978066	-1.69973
H	-0.379287	1.082318	-3.128093
N	0.001881	-1.251243	-2.185407
O	0.085066	-1.149304	-3.405287
O	0.202292	-2.262932	-1.531348
C	-0.478872	1.224725	0.773243
H	-1.561308	1.362955	0.713931
H	0.023438	2.131889	0.426986
H	-0.201395	1.108282	1.822424
Cl	3.47345	0.0	0.0
