16

C	-0.286454	0.047775	-1.488088
C	0.0	0.0	0.0
Cl	-0.385817	1.809679	-2.082656
H	1.095328	0.0	0.0
H	-0.318419	-0.992157	0.331646
N	0.639464	-0.728006	-2.177394
H	1.585885	-0.578132	-1.82713
H	0.571135	-0.640962	-3.180718
N	-1.684223	-0.460421	-1.869683
O	-2.531267	-0.534728	-0.98567
O	-1.8614	-0.755673	-3.046699
C	-0.574913	1.087281	0.887863
H	-0.112955	2.050123	0.675154
H	-1.656128	1.176828	0.774535
H	-0.354878	0.838643	1.928397
Cl	3.446262	0.0	0.0
