13
Coordinates from ORCA-job run
  C   -0.35857942493511     -0.56908370025382     -0.69148078407293
  C   0.64957989044379     -0.04585364171576      0.38061532185860
  Br  0.64089369377898     -1.21779847737114     -2.24036848529951
  H   1.34502756485681     -0.86879067596161      0.57229289319820
  C   -1.14416990198303     -1.67805178497787     -0.15631751735702
  N   -1.75156186555203     -2.57539373954011      0.30045190010910
  C   -1.22375649935179      0.53034750361740     -1.11165700605214
  N   -1.88654138780859      1.45423669556764     -1.41132980611324
  C   -0.09909513188416      0.23635027106737      1.62114274271672
  N   -0.66820409163287      0.52496127142518      2.60865876606975
  N   1.37675472280339      1.08186873635192     -0.14680932547596
  H   2.26801883543957      1.18665978158038      0.31889919186406
  H   0.85063359582505      1.94154776021041     -0.04409789144564
