13
Coordinates from ORCA-job run
  C   -0.46608824699134     -0.56006862392132     -0.52536098852990
  C   0.31014828731719      0.52981820615090      0.26977165372892
  Br  -0.00585637334332     -2.33627499702443      0.16844952803286
  H   0.00118188829704      1.48587646566625     -0.16977751718000
  C   -1.90107610414543     -0.34802490625151     -0.35472066246958
  N   -3.05613260470576     -0.15579648377244     -0.25191329431450
  C   -0.10498853436978     -0.50859920546040     -1.93981681313449
  N   0.19827652227757     -0.42405773765658     -3.07290107784290
  C   1.75832338741226      0.37092562912223      0.04059575187861
  N   2.92247564682342      0.26015210402565     -0.07596531066481
  N   -0.10716295003363      0.50832274437857      1.65024739626699
  H   0.07871540205408      1.39858522649854      2.09341677894879
  H   0.37118367940770     -0.21985842175547      2.16597455528000
