13
Coordinates from ORCA-job run
  C   -0.50304092397812     -0.51834032475890     -0.53475267110672
  C   0.35744506647527      0.49757484337793      0.27133751795080
  Br  -0.30483060825308     -2.31012329149331      0.23890857678569
  H   0.19115874350654      1.46784170563754     -0.21200712732004
  C   -1.90767309237269     -0.12586105041252     -0.45486268133996
  N   -3.03348934136441      0.21042925653873     -0.42418032714470
  C   -0.06161477936799     -0.56618505179382     -1.92636612406858
  N   0.31210817364330     -0.56945430418041     -3.04135705093286
  C   1.78586530601860      0.15904710727183      0.13053085165057
  N   2.93401689570800     -0.08830125725275      0.08608955814956
  N   -0.13222013195054      0.57540053708458      1.62576686437715
  H   0.13670314397235      1.45208266147797      2.05296728001916
  H   0.22557154796277     -0.18611083149688      2.18892533297993
