13
Coordinates from ORCA-job run
  C   -0.27217677278403     -0.57485596704217     -0.65893316640693
  C   0.78510735877790      0.16432298226368      0.24918116617838
  Br  0.46357718367334     -2.26440201859110     -1.30977366631638
  H   1.68229305451152      0.27719771360394     -0.36957332905817
  C   -1.48473664218513     -0.82916628392358      0.11185139169634
  N   -2.44204528353974     -0.98968766033943      0.77610161850312
  C   -0.56303601391277      0.28544867957401     -1.80241333740240
  N   -0.75163252313638      1.03290208676933     -2.69037817737781
  C   1.10614563072594     -0.70030594289059      1.39045306364705
  N   1.33718396908767     -1.37714020893488      2.32157638614986
  N   0.36646853786389      1.45519862391622      0.71464230809110
  H   -0.45061739569350      1.41055782213813      1.31048214600007
  H   0.22346889661129      2.10993017345643     -0.04321640370422
