13
Coordinates from ORCA-job run
  C   -0.71239379765708     -0.31763876889064     -0.32273543611841
  C   0.71832400034542      0.11061995004606      0.20016166056218
  Br  -2.03470790124279     -0.09406585219375      1.10263932331299
  H   1.39377425957528     -0.08391087169426     -0.64272453744597
  C   -1.06673225164602      0.56799402477807     -1.42748197183330
  N   -1.27901731997719      1.32347542580125     -2.30348513087963
  C   -0.70216205786149     -1.71081600089854     -0.75230522380445
  N   -0.63836644130468     -2.83331435917844     -1.09860533164528
  C   1.09526452656451     -0.78401420257359      1.30035995488709
  N   1.39104404257748     -1.49472884614254      2.18681817533671
  N   0.86286998143220      1.48031294605438      0.59129838963159
  H   0.24493700750228      1.72561134377541      1.35420471807756
  H   0.72716595169207      2.11147521111659     -0.18814459008108
