13
Coordinates from ORCA-job run
  C   -0.76641469552262     -0.29952862953860     -0.36428537931030
  C   0.63940385501013      0.12314939008678      0.15339889084956
  Br  -2.13041577405575      0.18788925434538      0.95787040631229
  H   1.34136564330218     -0.17660766211597     -0.63401095721386
  C   -1.04872762364461      0.40527512689626     -1.61208709892154
  N   -1.25898985812313      0.94226996151700     -2.63630114411574
  C   -0.81554684809696     -1.74509892590898     -0.56860880924877
  N   -0.80953232241819     -2.90927600120535     -0.73445891179486
  C   0.96928415271348     -0.64084913457895      1.37094428655269
  N   1.26678476714652     -1.19146677536744      2.36574577403556
  N   0.69287112107153      1.55834088235865      0.28668294085401
  H   0.27030350611788      1.86111319877667      1.15560686409219
  H   1.65061407649954      1.88378931473455      0.25850313790878
