13
Coordinates from ORCA-job run
  C   -0.27197323087636     -0.58788283214204     -0.64774982010250
  C   0.78248139868157      0.17143852756937      0.24678782732358
  Br  0.46969315764599     -2.28854411181952     -1.26339664385582
  H   1.68051521707126      0.27243712672724     -0.37273462930606
  C   -1.48426132190826     -0.83196808963971      0.12675646473544
  N   -2.43677246280900     -0.98916854517619      0.79833119087969
  C   -0.56151883545694      0.24832845376258     -1.80917730553099
  N   -0.74170361442878      0.97737359483966     -2.71411186773821
  C   1.10300692823989     -0.66846654638458      1.40651923809536
  N   1.33555846582480     -1.32329450656848      2.35297752816488
  N   0.36173655263291      1.47136619053843      0.68434100039497
  H   -0.45681897659861      1.43844056760086      1.27892658580917
  H   0.22005672198154      2.10994017069239     -0.08746956886951
