12

C	-0.453634	0.091999	-1.430752
C	0.0	0.0	0.0
F	-1.822191	0.133323	-1.537992
H	1.091708	0.0	0.0
H	-0.026421	0.935583	-1.969681
H	-0.357519	-0.935696	0.433643
N	-0.029178	-1.142878	-2.186863
O	-0.328854	-2.223445	-1.687571
O	0.522925	-0.968542	-3.269677
C	-0.513466	1.13436	0.756419
N	-0.947693	2.045296	1.355436
Br	3.435926	0.0	0.0
