12

C	-0.506546	0.230588	-1.403818
C	0.0	0.0	0.0
F	-1.815337	0.624236	-1.408968
H	1.091655	0.0	0.0
H	0.1	0.972638	-1.921906
H	-0.293817	0.882511	0.578477
N	-0.415578	-1.026912	-2.233545
O	0.64473	-1.202384	-2.822432
O	-1.392522	-1.768643	-2.233721
C	-0.565266	-1.18142	0.638348
N	-1.023456	-2.118444	1.176802
Br	3.447727	0.0	0.0
