12

C	-0.533487	-0.053531	-1.418301
C	0.0	0.0	0.0
F	-0.349455	-1.292617	-1.938101
H	1.094028	0.0	0.0
H	-1.592154	0.208157	-1.497063
H	-0.312902	-0.930773	0.483375
N	0.172579	0.950036	-2.307684
O	0.726022	0.545565	-3.318245
O	0.06556	2.113303	-1.932645
C	-0.54239	1.117547	0.760923
N	-1.020197	1.977814	1.400549
Br	3.450922	0.0	0.0
