12

C	-0.534835	0.009665	-1.419466
C	0.0	0.0	0.0
F	-0.349452	-1.203556	-1.995049
H	1.094425	0.0	0.0
H	-1.593395	0.271999	-1.486367
H	-0.312912	-0.951208	0.44212
N	0.167995	1.054293	-2.26117
O	0.049157	2.197917	-1.836884
O	0.734079	0.698304	-3.282596
C	-0.540209	1.084204	0.810586
N	-0.998722	1.923302	1.491192
Br	3.452075	0.0	0.0
