16
Coordinates from ORCA-job run
  C   0.96818689809938      0.11533906902934      0.09966552651213
  C   -0.53320793010467      0.43774749962898      0.15365350377713
  Cl  1.86098415330403      1.67525892064910     -0.26092064227841
  H   -0.69521834453297      1.10394507243011      1.00391749782757
  C   1.31145095781584     -0.82848726598053     -0.96713646589299
  N   1.62849791037562     -1.63514748453191     -1.75991351017026
  N   1.33704719646764     -0.45799173761346      1.35048228875474
  H   2.29332352527325     -0.79139052301871      1.33584927769391
  H   1.23309725679581      0.21902903586765      2.09788099433863
  C   -1.39752843698905     -0.80733032156552      0.22512369127571
  H   -1.12104112710551     -1.39569173758897      1.09881594817688
  H   -2.44789236133251     -0.51921706912997      0.30430822406558
  H   -1.26547891176626     -1.41269801963716     -0.67265858054827
  N   -0.94503323860308      1.24015433960586     -1.04121873861512
  O   -1.47750843442457      2.32546231941601     -0.82608242810160
  O   -0.74867911327295      0.73101790243917     -2.14076658681564
