16
Coordinates from ORCA-job run
  C   1.00000920875890     -0.05629353513984     -0.05501661323600
  C   -0.53872367295840      0.04606667491741      0.18749871715910
  Cl  1.32508180569355      0.44666659507383     -1.75272581934606
  H   -0.68177947047853     -0.08718167634094      1.26404229335738
  C   1.36378759071346     -1.47233518051395      0.07953397010556
  N   1.63193666730959     -2.60483632386275      0.23942231309127
  N   1.85238089120842      0.70467210212112      0.81101003586510
  H   1.89614171337258      0.28032328527853      1.73026163050026
  H   1.51216015975732      1.65537574741998      0.89572743482680
  C   -1.38656895529157     -0.91824464968009     -0.61055429232686
  H   -1.22991804757460     -0.78845241111823     -1.67971487039071
  H   -2.44209301844698     -0.74739826752289     -0.39641541152994
  H   -1.13916831682613     -1.94283524241807     -0.32963520409590
  N   -0.95793550652883      1.46937624192308     -0.06946803267000
  O   -1.65198876454955      1.70517520148715     -1.05135536552164
  O   -0.55132228415923      2.30892143837566      0.73638921421162
