16
Coordinates from ORCA-job run
  C   0.93273279007225      0.23354893891871      0.33657877831312
  C   -0.54583174770290      0.50714804379674     -0.00558638946160
  Cl  1.28109201641378      1.14698227826548      1.84656546972736
  H   -0.70605474552244      1.58550183288442      0.01529349029351
  C   1.79098776460778      0.82583762853973     -0.70852805313557
  N   2.47861230804628      1.24845968582896     -1.56380557696983
  N   1.18067439441046     -1.15540324278494      0.59765036425988
  H   2.15129070272203     -1.29492549650273      0.85389077364822
  H   0.97054851028383     -1.68802684344235     -0.24004523762741
  C   -1.52937426406903     -0.22784004368007      0.88569868008366
  H   -2.54610617787916      0.06497021275399      0.61624898352981
  H   -1.35080878814566      0.03669394644422      1.92746968557169
  H   -1.41536684039781     -1.30499152659930      0.77745000126550
  N   -0.81720416596996      0.11261351505680     -1.43050856924092
  O   -1.48808908894928      0.88797293474262     -2.10257017925424
  O   -0.38910266792015     -0.97954186422228     -1.80580222100318
