16
Coordinates from ORCA-job run
  C   0.95844590183319      0.10825471082324      0.22941307412127
  C   -0.52766625781445      0.50189293257234      0.11055297807881
  Cl  1.41247118920046      0.45675387945544      1.99817783843327
  H   -0.61653190339666      1.55006094367325      0.39658871510774
  C   1.82010339528870      1.00093286758219     -0.55186766798163
  N   2.55016453504061      1.68579956588241     -1.16687248921593
  N   1.18037714778131     -1.22158811503093     -0.17263945356518
  H   0.65028325001292     -1.88825696024374      0.37178400336765
  H   2.16112110313156     -1.46919572071439     -0.17600254215289
  C   -1.48354411968408     -0.37844883016813      0.88796543762899
  H   -1.23313570900745     -0.36585802556197      1.94792593151279
  H   -1.47814525624998     -1.40016153638414      0.51139209362148
  H   -2.49846595906064      0.00450291048264      0.76948233974748
  N   -0.88371604221254      0.47245059763139     -1.35753334916140
  O   -0.65952423720851      1.50593103403892     -1.98510298788194
  O   -1.35423703765445     -0.56407025403852     -1.81426392166052
