17

C	0.0	0.0	0.0
C	-0.3945	0.003532	-1.517492
Cl	1.774442	0.0	0.0
H	0.266014	-0.730617	-1.98744
C	-0.636696	1.076742	0.825776
H	-1.724519	0.93784	0.783315
H	-0.308295	1.015919	1.8619
H	-0.372522	2.051898	0.414802
N	-0.363158	-1.379146	0.565657
O	-0.329798	-2.325432	-0.214351
O	-0.596916	-1.449298	1.764503
C	-0.014029	1.323603	-2.054934
N	0.267491	2.372516	-2.501565
N	-1.738925	-0.308517	-1.892035
H	-1.919792	-1.290472	-1.733844
H	-2.46254	0.190295	-1.369698
Cl	-4.225993	0.0	0.0
