17

C	0.0	0.0	0.0
C	-0.65808	-0.388762	-1.334892
Cl	1.771106	0.0	0.0
H	-1.643998	-0.773151	-1.03543
C	-0.503135	1.318293	0.528906
H	-1.5927	1.268244	0.598529
H	-0.068105	1.506499	1.508467
H	-0.210594	2.096467	-0.173947
N	-0.335968	-1.110004	1.016917
O	-0.633729	-2.210133	0.56748
O	-0.224724	-0.829202	2.20308
C	0.074473	-1.436402	-2.043067
N	0.644186	-2.226422	-2.699826
N	-0.820738	0.795381	-2.181413
H	-1.799905	1.062018	-2.114646
H	-0.618572	0.564411	-3.144972
Cl	-3.66565	0.0	0.0
