15

C	-0.525322	0.024316	-1.422326
C	0.0	0.0	0.0
Br	0.451882	1.365868	-2.488958
H	1.0924	0.0	0.0
N	-0.295641	-1.312745	-2.124646
O	0.611013	-2.009048	-1.684672
O	-0.998871	-1.549865	-3.102879
C	-1.943155	0.344431	-1.502362
N	-3.091202	0.604948	-1.49099
C	-0.505108	-1.167219	0.704572
N	-0.938021	-2.072749	1.321441
N	-0.337258	1.258932	0.648064
H	0.50004	1.566306	1.136996
H	-1.099647	1.158675	1.303887
H	2.512836	0.0	0.0
