15

C	-0.530695	0.085838	-1.415176
C	0.0	0.0	0.0
Br	0.486565	1.440975	-2.440793
H	1.09423	0.0	0.0
N	-0.344181	-1.223912	-2.167118
O	-1.078394	-1.420149	-3.132597
O	0.568813	-1.942853	-1.781026
C	-1.934352	0.463387	-1.476828
N	-3.07408	0.75702	-1.452893
C	-0.500723	-1.18389	0.679239
N	-0.921335	-2.127301	1.246096
N	-0.323664	1.241749	0.691367
H	0.515846	1.521678	1.19272
H	-1.089827	1.128326	1.340939
H	2.499212	0.0	0.0
