15

C	-0.530658	0.069828	-1.41745
C	0.0	0.0	0.0
Br	0.479894	1.408769	-2.461898
H	1.092464	0.0	0.0
N	-0.341415	-1.252406	-2.151168
O	0.56719	-1.967746	-1.750573
O	-1.074914	-1.462698	-3.113782
C	-1.937277	0.435439	-1.481644
N	-3.079511	0.716874	-1.454658
C	-0.50757	-1.18115	0.677523
N	-0.931253	-2.097513	1.284851
N	-0.324953	1.245267	0.68158
H	0.514135	1.528627	1.182898
H	-1.092363	1.136299	1.330665
H	2.505783	0.0	0.0
