15

C	-0.548982	0.029731	-1.410257
C	0.0	0.0	0.0
Br	0.488496	1.292746	-2.529347
H	1.092368	0.0	0.0
N	-0.41537	-1.326347	-2.089166
O	0.528357	-2.017227	-1.727384
O	-1.22338	-1.589105	-2.976597
C	-1.941654	0.446927	-1.466175
N	-3.069931	0.781687	-1.435147
C	-0.499962	-1.158648	0.719997
N	-0.906459	-2.058486	1.363478
N	-0.310361	1.267878	0.64598
H	0.536675	1.561775	1.126699
H	-1.069346	1.184692	1.30793
H	2.492364	0.0	0.0
