13

C	0.0	0.0	0.0
C	-0.578249	0.10582	-1.40767
Br	1.926323	0.0	0.0
H	-1.313549	0.913171	-1.37744
H	-0.342494	-0.885021	0.523239
H	0.211848	0.34913	-2.12216
N	-0.361095	1.171333	0.879562
O	-0.398133	2.281539	0.358883
O	-0.476708	0.941537	2.078858
N	-1.178917	-1.189322	-1.721717
H	-1.453872	-1.169467	-2.700211
H	-2.054858	-1.130283	-1.166418
H	-2.90008	0.0	0.0
