13

C	0.0	0.0	0.0
C	-0.525192	0.002251	-1.41308
Br	1.932961	0.0	0.0
H	-0.179394	0.902747	-1.930131
H	-0.36348	-0.84946	0.570285
H	-1.621349	0.048631	-1.247222
N	-0.390307	1.23249	0.767017
O	-0.486394	2.281604	0.138817
O	-0.491082	1.117736	1.982438
N	-0.142684	-1.253714	-2.055816
H	-0.906866	-1.568101	-2.635473
H	0.670587	-1.121931	-2.636396
H	-3.033683	0.0	0.0
