13

C	0.0	0.0	0.0
C	-0.437414	0.085041	-1.454329
Br	1.928323	0.0	0.0
H	0.167779	0.838707	-1.962124
H	-0.388576	-0.867364	0.520493
H	-1.487423	0.381407	-1.411026
N	-0.396901	1.209984	0.792028
O	-0.469468	2.274372	0.181524
O	-0.48191	1.078851	2.009015
N	-0.246149	-1.24074	-2.05011
H	-1.158831	-1.676122	-2.122151
H	0.141348	-1.153009	-2.978792
H	-2.779196	0.0	0.0
