14
Coordinates from ORCA-job run
  C   0.65219941417642     -0.13443232844715      0.01562581837275
  C   -0.65104633893117      0.21557775997176     -0.15281725021010
  N   1.10097098771120     -1.33692670652448      0.71429912530828
  O   1.55968937983877     -2.22552338189669      0.00569868784626
  O   1.01559401556534     -1.32682032417592      1.93843529863856
  N   1.74271004408360      0.70313518638488     -0.41479177943695
  O   1.46007488673620      1.70432738360858     -1.08184746061049
  O   2.87265011192407      0.36903759630927     -0.07368797245716
  N   -1.70685358438477     -0.68647918012560      0.38777279046296
  O   -1.43050669415236     -1.87203412865910      0.52176399863336
  O   -2.78255125807273     -0.15141581180281      0.64258297200949
  N   -1.17072300002022      1.26395864936655     -0.80716204579004
  H   -2.13016580586578      1.49117008583302     -0.59310529336536
  H   -0.53204215860856      1.98642520015770     -1.10276688940159
