14
Coordinates from ORCA-job run
  C   0.66117598450160     -0.07997539608303     -0.00154147308773
  C   -0.66312449731311      0.21532095251357      0.08785702419916
  N   1.27668380637057     -0.78317946243529     -1.12505721427688
  O   1.07046648595591     -1.99063983572219     -1.19851223159463
  O   1.97941118915126     -0.10004414739725     -1.86112017474945
  N   1.59220538487553      0.19851142339958      1.06242944462339
  O   1.17697149528021      0.85798835203435      2.02153443741589
  O   2.72704202885201     -0.25206016152703      0.94459277603136
  N   -1.55773326975556     -0.17579937701244     -1.03803349371039
  O   -1.05732780786351     -0.29364423402807     -2.14959176784352
  O   -2.74114286787824     -0.32823218534009     -0.74709195418888
  N   -1.32097793832888      0.88509039080149      1.04507468674741
  H   -0.81982751016071      1.08226533278537      1.89789063150982
  H   -2.32282248368708      0.76639834801104      1.06256930892444
