14
Coordinates from ORCA-job run
  C   0.65773501735907     -0.08139422723628      0.07059906520279
  C   -0.65107978116424      0.15333700169893     -0.21421703584429
  N   1.71060964074186      0.82091042924132     -0.31987812179637
  O   1.40594971568244      1.76054364247401     -1.06266888053667
  O   2.83191693446311      0.59818468947683      0.12489662768041
  N   1.14035286039078     -1.20431646143402      0.87187411794309
  O   0.95661147852076     -1.13610689333549      2.08328077412098
  O   1.72403629333511     -2.08773232463115      0.25459792788932
  N   -1.67450804563929     -0.80339260930846      0.29476109321929
  O   -2.80627164552950     -0.34669505353795      0.43185458850195
  O   -1.31947509820869     -1.95464939996261      0.51437367949700
  N   -1.19632403161430      1.12232135805476     -0.96311214564270
  H   -2.18492839954377      1.27956151422619     -0.83689926769684
  H   -0.59462493879334      1.87942833427391     -1.24946242253796
