14
Coordinates from ORCA-job run
  C   0.64330321506943     -0.13414148514223     -0.11035971352050
  C   -0.66053257030517      0.23856297930778     -0.00845950713606
  N   1.16184084150195     -1.44094944392161      0.28788556460707
  O   1.26135653483373     -1.65045397213987      1.49292280656433
  O   1.48577100240647     -2.18782348445773     -0.62837773066763
  N   1.67667275731416      0.76864767760558     -0.54985407513824
  O   2.83635394689937      0.38063314754647     -0.45326793694588
  O   1.32140027998827      1.87095230091867     -0.98106441024292
  N   -1.64410498675255     -0.74716135846127      0.52198027727050
  O   -2.65397084280080     -0.26786395780294      1.03068779529609
  O   -1.38355636911943     -1.93714605017952      0.39590769097105
  N   -1.24691697715095      1.38599279925336     -0.37867203899653
  H   -0.64227217573773      2.15043555366061     -0.63813215044383
  H   -2.15534465614676      1.57031529381270      0.01980342838256
