14
Coordinates from ORCA-job run
  C   0.65717418065684     -0.09598245441279      0.05102349335451
  C   -0.65572692367415      0.15564835961868     -0.19823912279471
  N   1.71796598111142      0.72593834389058     -0.47330491854874
  O   2.85178027136723      0.50631786284744     -0.05978058935585
  O   1.40770259438644      1.60026678632238     -1.28967379808665
  N   1.14247417864636     -1.15575886273783      0.93237901985865
  O   1.66763911099859     -2.11320417445893      0.37584109462489
  O   1.02002107455859     -0.96817244144893      2.13886912878543
  N   -1.68227407620787     -0.71143740022957      0.44611284909916
  O   -1.35316659109049     -1.84875382166388      0.75925775459392
  O   -2.79145925919147     -0.20394466519027      0.58905945048935
  N   -1.20584144041273      1.06611956732709     -1.01421512870034
  H   -2.18130961385137      1.27152254779195     -0.85836393743221
  H   -0.59497948729741      1.77044035234408     -1.39896529588740
