14
Coordinates from ORCA-job run
  C   0.65159096779124     -0.03406573798908      0.13600912937623
  C   -0.65922966698735      0.19289045898253     -0.14620809176934
  N   1.71121978922747      0.79665585757790     -0.37664463499165
  O   2.86166577169733      0.41271781078053     -0.19295678895558
  O   1.38476014802745      1.82711931283927     -0.97567047582461
  N   1.14415972699125     -1.17482606977095      0.90500342890829
  O   1.55247442304203     -0.92127311670897      2.03253444068600
  O   1.14287961119945     -2.26337853021966      0.33846559483433
  N   -1.67650557553698     -0.76276614284309      0.37589781092140
  O   -2.72978936165090     -0.81286928468939     -0.25370546471726
  O   -1.39777638556551     -1.39713937158155      1.38573311894900
  N   -1.22099385363596      1.21778120537352     -0.80270037064225
  H   -0.60317955497748      1.84837982689380     -1.29045148554247
  H   -2.16227603962204      1.07177378135514     -1.13530621123208
