14
Coordinates from ORCA-job run
  C   0.86499461148772     -0.07355841490220     -0.03691641652055
  C   -0.53376051135762      0.25071974859864      0.34056656026944
  N   1.26344710007570     -0.52715981810058      1.13693274628039
  O   -0.30909784904244     -0.07496647787749      1.70763294232881
  O   2.12149674650885     -1.01447500994804      1.76904837720552
  N   1.61347035379973     -0.19384178529097     -1.25505107977567
  O   2.78853453611572     -0.53905441467376     -1.15439475355616
  O   0.98461613342805      0.07171070572269     -2.27435327137798
  N   -1.49116833822583     -0.80512344859486     -0.22573363467269
  O   -2.68457155790634     -0.53299521236514     -0.19434877511185
  O   -0.98642259563420     -1.86099031742656     -0.58929858025541
  N   -1.04433675483735      1.51414034054432      0.02344025585883
  H   -0.55004754268627      2.23302345016768      0.53585765805133
  H   -2.03815433172570      1.55357065414626      0.21661797127599
