14
Coordinates from ORCA-job run
  C   0.65275849207870     -0.13622221169783      0.01215368230024
  C   -0.65156732078572      0.21092460084173     -0.15320856517679
  N   1.10690808516051     -1.30762708071075      0.75804433736512
  O   1.57015114748359     -2.22112907218619      0.08478047510492
  O   1.02414535467933     -1.24868308417181      1.98099116551961
  N   1.73888515472123      0.68364960110224     -0.46193497376979
  O   2.87196650439917      0.36558246928258     -0.11600187756778
  O   1.44960926056690      1.65431214443812     -1.16993921289391
  N   -1.70204765761338     -0.66948492421944      0.43238950399870
  O   -2.77344033099267     -0.12341181561977      0.68182567168490
  O   -1.42858597686170     -1.85192237013821      0.59598611650820
  N   -1.17841491099590      1.23346603304632     -0.84139891552148
  H   -2.13570564796213      1.46914142999262     -0.62714664798688
  H   -0.54366215387792      1.94240428004040     -1.17554075956505
