14
Coordinates from ORCA-job run
  C   0.65604831023227     -0.11779492965192      0.01239564348839
  C   -0.65193341674976      0.24943692002561      0.07296919255023
  N   1.24799621478768     -0.88275962300583     -1.08271748664187
  O   0.97624139261654     -2.07874866170613     -1.12837743478799
  O   1.99615652288658     -0.25913493504347     -1.82668950210810
  N   1.58734787286149      0.14839198884803      1.07890096261425
  O   1.19439516495440      0.85837012708105      2.01100637053470
  O   2.69923633984341     -0.36219304970007      0.99090969440900
  N   -1.55145963442213     -0.12871613855413     -1.05335490703865
  O   -1.04472193969940     -0.30073531573053     -2.15491083105416
  O   -2.74431729405273     -0.21420777967280     -0.77387640693828
  N   -1.28592724603320      0.98148827838547      0.99966617123354
  H   -0.78603457043348      1.18574544798889      1.85138804945464
  H   -2.29302771679167      0.92185767073585      1.00369048428432
