14
Coordinates from ORCA-job run
  C   0.85218939113294     -0.03978421882540     -0.16432808344955
  C   -0.48328621729801      0.13736834660664      0.45938190884392
  N   1.39691940342353     -0.77318079301569      0.78841681273437
  O   -0.08648972037405     -0.52914369324561      1.65281279785950
  O   2.32673182394813     -1.38492302043478      1.15525890666675
  N   1.43598943522044      0.18698898961335     -1.45510836102543
  O   0.68159169422219      0.69272670808988     -2.27979934182767
  O   2.61230749240262     -0.13811375313410     -1.59898358610016
  N   -1.51442124012126     -0.75871194838212     -0.23878608985659
  O   -1.06904497419721     -1.66947868461964     -0.92697801218763
  O   -2.69164780713098     -0.53452387363135      0.01237792877805
  N   -1.02060845147458      1.42551786379412      0.55314377839077
  H   -0.45902900030847      1.99925416619074      1.16874810974108
  H   -1.98120182944526      1.38700391099396      0.87284323143260
