14
Coordinates from ORCA-job run
  C   0.63801236523562     -0.18411027683970      0.05939576120349
  C   -0.67229391993915      0.17734389136787      0.09778387532492
  N   1.56979964323514      0.16468620340337      1.10161988610015
  O   2.75623347566984     -0.06505511178300      0.89133378227715
  O   1.10834899285112      0.68177231284104      2.12484374076973
  N   1.27075613434724     -0.87344055043686     -1.06289821138252
  O   1.56864670404205     -2.04638618549579     -0.86843908997473
  O   1.48182266510658     -0.20665871575759     -2.07128702847751
  N   -1.54066638551373     -0.17015423156073     -1.06213154869402
  O   -1.22312553581294     -1.13756039685126     -1.74264293546062
  O   -2.52582942334641      0.54592671791544     -1.22055838493456
  N   -1.36157936050985      0.77207531551728      1.08216814606384
  H   -2.23905222144330      1.19421441861081      0.81764807515369
  H   -0.83107313392221      1.14834660906912      1.85316393203100
