14
Coordinates from ORCA-job run
  C   0.65368974983707     -0.09093062311083      0.08885720468666
  C   -0.64351286776731      0.16220122165268     -0.23068425530908
  N   1.73187593329642      0.78619604055569     -0.29121162352926
  O   2.83817799250692      0.55044365426816      0.18340324293373
  O   1.46123602767033      1.72010110184453     -1.05387902591588
  N   1.09762219252351     -1.21365925418019      0.91211230774845
  O   1.68021478009540     -2.11313689934236      0.31729354750529
  O   0.88707906808661     -1.12980229001508      2.11812871901960
  N   -1.69488719867661     -0.76885320926621      0.26766655367428
  O   -1.36743737904876     -1.92489046936962      0.50463645274407
  O   -2.81949252998165     -0.28805927142492      0.37934837581267
  N   -1.15375910172852      1.12906204109623     -1.00715576608521
  H   -2.14065609088074      1.31013519438986     -0.90025552351981
  H   -0.53115057593265      1.87119276290207     -1.28826020976550
