14
Coordinates from ORCA-job run
  C   0.65438352635204     -0.10141590442230      0.07046436484692
  C   -0.64691621565864      0.17467296226444     -0.21127861050965
  N   1.73621420499259      0.75921170432142     -0.33538331872985
  O   2.85140527676528      0.50125579464364      0.10571283003860
  O   1.46050107929456      1.70214765196836     -1.08508702295137
  N   1.10167438739473     -1.23649075287907      0.87459192560082
  O   1.65142611905775     -2.14250676095885      0.25889319807909
  O   0.92536639102930     -1.15652780110252      2.08642194586128
  N   -1.69898627580252     -0.74215122477152      0.31165837152918
  O   -1.38388270220005     -1.90475369521743      0.53256544902079
  O   -2.81203307397115     -0.24397172051447      0.45732742232998
  N   -1.16286035979001      1.15396397490669     -0.96792461223374
  H   -2.14344801825964      1.34990772702005     -0.83340672308765
  H   -0.53584433920422      1.88665804474155     -1.26355521979439
