14
Coordinates from ORCA-job run
  C   0.85418150661261     -0.18979007603530     -0.06353640868431
  C   -0.46220094139068      0.19811047878624      0.48086717591195
  N   1.31919553127155     -0.79479964144153      1.01361839989512
  O   2.20435996953317     -1.37474799841130      1.51586142419572
  O   -0.20275556764790     -0.36007899026962      1.74571374942577
  N   1.52275342937939     -0.03910712879836     -1.31369998779210
  O   2.64364403236304     -0.52612878268152     -1.43221496148784
  O   0.87536143714026      0.58875622602509     -2.15182272704783
  N   -1.56656121864706     -0.68918949018936     -0.16329037190822
  O   -1.20076491827970     -1.71871600449006     -0.72100380396528
  O   -2.71938442120484     -0.30370701591850     -0.00851064417430
  N   -0.76711292285212      1.56430807617253      0.50230447754047
  H   -0.88637759187985      1.91956448705744     -0.43989139429262
  H   -1.61333832439788      1.72552586019426      1.03660507238346
