14
Coordinates from ORCA-job run
  C   0.62650149410203     -0.15566692758580      0.16387385839401
  C   -0.68287715502457      0.16397510351300     -0.01743855903176
  N   1.38486632143579      0.29467512365810      1.30312950327319
  O   2.59238002990575      0.07870307499396      1.29183876895259
  O   0.76788141742110      0.87763720946962      2.20132245141284
  N   1.43289980299258     -0.91150771555491     -0.79203121177165
  O   1.79438382629108     -0.31410805567474     -1.80113637763218
  O   1.70748660334555     -2.06087057470187     -0.46681795921865
  N   -1.36333340857319     -0.29495106073084     -1.26129876335111
  O   -2.33933226836328      0.36553598652941     -1.60706422903060
  O   -0.91815661480763     -1.28878840525597     -1.82160100947611
  N   -1.52037526612332      0.81042549595764      0.80568671636079
  H   -1.12022493131897      1.25781842986008      1.61613082089950
  H   -2.36209985128293      1.17712231552233      0.38740599021914
