14
Coordinates from ORCA-job run
  C   0.65293717929329     -0.10828439480667      0.07604829067776
  C   -0.64436472084467      0.26700585618091     -0.08386513627141
  N   1.74767803531645      0.60397224232995     -0.53234556902046
  O   1.48578330472385      1.67097062530306     -1.09819799663776
  O   2.85942323241733      0.09107311314238     -0.45638971712260
  N   1.08352776546058     -1.30423097547439      0.79696051508116
  O   0.91087775789603     -2.37996811230952      0.23229141149520
  O   1.61783483899830     -1.10890906938538      1.88263310721385
  N   -1.71027777332288     -0.57566645750856      0.52698765563653
  O   -1.41433113362455     -1.24858074544257      1.50655994501937
  O   -2.81489109374051     -0.50228048131578     -0.00495561346545
  N   -1.14519594657410      1.35561534327130     -0.68509823881252
  H   -0.50745612348367      1.91871733172367     -1.22684640040506
  H   -2.12254532251544      1.31756572429159     -0.93278225338861
