14
Coordinates from ORCA-job run
  C   0.63853725883534     -0.18591101152924      0.02776322209124
  C   -0.62895553296151      0.30487575894636      0.07564844505028
  N   1.51086446547547     -0.19515471261556      1.17467459566944
  O   2.57369362029529     -0.79755134251455      1.06350074337128
  O   1.12029659005386      0.39122816419327      2.18993941432504
  N   1.23383183928793     -0.82957065402152     -1.14137080598618
  O   0.86613399686369     -1.97427095353511     -1.38657859505781
  O   2.08038644981819     -0.17389108732070     -1.73771548981319
  N   -1.47832310078519      0.20752958745671     -1.14531944846869
  O   -0.91304480862190      0.13372487413101     -2.22921211828776
  O   -2.69088905037647      0.22955187433911     -0.95163649006441
  N   -1.25343045782417      0.94503438675306      1.07432952495119
  H   -0.79984903027025      0.95065344465625      1.97510473096129
  H   -2.25925223979025      0.99375167106091      1.01187227125828
