14
Coordinates from ORCA-job run
  C   0.65334291291050     -0.03196120442452      0.12783676599762
  C   -0.66267081798931      0.19009001897991     -0.13318154986424
  N   1.69869628821711      0.82585544796164     -0.37004773153516
  O   2.85482631707052      0.44717354833279     -0.21309775923554
  O   1.35503217724050      1.87183954336508     -0.93125659688845
  N   1.16687233890539     -1.18971945338543      0.85624142084443
  O   1.17085327374849     -2.26060790455072      0.25693733306664
  O   1.58628845971416     -0.96564240408752      1.98592780621876
  N   -1.66458056596135     -0.79209315950660      0.36926025382800
  O   -1.36831649057847     -1.45551263891633      1.35512584470820
  O   -2.72439007711679     -0.83299143852278     -0.24998760058211
  N   -1.24224324420447      1.22910058193050     -0.75108581450390
  H   -2.18502534347534      1.08235898906363     -1.07921466420136
  H   -0.63668522848095      1.88211007376035     -1.22445770785288
