14
Coordinates from ORCA-job run
  C   0.65347242546322     -0.12975492500223     -0.00838643126755
  C   -0.65450171628369      0.22247819854460     -0.12426896026637
  N   1.12092430842055     -1.38740662721333      0.56965197863009
  O   1.03896195514698     -1.49809938620212      1.78911516516450
  O   1.59193567781237     -2.19539672395967     -0.22264349931524
  N   1.73063490673805      0.75693232356358     -0.36946538474760
  O   2.86721552830938      0.40797792785009     -0.06779919040548
  O   1.43028235097103      1.80978434773794     -0.94247733257687
  N   -1.69334266206008     -0.73754860118629      0.34370348120469
  O   -2.76515270770646     -0.23870685346190      0.67650746551500
  O   -1.41122513041676     -1.92930356529131      0.34068620631446
  N   -1.19444036275647      1.32129707754644     -0.67164875959056
  H   -0.56606560112619      2.07570013886470     -0.90302087949232
  H   -2.14869897251193      1.52204666820951     -0.41195385916674
