14
Coordinates from ORCA-job run
  C   0.66087112966711     -0.04470957502983      0.06627079677049
  C   -0.67255467675775      0.19993476248062     -0.04324313778376
  N   1.66076140074852      0.90285224646421     -0.35644703601120
  O   2.82706291012961      0.52252754936320     -0.35461130452356
  O   1.27109354771768      2.02322195062881     -0.70295002219313
  N   1.23651432360568     -1.30304453741467      0.53611989139285
  O   1.73139879243482     -1.27748419499819      1.65710090672469
  O   1.21112376470894     -2.24660306265651     -0.24794432678330
  N   -1.62993037191572     -0.86967043136246      0.35817547081799
  O   -1.24561776291424     -1.70562552066526      1.16645614153094
  O   -2.74450401447078     -0.80393127297073     -0.15343593543259
  N   -1.30034982591551      1.32285980285403     -0.41986962179483
  H   -2.26892920826844      1.22453489588242     -0.68463224066550
  H   -0.73594000876994      2.05613738742438     -0.82098958204909
