14
Coordinates from ORCA-job run
  C   0.65355895906669     -0.09612902545377      0.04019655057388
  C   -0.67019365159178      0.20499875931734     -0.08963118613761
  N   1.69577090032164      0.79654628466968     -0.39876806466946
  O   1.35559081937218      1.87070011324218     -0.90709697761609
  O   2.85340222049554      0.42314842660455     -0.23571491612752
  N   1.19608813316741     -1.32406491106613      0.61990278114339
  O   1.44221378686250     -1.29225992445255      1.82025996175002
  O   1.40825372305030     -2.24352269293597     -0.16259391360157
  N   -1.69170039028718     -0.77494621929929      0.38943167201226
  O   -2.86410059591720     -0.44574052845899      0.23263101268629
  O   -1.29262372418026     -1.81646690768335      0.89518941581625
  N   -1.22529307470701      1.30321973491280     -0.60766224972228
  H   -0.63030833706381      2.03322739049516     -0.96448216558234
  H   -2.23065876858903      1.36028950010835     -0.62966192052523
