14
Coordinates from ORCA-job run
  C   0.64933462899221     -0.14882806161950     -0.00579408522063
  C   -0.64945084764615      0.23515721021229     -0.12787282777948
  N   1.08769238061250     -1.38684154427015      0.63485700510903
  O   1.02811363693816     -1.42452496502263      1.85997886503012
  O   1.51456805160107     -2.25458413790698     -0.11819108640820
  N   1.74743881441577      0.68280574569011     -0.42849423802466
  O   1.47112620413051      1.71441578421911     -1.05034203904744
  O   2.87744904769345      0.31295425920480     -0.12685949543085
  N   -1.71171291396641     -0.66575867389829      0.40202059055416
  O   -2.76972705907283     -0.11936258322517      0.70257558020164
  O   -1.45983056785226     -1.86195727544382      0.47634466486779
  N   -1.16162583264822      1.31916044328852     -0.72777242912387
  H   -0.51492237383839      2.03969043451514     -1.01030251295770
  H   -2.11045316935942      1.55767336425656     -0.48114799176991
