14
Coordinates from ORCA-job run
  C   0.66295758416909     -0.06404772428211     -0.02078509718767
  C   -0.66898672375881      0.14428450190325      0.15764576609371
  N   1.31187682907944     -0.18933567948190     -1.32402740482811
  O   2.01049470927047      0.75829796041636     -1.66494785681242
  O   1.13350355647632     -1.24169331426288     -1.92950563381935
  N   1.57075820949143     -0.26858414516446      1.07923236885349
  O   1.12488693595038     -0.10643573509190      2.22033843593533
  O   2.71799956626922     -0.60328073123345      0.80261031697350
  N   -1.53698636895756      0.27752815034775     -1.04636822156483
  O   -2.72071796631984     -0.00495938505544     -0.88094407902140
  O   -1.01763317582186      0.67079911329925     -2.08339615043307
  N   -1.35686613189980      0.31401828848887      1.29575883139843
  H   -0.87406863100060      0.12327676662134      2.16048710875934
  H   -2.35621839294786      0.18913193349530      1.23490161565307
