14
Coordinates from ORCA-job run
  C   0.62238888032597     -0.16340480266055      0.17325044712924
  C   -0.67811584228128      0.18114277303805     -0.02482813458945
  N   1.40157962391403      0.34691057102093      1.27245441288275
  O   2.60380845611564      0.10327179601738      1.26635618899015
  O   0.80613039892296      1.00464843671593      2.13266380956086
  N   1.39998355357803     -1.00690562071915     -0.73189101327896
  O   1.65123161763604     -2.13526259918639     -0.32449026291092
  O   1.76273021700746     -0.49575927043164     -1.78685377426391
  N   -1.37798652409001     -0.34373031184734     -1.23103583128777
  O   -0.97269409640433     -1.39357586810964     -1.71410296932204
  O   -2.32858793598927      0.32598715689726     -1.62632050378720
  N   -1.49290927236496      0.90672623847418      0.75433378626185
  H   -1.07426605863727      1.39829655796569      1.52915672939515
  H   -2.32229301773301      1.27265494282529      0.31130711522026
