14
Coordinates from ORCA-job run
  C   0.65369226198752     -0.09721543540493      0.08241522684172
  C   -0.64406986541956      0.16867936417331     -0.22443751794592
  N   1.73686282415465      0.76847773658166     -0.30952603732664
  O   2.84563016035883      0.52135206158985      0.15341395673467
  O   1.46830763374777      1.70419702837009     -1.07075715843543
  N   1.09466394233389     -1.22276186901862      0.90331564125652
  O   1.66179956713008     -2.12934997349743      0.30433006354340
  O   0.89685515562765     -1.13476613563861      2.11119554554408
  N   -1.69957711097901     -0.75084405611357      0.28637963132956
  O   -2.81898358448531     -0.25974052298667      0.40514568684749
  O   -1.38057635784014     -1.90901971802007      0.52450960468339
  N   -1.15239429171925      1.13917370502026     -0.99744340870962
  H   -2.13663362381803      1.32914986771621     -0.88219022455946
  H   -0.52557671107910      1.87466794722852     -1.28635100980378
