14
Coordinates from ORCA-job run
  C   0.65436133245776     -0.08532293887689      0.09962954269826
  C   -0.65275183635114      0.24643537067693     -0.07552627315778
  N   1.73510117014943      0.77285359265468     -0.31445069488904
  O   2.86914649348324      0.30807198885017     -0.26463078073961
  O   1.44015872725039      1.90831543626265     -0.70306648988420
  N   1.11488108537138     -1.36907500742349      0.62423667533450
  O   1.59184442553160     -1.34349621156278      1.75307858917386
  O   1.02151977237958     -2.33642754151173     -0.12510423168424
  N   -1.69726480800496     -0.74036434345445      0.31959902067032
  O   -1.41408392049881     -1.55208202438272      1.19176253061454
  O   -2.77432272357377     -0.63384118553362     -0.26086705925727
  N   -1.18609190921065      1.39641992581197     -0.51190655096755
  H   -2.14616682896268      1.35276507108561     -0.81917625939768
  H   -0.55633098002138      2.07474786740366     -0.91257801851413
