14
Coordinates from ORCA-job run
  C   0.64984586494643     -0.14547964874179     -0.02573758657481
  C   -0.65236939932478      0.23865510168578     -0.10288642015502
  N   1.73687239319963      0.71295642325167     -0.42245012287010
  O   1.44543063983316      1.77552727014196     -0.98213158177017
  O   2.87368219866746      0.33162057794563     -0.16359369567765
  N   1.10451191213082     -1.41450581753026      0.53838271167709
  O   1.06873464523433     -1.51843306363990      1.76059711370994
  O   1.51957840623322     -2.23844427689458     -0.26850773348289
  N   -1.70143755214403     -0.69470887376803      0.39624706455675
  O   -2.75583911592089     -0.17031132191303      0.74489535881696
  O   -1.44415224426531     -1.89203424225008      0.40085096928992
  N   -1.17925123033770      1.35168995297596     -0.63276322439828
  H   -2.12433973849439      1.57207007957898     -0.35670404234851
  H   -0.54026677975793      2.08939783915770     -0.88719881077322
