14
Coordinates from ORCA-job run
  C   0.65406594780808     -0.12331246036149      0.02331829144038
  C   -0.65177039789979      0.21382118105732     -0.15182608527964
  N   1.73662848670950      0.76607600650789     -0.31325669700535
  O   1.44935647408232      1.80958197291566     -0.90964856933553
  O   2.86487363360439      0.42799444688846      0.02968041030225
  N   1.11229351621568     -1.36661930896713      0.63945369759123
  O   1.00450232028983     -1.44974718773071      1.85894688883667
  O   1.60286915203324     -2.19045388322592     -0.12405400498827
  N   -1.70226923544872     -0.74673727819897      0.28972560330119
  O   -2.79761394002257     -0.25420970406473      0.54654211515588
  O   -1.40441135483730     -1.93345831997655      0.34274983351550
  N   -1.17611695839945      1.29970645535900     -0.73749368324033
  H   -2.14555961160920      1.49138493411387     -0.53409015889089
  H   -0.54584803252604      2.05497314568328     -0.96004764140310
