14
Coordinates from ORCA-job run
  C   0.65289826251221     -0.12470540794667      0.01996570763336
  C   -0.64929340399047      0.24037390351999     -0.12385546286629
  N   1.73953582646275      0.81493779426214     -0.09239084809440
  O   2.85996946129661      0.41077411448121      0.20132410191466
  O   1.46365476008141      1.96142714295558     -0.46206756286859
  N   1.10277940820260     -1.46952494488274      0.37347989779597
  O   0.96795247249580     -1.80449606593377      1.54621575017955
  O   1.61452293893575     -2.11612417027171     -0.53318654042497
  N   -1.70648564710691     -0.79081191189585      0.07742756870439
  O   -2.81519572141676     -0.36166868533202      0.38526573628014
  O   -1.39941535174586     -1.96377695225030     -0.09531067675503
  N   -1.16222235906402      1.42417712453281     -0.48682247873483
  H   -0.53046154504142      2.20920924857022     -0.52877272599518
  H   -2.13923910162168      1.56920881019111     -0.28127246676877
