14
Coordinates from ORCA-job run
  C   0.64869378487160     -0.15187217111851     -0.01166230719528
  C   -0.62994275543997      0.30838738389469      0.03406324099386
  N   1.73241762518793      0.62096345383588     -0.56364902580192
  O   1.49310113283405      1.79324874205184     -0.87285746517702
  O   2.81110080651840      0.05317832800207     -0.70072292255458
  N   1.05961672082398     -1.49067763347258      0.40499609886898
  O   1.69655663069086     -1.55182191902013      1.45040312713737
  O   0.76850090030912     -2.41542330739940     -0.34739926092248
  N   -1.69319614672662     -0.59315597016822      0.56138496410508
  O   -1.35893128694417     -1.46853448361156      1.34992148791547
  O   -2.83192572235869     -0.35885114812091      0.16561984224730
  N   -1.10802068792728      1.52185358801158     -0.27799310139615
  H   -2.10312299962226      1.57825130074852     -0.43568987971830
  H   -0.48384800221695      2.15345383636672     -0.75641479850235
