14
Coordinates from ORCA-job run
  C   0.65246094748720     -0.11720278003363      0.06467006060817
  C   -0.64241256722431      0.27495175272789     -0.07352705676600
  N   1.74662070026105      0.58541536520140     -0.55608409583365
  O   1.48925728637579      1.65788905155837     -1.11353635058089
  O   2.85336409733786      0.05952282107854     -0.49801956885088
  N   1.08050696421197     -1.32197122238166      0.77226843194761
  O   0.89192497905540     -2.39205660328307      0.20206439163925
  O   1.62989425743020     -1.13890501182112      1.85250633427942
  N   -1.70982280155732     -0.55710360401656      0.55046789368483
  O   -1.40441734264831     -1.24748905564890      1.51479319067318
  O   -2.82405239565465     -0.45842142875041      0.04345505120757
  N   -1.13862904903589      1.37297509491479     -0.66115156280404
  H   -2.12104011106060      1.35023539112613     -0.88997415803430
  H   -0.50265496497839      1.93116022932826     -1.20993256117027
