14
Coordinates from ORCA-job run
  C   0.65181260670672     -0.13680680932290     -0.00591287449759
  C   -0.65201221853626      0.23227966345836     -0.12095156273555
  N   1.74045690893861      0.74054611165969     -0.35404152775256
  O   2.87277516383046      0.36914936993714     -0.06293513970742
  O   1.45430660445429      1.80826416204994     -0.90660732535690
  N   1.10378189441972     -1.40850080233316      0.55414670511477
  O   1.03119433263588     -1.53076832665460      1.77304345436262
  O   1.55426334315270     -2.21551982872624     -0.25092787945990
  N   -1.70512896699863     -0.72103528704370      0.32960386604164
  O   -1.43199860715320     -1.91484557519028      0.32857698404191
  O   -2.77798392743327     -0.21488566907446      0.64771134507477
  N   -1.17502960495186      1.34595591137225     -0.65321406885851
  H   -2.13122682043476      1.55090545746604     -0.40498170257385
  H   -0.53721070863041      2.09526162240191     -0.87451027369343
