14
Coordinates from ORCA-job run
  C   0.64797486309687     -0.05152591801423      0.14687636285436
  C   -0.65315553593695      0.20953775629934     -0.14988576316304
  N   1.72948914148410      0.78972884236979     -0.29869166498306
  O   2.87037481797238      0.37907126547854     -0.11304829154547
  O   1.42993383667520      1.85537006615135     -0.84814660997596
  N   1.10872716262827     -1.23680178107503      0.86646681082625
  O   1.49661729119446     -1.04673094498847      2.01352551175644
  O   1.10523284157171     -2.29493897830611      0.24500310401816
  N   -1.69427903003695     -0.75751778226923      0.29912381277414
  O   -1.44598484057516     -1.44856582533474      1.27922586741055
  O   -2.73419530328858     -0.75889270215368     -0.35423207622370
  N   -1.18706546792918      1.27592683382499     -0.76226894557798
  H   -2.12235964515386      1.16069495136965     -1.12271459174540
  H   -0.55031013170231      1.92264421664785     -1.20223352642528
