14
Coordinates from ORCA-job run
  C   0.65283624625987     -0.04489990050806      0.12501387131259
  C   -0.66040694452270      0.20410883007187     -0.12649904052286
  N   1.71127508467072      0.79621979787442     -0.37227394066741
  O   2.86100323056871      0.39545258180454     -0.22309916360468
  O   1.38468415105955      1.85262265838906     -0.92428433324041
  N   1.14952254903272     -1.22062195631814      0.83698846461031
  O   1.14007436998296     -2.28197197212607      0.22125643665155
  O   1.57155465423991     -1.01898880925542      1.96985104621839
  N   -1.67865811103108     -0.76347132049321      0.37235308962467
  O   -2.74763345090616     -0.76782277788321     -0.23213858037371
  O   -1.38420880143210     -1.45277482084556      1.34078840457797
  N   -1.22247795179283      1.25949499941588     -0.73216695382205
  H   -2.17181537798877      1.13765659886779     -1.05112989451954
  H   -0.60674964814080      1.90499609100612     -1.20265940624483
