14
Coordinates from ORCA-job run
  C   0.65300070925683     -0.09850418072384      0.08651237302260
  C   -0.65309062301936      0.25464207777955     -0.05343664687726
  N   1.73648901962428      0.77904008263364     -0.27782981011327
  O   2.86788992908102      0.30511870518932     -0.26509938951407
  O   1.44708577197492      1.93951349951510     -0.58865765315977
  N   1.11311522835370     -1.41620611022668      0.51958074761150
  O   1.02958648256606     -2.32570743672934     -0.29979102269733
  O   1.58239643298895     -1.47140677761678      1.65050938621866
  N   -1.70326497528536     -0.74852193460427      0.28224153911605
  O   -2.79208268327208     -0.57902948591075     -0.26004181833169
  O   -1.41161966569679     -1.63733034873104      1.07263354381178
  N   -1.17928027768833      1.43650272285891     -0.40471236005689
  H   -0.54725814126836      2.13654819300301     -0.76196866416799
  H   -2.14396720761548      1.42434099356318     -0.69994022486233
