17

C	0.0	0.0	0.0
C	-0.594927	0.074189	-1.392741
F	1.391081	0.0	0.0
H	-1.711166	0.075365	-1.162299
C	-0.47471	1.088463	0.937446
H	-0.114613	0.865002	1.944228
H	-1.573123	1.0726	0.905904
H	-0.087969	2.054455	0.616305
C	-0.379393	-1.321329	0.557446
N	-0.497499	-2.355033	1.101904
N	-0.179456	-1.02732	-2.190457
H	-0.75817	-1.095339	-3.017159
H	0.78368	-0.905112	-2.478215
N	-0.247789	1.405938	-2.020894
O	0.566975	1.411883	-2.953808
O	-0.820972	2.41038	-1.597343
H	-3.058138	0.0	0.0
