17

C	0.0	0.0	0.0
C	-0.376866	-0.026058	-1.502831
F	1.387231	0.0	0.0
H	-0.036713	0.932862	-1.909823
C	-0.56155	1.220342	0.683924
H	-0.17836	1.267039	1.703917
H	-0.260491	2.12472	0.144104
H	-1.657503	1.125511	0.695154
C	-0.403757	-1.223124	0.717683
N	-0.619841	-2.176153	1.37028
N	-1.71204	-0.3094	-1.891961
H	-2.400201	0.269276	-1.346794
H	-1.957876	-1.243545	-1.548139
N	0.522165	-1.047503	-2.165599
O	1.397171	-0.633449	-2.9196
O	0.305694	-2.2286	-1.911389
H	-3.555305	0.0	0.0
