17

C	0.0	0.0	0.0
C	-0.452755	0.122979	-1.474916
F	1.386204	0.0	0.0
H	0.389987	0.59955	-1.995678
C	-0.488858	1.169818	0.829053
H	-1.577752	1.111404	0.905594
H	-0.20546	2.104088	0.343293
H	-0.028064	1.10704	1.818566
C	-0.405963	-1.266545	0.641435
N	-0.637716	-2.263746	1.216062
N	-1.657186	0.80139	-1.629349
H	-1.969628	0.760976	-2.591295
H	-2.446348	0.420846	-0.973031
N	-0.395633	-1.302775	-2.13499
O	0.585348	-2.001775	-1.88268
O	-1.277173	-1.586441	-2.940105
H	-3.395966	0.0	0.0
