17

C	0.0	0.0	0.0
C	-0.436695	-0.059975	-1.492838
F	1.387305	0.0	0.0
H	-0.239235	0.931433	-1.910944
C	-0.557866	1.22736	0.67655
H	-0.23681	2.120236	0.133649
H	-0.196838	1.279696	1.706531
H	-1.653962	1.142257	0.665475
C	-0.395749	-1.218023	0.73424
N	-0.577049	-2.156641	1.416829
N	-1.741881	-0.521521	-1.80715
H	-1.764487	-1.519606	-1.613219
H	-2.48044	-0.145605	-1.111831
N	0.568597	-0.951927	-2.187593
O	1.390348	-0.42808	-2.936899
O	0.492156	-2.156865	-1.952967
H	-3.454046	0.0	0.0
