17

C	0.0	0.0	0.0
C	-0.572531	0.099023	-1.402349
F	1.391041	0.0	0.0
H	-1.687726	0.091479	-1.209166
C	-0.489821	1.075872	0.941662
H	-1.589219	1.047623	0.896972
H	-0.110819	2.048917	0.630995
H	-0.138705	0.850279	1.951236
C	-0.385404	-1.331655	0.525188
N	-0.547817	-2.391527	1.003965
N	-0.120345	-0.975864	-2.21599
H	0.854083	-0.841816	-2.454703
H	-0.661245	-1.019661	-3.068833
N	-0.212387	1.454019	-1.988812
O	0.663319	1.487455	-2.862501
O	-0.83329	2.438899	-1.589856
H	-3.082342	0.0	0.0
