15

C	-0.553868	-0.026711	-1.431038
C	0.0	0.0	0.0
Br	0.294835	1.476575	-2.462284
H	1.092767	0.0	0.0
C	-0.161756	-1.258782	-2.11467
N	0.113221	-2.20795	-2.748133
N	-1.97825	0.061602	-1.410895
H	-2.25986	0.964293	-1.044981
H	-2.360477	-0.048271	-2.343035
N	-0.427813	-1.217979	0.662975
H	-1.378817	-1.147578	1.003012
H	0.210813	-1.427203	1.422083
C	-0.481282	1.228642	0.657985
N	-0.937613	2.146462	1.234485
Br	3.435433	0.0	0.0
