15

C	-0.365317	0.019432	-1.494465
C	0.0	0.0	0.0
Br	0.121219	-1.827297	-2.238015
H	1.102568	0.0	0.0
C	-1.806129	0.11272	-1.734584
N	-2.95772	0.212579	-1.944145
N	0.345705	1.063317	-2.105258
H	0.1989	1.109707	-3.103848
H	1.338987	1.003147	-1.879175
N	-0.598041	-1.136475	0.698729
H	0.024468	-1.926613	0.56474
H	-0.596343	-0.929755	1.691265
C	-0.475102	1.248083	0.599211
N	-0.843672	2.227464	1.133006
Br	3.444078	0.0	0.0
