15

C	-0.550221	-0.029223	-1.438677
C	0.0	0.0	0.0
Br	-0.004968	1.583476	-2.401499
H	1.098234	0.0	0.0
C	0.049032	-1.17125	-2.15041
N	0.462788	-2.133086	-2.685393
N	-1.98863	-0.091786	-1.39267
H	-2.364267	-0.26375	-2.317847
H	-2.211317	-0.877488	-0.785353
N	-0.46938	-1.241025	0.653618
H	-0.781449	-1.036463	1.598119
H	0.34461	-1.84969	0.729812
C	-0.504785	1.17481	0.705528
N	-0.958882	2.084488	1.293279
Br	3.396101	0.0	0.0
