15

C	-0.520788	-0.028946	-1.451915
C	0.0	0.0	0.0
Br	0.299593	-1.523746	-2.400694
H	1.093371	0.0	0.0
C	-1.971836	-0.308089	-1.430375
N	-3.137711	-0.453019	-1.376815
N	-0.17389	1.1857	-2.140378
H	-0.487833	1.153756	-3.100585
H	-0.585121	1.986674	-1.674437
N	-0.436226	-1.18124	0.721077
H	-1.322542	-1.035475	1.18986
H	0.272276	-1.429729	1.401843
C	-0.468547	1.254217	0.615052
N	-0.896268	2.227458	1.118695
Br	3.461873	0.0	0.0
