15

C	-0.439887	-0.00027	-1.463332
C	0.0	0.0	0.0
Br	-2.603885	0.054125	-1.39223
H	1.095994	0.0	0.0
C	-0.160029	1.232858	-2.182416
N	0.075648	2.225849	-2.765788
N	0.024047	-1.120271	-2.095156
H	-0.235406	-1.239849	-3.061378
H	-0.045529	-1.940881	-1.506258
N	-0.381471	-1.271878	0.597741
H	-1.307434	-1.220177	1.005824
H	0.299745	-1.50403	1.311675
C	-0.475405	1.183524	0.719897
N	-0.823231	2.109771	1.353797
Br	3.37676	0.0	0.0
