14

C	-0.503276	-0.034492	-1.417037
C	0.0	0.0	0.0
F	-1.858823	-0.250518	-1.506933
H	1.092924	0.0	0.0
H	0.012345	-0.785279	-2.019471
N	-0.232874	1.294954	-2.071446
O	-1.168236	2.078953	-2.179861
O	0.91927	1.476664	-2.442111
C	-0.447993	-1.219266	0.670587
N	-0.819568	-2.177223	1.244054
N	-0.397287	1.22504	0.683272
H	-1.272534	1.13118	1.181048
H	0.342499	1.454412	1.333053
F	2.522687	0.0	0.0
