14

C	-0.349836	0.02163	-1.45413
C	0.0	0.0	0.0
F	-0.318439	-1.217967	-2.031951
H	1.101828	0.0	0.0
H	0.312147	0.697814	-1.991862
N	-1.75295	0.540967	-1.710753
O	-2.644869	0.172952	-0.949009
O	-1.910551	1.267547	-2.692395
C	-0.540071	-1.139603	0.723174
N	-0.970121	-2.016333	1.379198
N	-0.357507	1.307204	0.55167
H	0.39357	1.586795	1.170017
H	-1.227718	1.270958	1.066884
F	2.530659	0.0	0.0
