14

C	-0.548354	0.193683	-1.397654
C	0.0	0.0	0.0
F	0.108765	1.199948	-2.023746
H	1.093038	0.0	0.0
H	-1.618874	0.411483	-1.411948
N	-0.390958	-1.05328	-2.235079
O	0.592471	-1.158268	-2.954845
O	-1.295364	-1.880375	-2.112215
C	-0.505689	-1.206166	0.631848
N	-0.905489	-2.141299	1.224339
N	-0.353425	1.212126	0.763847
H	0.520498	1.534708	1.165131
H	-0.992168	0.998819	1.519438
F	2.520545	0.0	0.0
