14

C	-0.345389	0.062657	-1.455246
C	0.0	0.0	0.0
F	-0.31263	-1.160689	-2.068478
H	1.101898	0.0	0.0
H	0.320405	0.751854	-1.97023
N	-1.74614	0.594512	-1.699002
O	-2.648685	0.168639	-0.981242
O	-1.889223	1.392634	-2.623575
C	-0.542514	-1.160034	0.687655
N	-0.977185	-2.05575	1.314184
N	-0.365994	1.290916	0.583891
H	-1.230593	1.233811	1.107016
H	0.388379	1.56991	1.19912
F	2.530841	0.0	0.0
