14

C	-0.357734	-0.221784	-1.437113
C	0.0	0.0	0.0
F	-0.348039	-1.542092	-1.794812
H	1.098611	0.0	0.0
H	0.309974	0.341723	-2.085185
N	-1.753512	0.269231	-1.765214
O	-1.898451	0.892056	-2.816286
O	-2.652425	-0.015385	-0.976675
C	-0.532835	-1.005332	0.90465
N	-0.933748	-1.777818	1.695792
N	-0.361242	1.37874	0.330568
H	0.402362	1.767797	0.869225
H	-1.218113	1.426499	0.866054
F	2.531427	0.0	0.0
