14

C	-0.515747	-0.034845	-1.411818
C	0.0	0.0	0.0
F	-1.88231	-0.172982	-1.484676
H	1.095429	0.0	0.0
H	-0.048376	-0.826224	-2.000068
N	-0.167306	1.259944	-2.102536
O	0.995809	1.356072	-2.475394
O	-1.049494	2.098659	-2.239608
C	-0.453595	-1.210115	0.681162
N	-0.828929	-2.162613	1.261187
N	-0.385118	1.234257	0.673721
H	-1.23921	1.144094	1.206745
H	0.378529	1.483078	1.289011
F	2.519007	0.0	0.0
