14

C	-0.546696	0.213235	-1.395803
C	0.0	0.0	0.0
F	0.13092	1.208382	-2.018041
H	1.095292	0.0	0.0
H	-1.612147	0.453528	-1.408411
N	-0.41527	-1.034106	-2.235642
O	0.594099	-1.182548	-2.911851
O	-1.358265	-1.821886	-2.149187
C	-0.497256	-1.220162	0.61052
N	-0.884086	-2.171328	1.185378
N	-0.35616	1.19734	0.784215
H	0.512874	1.503078	1.211479
H	-1.006074	0.969388	1.525147
F	2.52074	0.0	0.0
