19

C	0.0	0.0	0.0
C	-0.229878	-0.013735	-1.560045
Cl	1.831098	0.0	0.0
H	0.590393	-0.634995	-1.948674
N	-0.582765	1.173217	0.585833
H	-1.597539	0.97938	0.396193
H	-0.449551	1.111921	1.589724
C	-0.448507	-1.296747	0.647452
H	-0.086232	-1.346218	1.682398
H	-0.063333	-2.172006	0.116652
H	-1.545123	-1.266717	0.61933
N	-0.098604	1.364733	-2.069362
H	0.548348	1.374355	-2.848946
H	0.29103	1.940266	-1.32289
C	-1.513261	-0.62999	-2.103257
H	-1.520842	-1.712453	-1.947038
H	-1.486631	-0.454053	-3.18587
H	-2.388662	-0.192959	-1.617889
F	-3.040044	0.0	0.0
