19

C	0.0	0.0	0.0
C	-0.303329	0.077878	-1.546121
Cl	1.813785	0.0	0.0
H	0.51437	0.678013	-1.959554
N	-0.486096	1.199032	0.636632
H	-1.50363	1.147248	0.48373
H	-0.344623	1.085139	1.637649
C	-0.503779	-1.26051	0.680183
H	-0.225092	-1.230252	1.739055
H	-1.596732	-1.204927	0.584814
H	-0.103499	-2.179172	0.247789
N	-1.537865	0.780223	-1.859793
H	-2.309044	0.433213	-1.245313
H	-1.763673	0.58363	-2.828967
C	-0.224667	-1.31222	-2.188128
H	0.704472	-1.842319	-1.954005
H	-0.276855	-1.200822	-3.276994
H	-1.079634	-1.916532	-1.874415
F	-3.120653	0.0	0.0
