19

C	0.0	0.0	0.0
C	-0.498395	0.111614	-1.459176
Cl	1.798797	0.0	0.0
H	-1.57109	0.285145	-1.291064
N	-0.534983	1.057886	0.826917
H	-1.558682	0.871338	0.73129
H	-0.349421	1.949966	0.377634
C	-0.454218	-1.313941	0.614739
H	-1.547876	-1.296695	0.537736
H	-0.148325	-1.328602	1.662962
H	-0.009323	-2.162654	0.094611
N	-0.274986	-1.145303	-2.199333
H	-1.004213	-1.786509	-1.903398
H	-0.460291	-0.955069	-3.180418
C	0.130967	1.246994	-2.248384
H	-0.450755	1.432378	-3.158173
H	0.151943	2.179096	-1.680367
H	1.154631	0.992862	-2.533709
F	-2.951898	0.0	0.0
