19

C	0.0	0.0	0.0
C	-0.259855	-0.0245	-1.571625
Cl	1.809295	0.0	0.0
H	0.374267	0.807402	-1.929985
N	-0.5512	1.146776	0.643334
H	-1.574165	0.964348	0.62088
H	-0.380531	1.967498	0.076517
C	-0.515214	-1.238086	0.706075
H	-0.274304	-1.167548	1.769403
H	-0.076054	-2.149856	0.299802
H	-1.604338	-1.216017	0.57493
N	-1.612789	0.221593	-2.012859
H	-2.197296	0.594568	-1.253765
H	-2.075783	-0.687982	-2.096153
C	0.219715	-1.306472	-2.257347
H	1.254537	-1.577527	-2.045517
H	-0.425145	-2.145951	-1.959168
H	0.101717	-1.176336	-3.337008
F	-3.162806	0.0	0.0
