19

C	0.0	0.0	0.0
C	-0.32142	0.082406	-1.558539
Cl	1.803221	0.0	0.0
H	0.516587	0.649456	-1.976747
N	-0.529825	1.194845	0.61475
H	-0.307668	1.157901	1.606115
H	-1.549927	1.021839	0.533276
C	-0.487012	-1.262936	0.690959
H	-0.208004	-1.224554	1.749933
H	-0.072633	-2.175256	0.259016
H	-1.579263	-1.226457	0.595486
N	-1.527827	0.783497	-1.953988
H	-1.403907	1.75438	-1.686896
H	-2.302307	0.436875	-1.354737
C	-0.329098	-1.29827	-2.201705
H	0.569426	-1.876264	-1.970042
H	-1.210919	-1.851343	-1.871511
H	-0.402137	-1.170388	-3.284512
F	-3.053368	0.0	0.0
