16

C	-0.535692	0.064616	-1.408617
C	0.0	0.0	0.0
F	0.074914	1.04313	-2.127261
H	1.09144	0.0	0.0
H	-0.321204	0.936851	0.46643
N	-0.153225	-1.251672	-2.148112
O	-0.999381	-2.1497	-2.109819
O	0.942148	-1.322296	-2.679046
N	-1.936719	0.288189	-1.471782
H	-2.251205	0.23082	-2.433701
H	-2.416375	-0.422912	-0.939603
C	-0.490158	-1.197166	0.810846
H	-0.054281	-1.140034	1.809679
H	-0.161269	-2.138876	0.368719
H	-1.579097	-1.231138	0.923056
Br	3.671244	0.0	0.0
