16

C	-0.324613	-0.176129	-1.459246
C	0.0	0.0	0.0
F	-1.649052	-0.532884	-1.688078
H	1.091921	0.0	0.0
H	-0.377287	0.955268	0.359465
N	-0.305858	1.207302	-2.211514
O	-0.5663	2.231771	-1.587706
O	-0.098429	1.154106	-3.422039
N	0.52115	-1.100185	-2.071219
H	0.487518	-1.020467	-3.078017
H	1.475087	-0.988627	-1.729652
C	-0.516089	-1.170412	0.82959
H	-0.145202	-2.114783	0.429379
H	-1.608446	-1.205501	0.845204
H	-0.155055	-1.073362	1.856401
Br	3.58408	0.0	0.0
