16

C	-0.502278	-0.022661	-1.415226
C	0.0	0.0	0.0
F	0.098023	0.990312	-2.143573
H	1.090576	0.0	0.0
H	-0.33895	-0.909285	0.498071
N	-0.100499	-1.301623	-2.155998
O	-0.326625	-1.290684	-3.364796
O	0.355612	-2.240758	-1.516951
N	-1.915438	0.015036	-1.544548
H	-2.276652	0.819823	-1.050222
H	-2.151803	0.089746	-2.526966
C	-0.477781	1.246326	0.744828
H	-1.547808	1.224381	0.978637
H	-0.253749	2.147441	0.169428
H	0.065782	1.322714	1.687981
Br	3.664892	0.0	0.0
