16

C	-0.387367	-0.12651	-1.462719
C	0.0	0.0	0.0
F	-1.625173	-0.702006	-1.585652
H	1.096084	0.0	0.0
H	-0.308711	-0.949927	0.45226
N	-0.516854	1.275109	-2.057512
O	-1.63843	1.767483	-2.130045
O	0.535777	1.827528	-2.355952
N	0.526008	-0.83992	-2.296948
H	1.451977	-0.437554	-2.151866
H	0.575687	-1.787173	-1.936107
C	-0.59979	1.176813	0.752511
H	-0.319453	1.1164	1.805648
H	-1.69022	1.19572	0.680074
H	-0.209172	2.121058	0.368121
Br	3.60702	0.0	0.0
