14
Coordinates from ORCA-job run
  C   0.70641973543113     -0.46152988248533      0.15312883719184
  C   -0.73707965617986     -0.05074559651112      0.45545259573710
  Cl  1.14937275550509     -1.75936691785526      1.27131060102380
  H   -0.79764706654416      0.27783007375070      1.49601808191021
  N   1.63835962222451      0.72932216866325      0.47504293781812
  O   1.28283783692636      1.42775532932094      1.41124240250926
  O   2.65183567868615      0.81854059166345     -0.19331328369301
  C   0.90348430062535     -0.88672195215005     -1.22114431270963
  N   1.02636951359180     -1.28163911135183     -2.32195295515970
  C   -1.66797487446831     -1.13636138360676      0.19051701359305
  N   -2.41375298662458     -2.01834346120160     -0.02479544406581
  N   -1.14943078670431      1.15928946084217     -0.37639745643391
  O   -2.29032513062203      1.54914270006876     -0.18910762976626
  O   -0.30446894184713      1.63382798085267     -1.12500138795506
