14
Coordinates from ORCA-job run
  C   0.77114581032924     -0.35729808696638      0.11296252422530
  C   -0.69452969994933     -0.14395351267218      0.49987060330079
  Cl  1.45418515027941     -1.56515679098839      1.21140730377467
  H   -0.73767831012609      0.18985923679994      1.53958139399031
  N   1.54785749645617      0.95389981528389      0.36895597967535
  O   2.50383349453971      1.16533486958130     -0.35458135409549
  O   1.15095207604247      1.61693525903173      1.31431660444990
  C   0.94356747252649     -0.77291001022456     -1.26766302146760
  N   1.05428268658758     -1.16628175659312     -2.37027261752140
  C   -1.48100219641463     -1.35112054438575      0.30038058957054
  N   -2.11023327515014     -2.33000514402499      0.13815744290359
  N   -1.31882328131962      0.98426624887813     -0.31437956979286
  O   -0.59439853970653      1.55688003355706     -1.11872496919592
  O   -2.48915888409474      1.21755038272332     -0.06001090981718
