14
Coordinates from ORCA-job run
  C   0.71079959391187     -0.17718079323401      0.24169730346256
  C   -0.72764952989707      0.11917109591999     -0.22882649539585
  Cl  0.80673499201202     -0.29740867830911      1.97789517972349
  H   -0.73733621331365      0.12863388781796     -1.32125246714811
  N   1.54257608834543      1.05246224868481     -0.28015980615659
  O   1.50059035458995      1.16675771994555     -1.49647634212778
  O   2.11289725506980      1.75064164012612      0.53192361479950
  C   1.27466594433458     -1.35212859759608     -0.40580949552621
  N   1.77408033899468     -2.28866966741519     -0.91291810732036
  C   -1.20029494777586      1.38274040082586      0.31251742828953
  N   -1.54880465267732      2.42780357483702      0.72068797867037
  N   -1.63066188116464     -1.02629512076289      0.19359180552894
  O   -2.36537368538068     -0.84751356356384      1.15429052353975
  O   -1.51322365704910     -2.03901414727617     -0.48616112033922
