13

C	-0.548538	0.060175	-1.399866
C	0.0	0.0	0.0
F	-1.980901	0.145785	-1.276687
H	1.091759	0.0	0.0
H	-0.259087	0.989515	-1.890905
H	-0.329259	-0.955892	0.444074
N	-0.177904	-1.052554	-2.186353
H	-0.642683	-1.036963	-3.083285
H	-0.385398	-1.919501	-1.709458
N	-0.457024	1.172806	0.745636
H	0.16754	1.320623	1.527144
H	-1.391446	1.019243	1.099665
Br	3.776531	0.0	0.0
