13

C	-0.404423	0.38296	-1.405259
C	0.0	0.0	0.0
F	-0.235752	-0.749669	-2.243138
H	1.095324	0.0	0.0
H	-1.468061	0.631172	-1.472906
H	-0.384332	-0.995739	0.228614
N	0.384323	1.483982	-1.826202
H	0.213756	1.71371	-2.796276
H	1.370099	1.270184	-1.689608
N	-0.571611	0.981058	0.937856
H	-0.184349	0.785502	1.854701
H	-0.187978	1.880572	0.666609
Br	3.733833	0.0	0.0
