13

C	-0.544437	0.054233	-1.412299
C	0.0	0.0	0.0
F	-0.056989	1.231661	-1.997345
H	1.098135	0.0	0.0
H	-0.151489	-0.771608	-2.012157
H	-0.346972	-0.936042	0.452411
N	-1.977809	0.085408	-1.48299
H	-2.330688	0.436405	-0.60042
H	-2.356369	-0.831018	-1.676228
N	-0.583886	1.123414	0.755029
H	-0.19643	1.967451	0.345755
H	-0.215054	1.084598	1.697998
Br	3.758178	0.0	0.0
