13

C	-0.329379	-0.067097	-1.468477
C	0.0	0.0	0.0
F	-1.705727	-0.140967	-1.700423
H	1.104875	0.0	0.0
H	-0.010285	0.865199	-1.954373
H	-0.368029	0.941301	0.417145
N	0.259937	-1.251153	-2.04153
H	1.252069	-1.244584	-1.813991
H	0.164299	-1.225029	-3.051284
N	-0.576963	-1.139633	0.727754
H	-0.535519	-1.933178	0.097681
H	0.05551	-1.358139	1.489063
Br	3.731964	0.0	0.0
