15

C	-0.538406	-0.050171	-1.427307
C	0.0	0.0	0.0
Br	-0.283815	1.673291	-2.343241
H	1.090959	0.0	0.0
H	-1.617604	-0.21873	-1.454704
C	0.110522	-1.063247	-2.254764
N	0.585992	-1.858637	-2.976528
N	-0.46886	-1.223492	0.683167
O	-1.034821	-2.101262	0.011665
O	-0.256684	-1.329406	1.890956
C	-0.416923	1.214841	0.807926
H	0.12962	2.081525	0.441323
H	-1.494714	1.417497	0.770886
H	-0.113643	1.045086	1.839558
F	2.504957	0.0	0.0
