15

C	-0.290467	0.028344	-1.471832
C	0.0	0.0	0.0
Br	-2.236594	-0.035229	-1.9255
H	1.095919	0.0	0.0
H	0.123477	-0.864481	-1.936704
C	0.251614	1.223021	-2.102428
N	0.65666	2.186362	-2.639298
N	-0.412905	-1.300313	0.547684
O	-0.771422	-1.347492	1.728066
O	-0.320643	-2.295198	-0.178069
C	-0.51986	1.158458	0.810324
H	-0.109351	1.105326	1.817405
H	-1.61208	1.175198	0.872728
H	-0.168233	2.086306	0.353742
F	2.482582	0.0	0.0
