15

C	-0.412971	0.080583	-1.453746
C	0.0	0.0	0.0
Br	0.169286	-1.459736	-2.511163
H	1.090814	0.0	0.0
H	0.172391	0.906072	-1.86638
C	-1.828456	0.334461	-1.710577
N	-2.94761	0.621418	-1.9279
N	-0.572796	-1.174039	0.685828
O	-1.476367	-1.813433	0.131704
O	-0.133814	-1.430572	1.805363
C	-0.420635	1.244285	0.768759
H	0.028728	2.11987	0.294414
H	-1.508228	1.374297	0.819069
H	-0.010437	1.1719	1.776411
F	2.532367	0.0	0.0
