15

C	-0.476766	0.018492	-1.440171
C	0.0	0.0	0.0
Br	0.126394	-1.567833	-2.4187
H	1.090854	0.0	0.0
H	0.043928	0.849735	-1.921356
C	-1.91525	0.17137	-1.6577
N	-3.057638	0.361654	-1.859527
N	-0.493344	-1.246152	0.671006
O	-1.686704	-1.543305	0.530627
O	0.301452	-1.888527	1.352733
C	-0.554228	1.178527	0.780809
H	-1.647106	1.160746	0.844998
H	-0.128483	1.156824	1.786381
H	-0.233085	2.110772	0.309804
F	2.557854	0.0	0.0
