12

C	-0.410764	-0.028736	-1.451161
C	0.0	0.0	0.0
F	-1.796339	-0.021747	-1.576241
H	1.094327	0.0	0.0
H	-0.023503	-0.940214	-1.908742
H	-0.010969	0.850246	-1.953238
C	-0.534422	-1.126081	0.750998
N	-0.922407	-2.080886	1.312909
N	-0.432908	1.297099	0.625242
O	-0.211752	2.309579	-0.029609
O	-0.936996	1.265978	1.743539
Cl	3.188734	0.0	0.0
