12

C	-0.530196	-0.041471	-1.422673
C	0.0	0.0	0.0
F	-0.126615	1.099642	-2.08673
H	1.091057	0.0	0.0
H	-1.620889	-0.071536	-1.4319
H	-0.106719	-0.913234	-1.925049
C	-0.515755	-1.146577	0.739885
N	-0.935507	-2.090858	1.298464
N	-0.525472	1.244981	0.677188
O	0.278585	1.976504	1.235824
O	-1.741743	1.422291	0.616347
Cl	3.244105	0.0	0.0
