12

C	-0.407901	0.001687	-1.450776
C	0.0	0.0	0.0
F	-1.792645	-0.017648	-1.584563
H	1.094338	0.0	0.0
H	-0.023909	0.899243	-1.93124
H	0.000854	-0.890429	-1.928157
C	-0.529828	-1.145075	0.724802
N	-0.932954	-2.112463	1.253755
N	-0.422599	1.274185	0.678725
O	-0.75416	1.212348	1.858713
O	-0.354461	2.300447	0.010421
Cl	3.169448	0.0	0.0
