12

C	-0.52728	-0.240565	-1.408654
C	0.0	0.0	0.0
F	-0.20981	0.841938	-2.202828
H	1.090861	0.0	0.0
H	-1.613946	-0.348759	-1.401108
H	-0.044806	-1.131909	-1.813218
C	-0.50747	-1.04974	0.876279
N	-0.929493	-1.928787	1.529698
N	-0.549441	1.322889	0.465712
O	-1.766935	1.37057	0.648164
O	0.232347	2.256044	0.581187
Cl	3.252328	0.0	0.0
