12

C	-0.410903	-0.001655	-1.449769
C	0.0	0.0	0.0
F	-1.795669	-0.020374	-1.580328
H	1.094433	0.0	0.0
H	-0.027007	0.89432	-1.933661
H	-0.004205	-0.895453	-1.925632
C	-0.531869	-1.142643	0.727582
N	-0.969154	-2.100276	1.247334
N	-0.419991	1.275584	0.678163
O	-0.739627	1.216963	1.86181
O	-0.35995	2.299958	0.00569
Cl	3.170752	0.0	0.0
