15

C	-0.382003	0.061221	-1.455403
C	0.0	0.0	0.0
Cl	-2.217667	0.652305	-1.641262
H	1.096401	0.0	0.0
H	0.143141	0.889237	-1.931398
N	-0.16472	-1.131261	-2.143406
H	-0.399119	-1.069306	-3.123654
H	-0.622604	-1.92091	-1.709657
C	-0.49521	-1.21841	0.611984
N	-0.886753	-2.223235	1.083694
C	-0.368745	1.241094	0.805183
H	0.160012	1.202074	1.760717
H	-1.442083	1.339839	0.974755
H	-0.007359	2.124027	0.270481
H	2.690759	0.0	0.0
