15

C	-0.587242	-0.012688	-1.407099
C	0.0	0.0	0.0
Cl	0.113413	-1.356277	-2.37445
H	1.09482	0.0	0.0
H	-1.657393	-0.265465	-1.355693
N	-0.322332	1.22701	-2.109494
H	-0.674972	1.1455	-3.058896
H	-0.832183	1.974385	-1.646654
C	-0.489352	-1.167479	0.720851
N	-0.905798	-2.091437	1.317691
C	-0.381316	1.275494	0.75805
H	-0.034029	1.189556	1.789236
H	0.153016	2.117376	0.312784
H	-1.461117	1.47022	0.768396
H	2.780757	0.0	0.0
