15

C	-0.606036	-0.042331	-1.398353
C	0.0	0.0	0.0
Cl	0.037629	-1.441118	-2.330058
H	1.094783	0.0	0.0
H	-1.681019	-0.266493	-1.318482
N	-0.323687	1.16069	-2.149346
H	-0.798645	1.11189	-3.043029
H	-0.680095	1.960573	-1.64079
C	-0.48552	-1.149978	0.75137
N	-0.901032	-2.058081	1.372438
C	-0.373503	1.290252	0.739453
H	-0.046038	1.208961	1.777517
H	0.185267	2.120373	0.30066
H	-1.449321	1.50418	0.72782
H	2.774343	0.0	0.0
