15

C	-0.220062	0.02576	-1.504193
C	0.0	0.0	0.0
Cl	-1.983659	0.070469	-1.943619
H	1.098491	0.0	0.0
H	0.190918	0.968538	-1.872557
N	0.429242	-1.050401	-2.207619
H	0.100308	-1.929942	-1.818792
H	1.416621	-0.966104	-1.943814
C	-0.478064	-1.241735	0.578546
N	-0.856753	-2.252452	1.046549
C	-0.49567	1.226391	0.749848
H	-1.58624	1.29984	0.752851
H	-0.079684	2.120731	0.276635
H	-0.132736	1.200856	1.780377
H	2.742829	0.0	0.0
