15

C	-0.345624	0.177506	-1.491391
C	0.0	0.0	0.0
Cl	-0.418825	-1.433207	-2.319822
H	1.096744	0.0	0.0
H	-1.348456	0.597136	-1.623837
N	0.618958	1.004641	-2.162134
H	0.394647	1.979291	-2.011746
H	1.540643	0.81449	-1.754654
C	-0.57318	-1.170047	0.633869
N	-1.062269	-2.081961	1.19319
C	-0.397141	1.259751	0.774882
H	0.102322	2.126738	0.336494
H	-1.480302	1.424627	0.776514
H	-0.05074	1.177472	1.807217
H	2.79127	0.0	0.0
