15

C	-0.204642	0.008817	-1.507324
C	0.0	0.0	0.0
Cl	-1.962596	0.020548	-1.969302
H	1.098474	0.0	0.0
H	0.195856	0.954982	-1.878804
N	0.473157	-1.062901	-2.191739
H	1.453404	-0.963476	-1.905262
H	0.147627	-1.944413	-1.805046
C	-0.478402	-1.237186	0.587485
N	-0.858344	-2.24264	1.065562
C	-0.507026	1.232938	0.730275
H	-1.597709	1.307215	0.710908
H	-0.080526	2.123135	0.258179
H	-0.165698	1.215245	1.768238
H	2.74355	0.0	0.0
