13

C	0.0	0.0	0.0
C	-0.503016	0.115226	-1.437429
Br	1.958345	0.0	0.0
H	-1.553583	0.410694	-1.369855
H	-0.33951	-0.923071	0.471024
H	0.064176	0.904969	-1.939371
C	-0.377034	1.140942	0.831752
N	-0.586072	2.056587	1.537271
C	-0.40373	-1.211735	-2.177846
H	-0.580991	-1.068436	-3.246105
H	0.579538	-1.675791	-2.061832
H	-1.170676	-1.889772	-1.799527
Br	-3.644892	0.0	0.0
