13

C	0.0	0.0	0.0
C	-0.541376	0.189052	-1.412512
Br	1.959005	0.0	0.0
H	-1.619177	0.007015	-1.325037
H	-0.312947	-0.962586	0.404756
H	-0.101205	-0.591718	-2.041642
C	-0.391778	1.064543	0.922309
N	-0.602538	1.952269	1.662494
C	-0.29596	1.573251	-1.993053
H	-0.696114	1.620362	-3.009319
H	0.767573	1.826966	-2.031065
H	-0.818391	2.327451	-1.399429
Br	-3.758739	0.0	0.0
