13

C	0.0	0.0	0.0
C	-0.546468	-0.072815	-1.420411
Br	1.959411	0.0	0.0
H	-1.623202	-0.236502	-1.295835
H	-0.307644	-0.873763	0.57496
H	-0.109063	-0.955105	-1.898816
C	-0.394499	1.211915	0.71563
N	-0.615811	2.206979	1.299361
C	-0.30619	1.182476	-2.244407
H	0.756355	1.423355	-2.335466
H	-0.7134	1.046097	-3.249463
H	-0.823584	2.032299	-1.793847
Br	-3.769489	0.0	0.0
