12
Coordinates from ORCA-job run
  C   1.14129741985524     -0.55837456773994     -0.32239354460909
  C   -0.20393299204724      0.11343282592677     -0.34380833974302
  Br  0.97917275190759     -2.32531440810399     -1.09641779917798
  H   -0.65576509415464      0.18682769385417     -1.33155826668195
  H   1.85380791248719      0.00745288364460     -0.91827564281417
  H   1.49919365034656     -0.65834346584844      0.69918535092481
  N   -0.13066748672742      1.51642795280101      0.21492239632683
  O   -1.18863683974195      2.13407025776009      0.21125113351205
  O   0.95733965471085      1.91365378568356      0.61729900999205
  N   -1.18374275446495     -0.60567815752989      0.53906449706097
  O   -2.23733493333904     -0.96230799795235      0.02680815761534
  O   -0.82873128883219     -0.76184680249561      1.70292304759415
