18

C	0.0	0.0	0.0
C	-0.433178	-0.081385	-1.467864
F	1.404508	0.0	0.0
H	-1.519381	-0.225886	-1.441423
N	-0.510686	1.220768	0.55513
H	-0.357854	1.18904	1.559103
H	-1.537671	1.108261	0.434923
C	-0.416083	-1.238801	0.770437
H	-0.054852	-1.157494	1.802321
H	-0.009395	-2.1394	0.309487
H	-1.511112	-1.263219	0.762692
N	0.206777	-1.234027	-2.08709
H	-0.029591	-1.188563	-3.072081
H	1.210002	-1.094601	-2.019688
N	-0.158114	1.151267	-2.217144
H	-0.805672	1.85579	-1.875791
H	0.760564	1.477308	-1.922646
H	-3.184185	0.0	0.0
