18

C	0.0	0.0	0.0
C	-0.35975	0.161367	-1.493974
F	1.388867	0.0	0.0
H	-0.073669	-0.791027	-1.971319
N	-0.440352	1.169444	0.715701
H	-1.432642	1.299878	0.520212
H	-0.358478	0.989999	1.711919
C	-0.479429	-1.308655	0.584297
H	-0.11923	-1.397414	1.614467
H	-1.573379	-1.317057	0.581298
H	-0.090062	-2.152573	0.009314
N	0.535721	1.186841	-2.076543
H	0.475083	1.971696	-1.433217
H	0.040176	1.498504	-2.902755
N	-1.749476	0.50094	-1.687104
H	-2.097673	0.097137	-2.548519
H	-2.444609	0.234778	-0.942682
H	-3.676084	0.0	0.0
