18

C	0.0	0.0	0.0
C	-0.348471	0.077043	-1.500261
F	1.410004	0.0	0.0
H	0.366244	0.817025	-1.904609
N	-0.447647	1.187833	0.662425
H	-1.075935	1.680469	0.031202
H	-1.005184	0.939412	1.470372
C	-0.468239	-1.259538	0.690567
H	-1.561281	-1.287331	0.648608
H	-0.061334	-2.150114	0.214306
H	-0.139373	-1.222869	1.735251
N	-1.67336	0.590249	-1.690852
H	-1.982628	0.486449	-2.649448
H	-2.41664	0.212967	-1.051796
N	-0.095074	-1.24799	-2.109905
H	0.900656	-1.435881	-2.012134
H	-0.27636	-1.162059	-3.105224
H	-3.694374	0.0	0.0
