18

C	0.0	0.0	0.0
C	-0.353549	-0.082244	-1.510074
F	1.387588	0.0	0.0
H	0.44087	-0.712329	-1.930105
N	-0.52456	1.206493	0.589562
H	-1.547738	1.097631	0.536401
H	-0.289154	1.200703	1.577998
C	-0.413607	-1.26084	0.741424
H	-0.038167	-2.14973	0.229425
H	-1.501796	-1.307604	0.797771
H	0.013999	-1.221143	1.750709
N	-0.16766	1.256842	-2.104175
H	-0.704172	1.281529	-2.964781
H	-0.575505	1.934734	-1.469571
N	-1.609119	-0.769058	-1.723156
H	-2.379427	-0.400279	-1.124623
H	-1.885509	-0.676883	-2.695511
H	-3.483385	0.0	0.0
