16

C	-0.402882	0.155468	-1.454784
C	0.0	0.0	0.0
F	-0.125691	-1.096751	-2.080282
H	1.096427	0.0	0.0
H	-0.383919	-0.950489	0.373804
C	-1.878113	0.406115	-1.686056
H	-2.183274	1.326043	-1.19392
H	-2.455383	-0.423352	-1.274497
H	-2.082118	0.470585	-2.758454
N	0.394152	1.188165	-2.02217
H	1.376924	0.997844	-1.833504
H	0.249273	1.238456	-3.02316
N	-0.555416	1.105651	0.800216
H	-0.223344	0.975619	1.747897
H	-0.094929	1.946793	0.47253
Cl	3.590181	0.0	0.0
