16

C	-0.397455	-0.063376	-1.464084
C	0.0	0.0	0.0
F	-1.813336	-0.043399	-1.512781
H	1.09395	0.0	0.0
H	-0.357392	0.941596	0.440834
C	0.109098	1.134993	-2.232832
H	-0.348484	2.046169	-1.843304
H	1.193421	1.211858	-2.125143
H	-0.155688	1.023676	-3.285447
N	0.019345	-1.287545	-2.096626
H	-0.108286	-2.01372	-1.395258
H	1.020639	-1.216629	-2.252903
N	-0.474189	-1.1954	0.699961
H	-1.400201	-1.038352	1.07416
H	0.154417	-1.396344	1.466141
Cl	3.531571	0.0	0.0
