16

C	-0.430598	0.011343	-1.459795
C	0.0	0.0	0.0
F	-0.22939	-1.297314	-1.939638
H	1.098841	0.0	0.0
H	-0.325615	0.94737	0.446961
C	-1.897651	0.322805	-1.662821
H	-2.151824	0.186589	-2.71523
H	-2.491497	-0.347027	-1.040629
H	-2.114399	1.355036	-1.372918
N	0.401839	0.861734	-2.276528
H	1.373228	0.697644	-2.013347
H	0.196817	1.829772	-2.058384
N	-0.623079	-1.107663	0.735135
H	-0.251208	-1.958307	0.327156
H	-0.263626	-1.079246	1.68335
Cl	3.580469	0.0	0.0
