16

C	-0.495273	0.011283	-1.440441
C	0.0	0.0	0.0
F	-0.336855	1.314742	-1.933223
H	1.093194	0.0	0.0
H	-0.365895	0.916786	0.471844
C	0.337916	-0.889991	-2.328218
H	1.386326	-0.595995	-2.280725
H	-0.020693	-0.827693	-3.360579
H	0.252128	-1.920495	-1.978405
N	-1.911157	-0.2651	-1.448035
H	-2.031849	-1.103184	-0.885765
H	-2.202848	-0.47212	-2.398302
N	-0.478373	-1.214559	0.688609
H	0.318088	-1.678674	1.106404
H	-1.104089	-0.958503	1.440438
Cl	3.643427	0.0	0.0
