16

C	-0.443838	-0.105752	-1.454157
C	0.0	0.0	0.0
F	-0.1522	-1.411442	-1.865452
H	1.092109	0.0	0.0
H	-0.369181	-0.864192	0.567731
C	-1.931722	0.099706	-1.6485
H	-2.217516	1.104333	-1.333206
H	-2.16919	-0.031505	-2.705235
H	-2.489387	-0.634028	-1.059336
N	0.301301	0.776046	-2.326337
H	1.287736	0.565482	-2.173045
H	0.165152	1.712926	-1.957202
N	-0.431266	1.29899	0.544342
H	-1.246528	1.185962	1.132522
H	0.314793	1.662242	1.123332
Cl	3.539822	0.0	0.0
