16

C	-0.469429	0.021808	-1.445885
C	0.0	0.0	0.0
F	-1.904512	0.247695	-1.400959
H	1.092702	0.0	0.0
H	-0.338977	0.936552	0.454523
C	0.124554	1.178135	-2.213485
H	-0.234081	1.175893	-3.247443
H	-0.167612	2.12158	-1.748822
H	1.21201	1.088322	-2.19726
N	-0.218485	-1.208148	-2.103068
H	-0.55678	-1.97887	-1.544684
H	-0.670215	-1.225031	-3.007679
N	-0.493942	-1.11944	0.795054
H	-1.446122	-1.346076	0.537464
H	0.101206	-1.92631	0.668552
Cl	3.609336	0.0	0.0
