16
Coordinates from ORCA-job run
  C   -0.36769980713920     -0.65649291101232     -0.32649659730520
  C   0.51310099985974      0.58475104074612     -0.25910147610993
  H   0.05192484565992     -1.37015624692015     -1.03538759473972
  H   0.50904544694527      1.09459376144820     -1.22245949754661
  N   -1.68377202702393     -0.19938378520191     -0.98254439984602
  O   -1.58641721707222      0.26937645527317     -2.11205078557561
  O   -2.71976762985372     -0.34476370672774     -0.34467720462447
  N   -0.53507850287087     -1.22660800339971      0.95661216099221
  H   -0.89532590724702     -2.16889778248925      0.90056239485787
  H   -1.18107136488542     -0.67120786615095      1.50421716355080
  N   1.95541890813502      0.06563003661361     -0.11030081002456
  O   2.58714668922869      0.41305249501998      0.88044997090328
  O   2.36356775153854     -0.65484234797320     -1.01541328936869
  N   0.10124241755928      1.43962051259947      0.78931766340862
  H   0.49906312418273      2.36343088174010      0.69334096582258
  H   0.39062227298319      1.06089746643455      1.68293133560543
