16
Coordinates from ORCA-job run
  C   -0.75880708393873     -0.08894498600599     -0.11002569317724
  C   0.76257114352068      0.11796524761254      0.00774978347755
  H   -1.27814689777855      0.81574343357053      0.20993923206315
  H   1.27601079534297     -0.83013790125475     -0.15967363278249
  N   -1.13754786149093     -1.16149757133606      0.87436193028827
  O   -0.78232410959779     -2.29883240035706      0.57447486329377
  O   -1.73205686070036     -0.82379564453994      1.89335199972300
  N   -1.22039927073577     -0.50412877200736     -1.39762502329812
  H   -1.27990076360916      0.27052948903781     -2.04142219342529
  H   -0.65812255563592     -1.25218122295625     -1.78112295750656
  N   1.04804071716462      0.50459310116246      1.43320555863811
  O   0.69192577316564      1.63655265657697      1.75177924412829
  O   1.57511480955917     -0.33045342660034      2.16170891206511
  N   1.30646118282075      1.13870792738734     -0.83222251851667
  H   1.42851963441475      0.81714240804840     -1.78079454585979
  H   0.75766134749864      1.98773766166170     -0.80468495911109
