12

C	0.0	0.0	0.0
C	-0.566595	-0.056091	-1.415826
Br	1.951806	0.0	0.0
H	-1.61629	-0.342343	-1.2944
H	-0.322767	0.921946	0.483561
H	-0.039719	-0.833625	-1.975561
C	-0.393644	-1.154391	0.806031
N	-0.611215	-2.100465	1.467883
N	-0.431604	1.256282	-2.046947
H	-0.12935	1.156934	-3.008403
H	-1.348606	1.693846	-2.052428
Br	-3.776391	0.0	0.0
