12

C	0.0	0.0	0.0
C	-0.482057	0.109147	-1.473715
Br	1.950839	0.0	0.0
H	0.078567	-0.641581	-2.039624
H	-0.330172	0.849887	0.59892
H	-0.157478	1.09103	-1.833614
C	-0.43059	-1.2507	0.61134
N	-0.717971	-2.303155	1.047866
N	-1.880966	-0.066083	-1.711301
H	-2.215915	-0.980028	-1.434541
H	-2.489769	0.583644	-1.223538
Br	-4.750638	0.0	0.0
