12

C	0.0	0.0	0.0
C	-0.577806	-0.029915	-1.415523
Br	1.948154	0.0	0.0
H	0.067082	0.577982	-2.056271
H	-0.301429	0.919429	0.503686
H	-1.564937	0.43414	-1.33867
C	-0.402826	-1.141163	0.818582
N	-0.618777	-2.086533	1.480739
N	-0.633337	-1.399149	-1.916229
H	-1.496386	-1.798331	-1.554772
H	-0.731634	-1.372149	-2.924472
Br	-3.699076	0.0	0.0
