12

C	0.0	0.0	0.0
C	-0.481137	0.133999	-1.474201
Br	1.950609	0.0	0.0
H	-0.199043	1.140896	-1.799766
H	-0.339418	0.835557	0.613449
H	0.115571	-0.571576	-2.060191
C	-0.429602	-1.264885	0.583431
N	-0.698717	-2.338325	0.978846
N	-1.869392	-0.095899	-1.728256
H	-2.156069	-1.036309	-1.489233
H	-2.514602	0.5052	-1.222693
Br	-4.728468	0.0	0.0
