12

C	0.0	0.0	0.0
C	-0.460342	-0.00206	-1.453354
Br	1.956973	0.0	0.0
H	-1.550627	-0.068391	-1.409297
H	-0.33918	0.9065	0.498814
H	-0.060977	-0.90262	-1.939916
C	-0.394521	-1.194101	0.741026
N	-0.606102	-2.165153	1.366801
N	-0.0563	1.246935	-2.089025
H	-0.761752	1.526323	-2.755824
H	0.82416	1.137738	-2.573746
Br	-3.632996	0.0	0.0
