12

C	0.0	0.0	0.0
C	-0.49879	-0.048096	-1.459379
Br	1.955228	0.0	0.0
H	-1.514392	-0.442192	-1.424325
H	-0.346679	0.901134	0.503897
H	0.142542	-0.735578	-2.018005
C	-0.376917	-1.187222	0.765373
N	-0.558647	-2.18211	1.363473
N	-0.548305	1.243287	-2.115886
H	-1.342347	1.748359	-1.736669
H	0.296263	1.773202	-1.935227
Br	-3.565293	0.0	0.0
