15

C	-0.409103	0.009251	-1.459639
C	0.0	0.0	0.0
F	-1.805797	0.047465	-1.550784
H	1.093841	0.0	0.0
H	-0.033816	0.93557	-1.896775
C	0.12141	-1.204325	-2.182886
H	-0.123941	-1.137225	-3.244481
H	1.206459	-1.248781	-2.060391
H	-0.32474	-2.114506	-1.776653
C	-0.524644	-1.153345	0.714728
N	-0.919797	-2.128556	1.235974
N	-0.427375	1.268375	0.683986
O	-0.834995	1.192329	1.839243
O	-0.29275	2.305244	0.042663
Br	3.345252	0.0	0.0
