15

C	-0.507362	0.098067	-1.451743
C	0.0	0.0	0.0
F	-0.579866	-1.20785	-1.938664
H	1.093803	0.0	0.0
H	-1.526579	0.493844	-1.459212
C	0.421324	0.885841	-2.340734
H	1.42619	0.466874	-2.283428
H	0.461683	1.924247	-2.014635
H	0.055864	0.844729	-3.36973
C	-0.524587	-1.173223	0.683813
N	-0.979135	-2.115585	1.215576
N	-0.388639	1.216764	0.795991
O	-0.729776	2.219984	0.170104
O	-0.298076	1.137637	2.015604
Br	3.378425	0.0	0.0
