15

C	-0.506507	-0.043482	-1.443847
C	0.0	0.0	0.0
F	0.123909	0.920663	-2.203995
H	1.095032	0.0	0.0
H	-0.176419	-1.014787	-1.828987
C	-2.006347	0.107206	-1.596857
H	-2.271647	0.004795	-2.651102
H	-2.532541	-0.662559	-1.028683
H	-2.320363	1.093545	-1.256508
C	-0.481706	-1.181971	0.704569
N	-0.8978	-2.169304	1.185991
N	-0.424496	1.221856	0.763581
O	-0.601078	2.252959	0.122384
O	-0.509661	1.116251	1.983438
Br	3.343031	0.0	0.0
