16

C	-0.384952	-0.117241	-1.462249
C	0.0	0.0	0.0
F	-1.770914	-0.375707	-1.610215
H	1.094647	0.0	0.0
H	-0.365834	0.949875	0.401757
C	-0.166748	1.173782	-2.147987
N	-0.050755	2.206566	-2.693559
C	0.383392	-1.215605	-2.170605
H	0.098024	-2.180242	-1.747786
H	0.155793	-1.217325	-3.239151
H	1.452483	-1.054222	-1.995135
C	-0.492686	-1.168503	0.845632
H	-0.210417	-0.99325	1.887443
H	-1.577488	-1.29611	0.794513
H	-0.012557	-2.102525	0.544558
H	2.982102	0.0	0.0
