16

C	-0.401855	-0.086848	-1.457143
C	0.0	0.0	0.0
F	-1.809962	-0.213611	-1.588217
H	1.094664	0.0	0.0
H	-0.36205	0.945952	0.415324
C	-0.06813	1.173888	-2.15036
N	0.157837	2.187714	-2.699318
C	0.248972	-1.257884	-2.166311
H	0.019311	-1.236749	-3.233671
H	-0.132432	-2.188297	-1.742894
H	1.329458	-1.202255	-2.000064
C	-0.493668	-1.182044	0.826273
H	-0.273607	-0.99302	1.879906
H	-1.568998	-1.348909	0.721998
H	0.037439	-2.09715	0.55635
H	2.975319	0.0	0.0
