16

C	-0.449575	0.011962	-1.448364
C	0.0	0.0	0.0
F	-0.045778	-1.18698	-2.048579
H	1.094765	0.0	0.0
H	-0.34442	-0.942073	0.441926
C	-1.929957	0.028727	-1.558914
N	-3.10175	0.061383	-1.640332
C	0.163079	1.152311	-2.240454
H	-0.054913	1.021767	-3.303121
H	-0.240072	2.112804	-1.91336
H	1.241736	1.128679	-2.062896
C	-0.510359	1.188885	0.805151
H	-0.181776	1.082276	1.841609
H	-0.083614	2.124505	0.436238
H	-1.602723	1.274601	0.799925
H	3.017328	0.0	0.0
