13

C	-0.641598	-0.005738	-1.358704
C	0.0	0.0	0.0
Br	-0.01495	1.456725	-2.478476
H	1.093952	0.0	0.0
H	-1.727983	0.063174	-1.338908
H	-0.34727	0.914997	0.495756
N	-0.381484	-1.288984	-2.107004
O	0.666113	-1.883283	-1.898386
O	-1.264111	-1.643092	-2.891579
N	-0.517437	-1.205826	0.689641
H	-0.844943	-0.951422	1.61273
H	0.295659	-1.797869	0.823395
F	2.658577	0.0	0.0
