13

C	-0.597837	0.048567	-1.38891
C	0.0	0.0	0.0
Br	0.215738	1.406569	-2.504003
H	1.095694	0.0	0.0
H	-1.664255	0.259707	-1.3756
H	-0.390797	-0.916449	0.461289
N	-0.474134	-1.300903	-2.046078
O	0.547855	-1.605662	-2.644677
O	-1.443667	-2.044093	-1.857888
N	-0.486469	1.194112	0.728258
H	-0.759864	0.911191	1.662759
H	0.337543	1.777384	0.84265
F	2.649138	0.0	0.0
