13

C	-0.370051	-0.043287	-1.442506
C	0.0	0.0	0.0
Br	-2.319924	-0.092509	-1.802007
H	1.095727	0.0	0.0
H	0.038688	-0.91823	-1.938302
H	-0.390843	0.909098	0.466857
N	0.151095	1.149238	-2.185949
O	-0.04844	2.256543	-1.697106
O	0.739628	0.930402	-3.242975
N	-0.415594	-1.25387	0.631857
H	0.367355	-1.56028	1.196317
H	-1.21372	-1.113693	1.236706
F	2.617009	0.0	0.0
