13

C	-0.478848	-0.017033	-1.423424
C	0.0	0.0	0.0
Br	-2.409574	-0.389338	-1.617426
H	1.095787	0.0	0.0
H	0.032536	-0.784935	-2.000265
H	-0.314269	-0.957516	0.44156
N	-0.175272	1.28065	-2.124876
O	0.928936	1.311505	-2.666412
O	-0.978472	2.204	-2.080278
N	-0.459828	1.173733	0.725147
H	-1.255419	0.976921	1.315152
H	0.310474	1.485094	1.300577
F	2.621018	0.0	0.0
