13

C	-0.30622	0.018048	-1.454012
C	0.0	0.0	0.0
Br	-2.221105	0.13956	-1.954156
H	1.102932	0.0	0.0
H	0.071139	-0.876455	-1.942125
H	-0.357776	-0.96491	0.376838
N	0.367574	1.150348	-2.184435
O	0.890998	0.874926	-3.260939
O	0.333463	2.267622	-1.678506
N	-0.623959	1.075966	0.781418
H	-0.152636	1.932437	0.512198
H	-0.345002	0.908119	1.74293
F	2.62998	0.0	0.0
