13

C	-0.226619	-0.067674	-1.473937
C	0.0	0.0	0.0
Br	-2.123916	-0.320726	-2.052789
H	1.095916	0.0	0.0
H	0.320717	-0.885213	-1.936756
H	-0.440153	0.903839	0.421555
N	0.236351	1.176603	-2.173053
O	-0.090222	2.255757	-1.689491
O	0.90518	1.022444	-3.192591
N	-0.408086	-1.205155	0.711635
H	0.351131	-1.871242	0.638518
H	-1.248679	-1.614358	0.320916
F	2.601598	0.0	0.0
