16

C	-0.294451	0.07105	-1.504195
C	0.0	0.0	0.0
Cl	0.075041	-1.690725	-2.206714
H	1.094954	0.0	0.0
N	-1.657682	0.375101	-1.793148
H	-1.785177	0.5138	-2.789888
H	-2.238359	-0.404124	-1.504673
N	0.598661	1.003203	-2.06629
H	1.533892	0.825377	-1.674576
H	0.631541	0.921224	-3.074903
C	-0.623508	-1.145242	0.646996
N	-1.152961	-2.049709	1.180094
N	-0.383251	1.236467	0.680235
H	0.441121	1.827724	0.675004
H	-1.105313	1.69632	0.137891
H	2.718201	0.0	0.0
