16

C	-0.115268	0.01145	-1.528766
C	0.0	0.0	0.0
Cl	-1.845585	0.096112	-2.11854
H	1.101132	0.0	0.0
N	0.529423	1.239735	-1.954866
H	0.569682	1.255209	-2.967846
H	1.48902	1.163372	-1.59453
N	0.445166	-1.229401	-1.999574
H	0.569129	-1.181923	-3.003624
H	1.373775	-1.281615	-1.572908
C	-0.531932	-1.222404	0.585061
N	-0.971874	-2.177639	1.109463
N	-0.494369	1.164704	0.704428
H	0.080217	1.949356	0.414606
H	-1.442276	1.35593	0.390388
H	2.74211	0.0	0.0
