16

C	-0.362696	0.072105	-1.496218
C	0.0	0.0	0.0
Cl	-0.115466	-1.63391	-2.201552
H	1.101293	0.0	0.0
N	-1.723692	0.422794	-1.825247
H	-1.931953	1.214943	-1.220203
H	-2.327629	-0.340776	-1.541577
N	0.520822	1.023846	-2.039532
H	1.483246	0.810494	-1.759121
H	0.414211	1.083001	-3.04321
C	-0.605838	-1.119532	0.693102
N	-1.12003	-1.989405	1.294653
N	-0.475983	1.266416	0.612449
H	-0.333073	1.179892	1.615078
H	0.197361	1.96464	0.299621
H	2.76582	0.0	0.0
