16

C	-0.127051	0.079586	-1.514237
C	0.0	0.0	0.0
Cl	-1.851464	0.136345	-2.112359
H	1.107604	0.0	0.0
N	0.483812	1.34252	-1.893887
H	0.535868	1.388954	-2.905712
H	1.441137	1.293096	-1.523768
N	0.466141	-1.127514	-2.033864
H	1.42402	-1.143752	-1.666673
H	0.506567	-1.076222	-3.047184
C	-0.536276	-1.239431	0.545438
N	-0.939398	-2.216337	1.059398
N	-0.535119	1.166263	0.703985
H	-0.584029	1.91105	0.012747
H	0.180526	1.445408	1.371134
H	2.738732	0.0	0.0
