17

C	-0.525121	0.060685	-1.434307
C	0.0	0.0	0.0
Br	-0.174705	-1.713747	-2.256088
H	1.093518	0.0	0.0
H	-0.368683	-0.907224	0.494035
C	-2.026629	0.281639	-1.501705
H	-2.378305	0.295099	-2.537105
H	-2.562175	-0.506726	-0.964781
H	-2.246202	1.243442	-1.031308
C	0.249307	1.097577	-2.227671
H	1.319649	0.89161	-2.153691
H	-0.064991	1.118034	-3.275539
H	0.056963	2.073897	-1.773385
N	-0.403158	1.233168	0.705259
H	-1.073135	1.024289	1.434224
H	0.433026	1.59874	1.150339
H	3.040886	0.0	0.0
