17

C	-0.530159	0.049501	-1.432573
C	0.0	0.0	0.0
Br	-0.148714	-1.718888	-2.254037
H	1.097662	0.0	0.0
H	-0.365186	-0.906613	0.498523
C	-2.036355	0.242101	-1.492959
H	-2.39241	0.251297	-2.527058
H	-2.272859	1.199303	-1.01969
H	-2.553141	-0.559086	-0.955015
C	0.221644	1.101883	-2.23018
H	1.29659	0.916555	-2.160515
H	-0.096139	1.113704	-3.276863
H	0.010302	2.075481	-1.777972
N	-0.410035	1.234894	0.698602
H	-1.056274	1.023417	1.448665
H	0.431758	1.62297	1.115895
H	3.037906	0.0	0.0
