17

C	-0.520948	0.019827	-1.427962
C	0.0	0.0	0.0
Br	-0.110974	-1.735877	-2.283695
H	1.100375	0.0	0.0
H	-0.321957	0.958146	0.436185
C	-2.029344	0.183899	-1.501705
H	-2.387499	0.136356	-2.53358
H	-2.518154	-0.586393	-0.905265
H	-2.291679	1.163806	-1.084469
C	0.236993	1.076021	-2.214528
H	1.313011	0.914343	-2.107614
H	-0.047906	1.068243	-3.270429
H	-0.002766	2.060888	-1.795114
N	-0.597919	-1.077891	0.806289
H	-0.128059	-1.932828	0.520594
H	-0.287097	-0.919561	1.760156
H	3.110252	0.0	0.0
