17

C	-0.518028	-0.02535	-1.42942
C	0.0	0.0	0.0
Br	-0.123948	1.733432	-2.285234
H	1.100373	0.0	0.0
H	-0.321033	-0.957654	0.437518
C	0.252472	-1.0728	-2.214925
H	0.024494	-2.059705	-1.794165
H	-0.032406	-1.069195	-3.270711
H	1.326164	-0.899172	-2.108197
C	-2.024125	-0.204043	-1.503383
H	-2.382396	-0.157393	-2.535427
H	-2.521788	0.559031	-0.905055
H	-2.275438	-1.187799	-1.088725
N	-0.600772	1.077947	0.80371
H	-0.293747	0.920313	1.759011
H	-0.131479	1.93286	0.518716
H	3.111121	0.0	0.0
