17

C	-0.45646	-0.040745	-1.46393
C	0.0	0.0	0.0
Br	0.017827	1.725218	-2.243911
H	1.093943	0.0	0.0
H	-0.388809	0.902964	0.48296
C	0.312587	-1.101968	-2.235917
H	1.385612	-0.958867	-2.074984
H	0.035707	-2.090248	-1.851221
H	0.077885	-1.068204	-3.303661
C	-1.964778	-0.171933	-1.639425
H	-2.48943	0.611457	-1.085386
H	-2.242713	-0.098921	-2.694113
H	-2.303646	-1.147878	-1.272823
N	-0.373203	-1.189304	0.772785
H	0.37121	-1.868231	0.688762
H	-1.239351	-1.609556	0.467912
H	3.044609	0.0	0.0
