13
Coordinates from ORCA-job run
  C   -0.82317700508165      0.05010430833191      0.04572088397691
  C   0.51912961861910     -0.21556591122648      0.06030905566564
  C   -1.27900064227158      1.35613163848509     -0.34019229326208
  N   -1.67090318851529      2.41677885424382     -0.66646912623315
  N   -1.81535670809911     -0.81152944854328      0.46932483154108
  H   -1.53518307501956     -1.77754012008523      0.56854931559923
  H   -2.71455180229972     -0.69187743095722      0.02967947455552
  C   0.89998701962674     -1.53720921754910      0.43218595129113
  N   1.17644111399195     -2.64278804757911      0.73528103099488
  C   1.59924916950373      0.77551092013790     -0.27085039365636
  H   2.23875860738131      0.95197308538316      0.59830691510441
  H   2.23115316196899      0.39708768030104     -1.07855732839148
  H   1.17345373019509      1.72992368905750     -0.58328831718574
