13
Coordinates from ORCA-job run
  C   -0.79518213986048     -0.23643232273685     -0.03630775328366
  C   0.48657396177649      0.16765861773925      0.22357503387227
  C   -1.13109897126412     -0.70637475069323     -1.35072762056807
  N   -1.42603728139313     -1.08376306589532     -2.42554834858109
  N   -1.81194300707427     -0.32946950157233      0.89281144122866
  H   -2.74714629067051     -0.20954949911976      0.53627281942483
  H   -1.64481838559353      0.14611410684568      1.76894878660606
  C   0.74974342074482      0.64954986872851      1.53889691641737
  N   0.93951289012195      1.04576534315933      2.63268153017921
  C   1.62262007153259      0.14259670441271     -0.76033013048621
  H   2.44328934786226     -0.47213607965102     -0.37926747450369
  H   2.00994426703159      1.15143137772608     -0.92127236264679
  H   1.30454211678635     -0.26539079894304     -1.72073283765889
