13
Coordinates from ORCA-job run
  C   -0.76399660863229     -0.19318050790128      0.29444387883406
  C   0.54192934719304     -0.30350026501311     -0.09087160213488
  C   -1.50068753342930     -1.34447902153201      0.72726542407520
  N   -2.14003553254863     -2.26790826737536      1.07985630797657
  N   -1.42967338144344      1.01490113450362      0.39017121090943
  H   -2.43547018775094      0.95550585108125      0.41327893876953
  H   -1.08677087703657      1.75128752919120     -0.20730914874094
  C   1.16419631192041     -1.58167514745070     -0.11490474740118
  N   1.72200899509569     -2.61915992069952     -0.15374757751851
  C   1.32898655859579      0.91089196157426     -0.50506468598560
  H   1.24948796705816      1.69647965913926      0.25319569083291
  H   0.96630238712453      1.31554369743427     -1.45703397270965
  H   2.38272255385354      0.66529329704812     -0.63027971690695
