13
Coordinates from ORCA-job run
  C   -0.81692443161019     -0.05399576811544      0.11855413777177
  C   0.53198209922234     -0.17023022590675     -0.07994616645399
  C   -1.37606432779505      1.23681388685391      0.40686754099641
  N   -1.84725094434874      2.29262426465687      0.62634700323612
  N   -1.71400500006959     -1.10215192996374      0.16275967351722
  H   -1.37621735393919     -1.97774009114254     -0.21233287818832
  H   -2.65949128065791     -0.88084746082973     -0.10797371420939
  C   1.01914879352122     -1.47500908745588     -0.38088299251110
  N   1.38538837598975     -2.56588225390784     -0.63835162135887
  C   1.51986846354868      0.95891668318615      0.00959141970774
  H   2.08426045657327      1.04841961782353     -0.92197282776551
  H   1.01502020067203      1.90685004796406      0.20040990255233
  H   2.23528494889336      0.78123231683740      0.81693052270558
