13
Coordinates from ORCA-job run
  C   -0.77172698260530     -0.31189962032545     -0.11925436889841
  C   0.54470184036309     -0.21015410000616      0.23203756082516
  C   -1.51772996599678     -1.50160875639651      0.17020451861851
  N   -2.16192102834224     -2.46030314939339      0.39813947382130
  N   -1.44160081243912      0.65427917576441     -0.84579259070903
  H   -1.08560970274220      1.59363599770031     -0.76230111198502
  H   -2.44746471383269      0.59978082492299     -0.82063787864331
  C   1.16961125074625     -1.27298948965016      0.93967272566122
  N   1.72943040331771     -2.12641949993003      1.52915629581003
  C   1.34071974499710      1.01972096661360     -0.11199955825247
  H   2.39846256874264      0.86838003154160      0.09867836225271
  H   1.00568555221105      1.88791550614624      0.46741650460489
  H   1.23644184558049      1.25866211301258     -1.17531993310559
