13
Coordinates from ORCA-job run
  C   -0.83026026855469     -0.09651158998699     -0.06532053774320
  C   0.51063553673501     -0.23202423677777     -0.28877499979050
  C   -1.77904535482091     -0.89358700955036     -0.78690102626989
  N   -2.59095161158709     -1.53009932068676     -1.35402946462682
  N   -1.36849112720665      0.85924371086514      0.77503731443956
  H   -2.32484527897047      0.70725101504666      1.05325187531272
  H   -0.77442021390903      1.17431875965434      1.52556811535089
  C   0.97602162237180     -1.21355034482575     -1.20603740700414
  N   1.40618889494714     -2.01244756306385     -1.95803825881378
  C   1.50165977235950      0.63865321891382      0.43479520866661
  H   1.55412699713902      0.38652630026314      1.50060659763871
  H   1.21812570519856      1.69258896906225      0.35015314500969
  H   2.50125532629780      0.52063809108613      0.01868943783015
