13
Coordinates from ORCA-job run
  C   -0.78347997684665     -0.19703861713451      0.17416902122313
  C   0.48250950127849      0.03173891684461     -0.29230076932656
  C   -1.09604046761734      0.11306064154176      1.54102009634178
  N   -1.37001816760407      0.38246409361662      2.65337902963832
  N   -1.80222691023454     -0.80094057745975     -0.53545786632353
  H   -2.73747533232541     -0.53306418139221     -0.27139285227207
  H   -1.66007819816036     -0.85486035821815     -1.53458150457440
  C   0.71762280355539     -0.27723652551226     -1.66327422970149
  N   0.86836412901714     -0.54048607698405     -2.80275463644282
  C   1.62267644313212      0.56637110652732      0.52810945810357
  H   2.00999439936348      1.49026082533506      0.09117167687155
  H   1.30491921413734      0.77400514666634      1.55054786058378
  H   2.44323256230441     -0.15527439383078      0.56236471587875
