13
Coordinates from ORCA-job run
  C   -0.82180290074705     -0.05532227516054     -0.03978439802135
  C   0.53431881823142     -0.14119982516964      0.11975961556632
  C   -1.37419785465175      1.01691003237736     -0.81817554669436
  N   -1.84322549948816      1.90346149610739     -1.43177966146491
  N   -1.74024275349921     -0.98622108679070      0.40847754121583
  H   -1.39498418310128     -1.63649157981324      1.10353901063349
  H   -2.65848887669773     -0.63155389354468      0.60583269566533
  C   1.00874946664638     -1.21511923506073      0.92738658205282
  N   1.34868492878087     -2.11283248097241      1.61287605658111
  C   1.53834126885694      0.78780405665968     -0.50287167866995
  H   2.22100238454851      0.23405089226777     -1.15504931897566
  H   1.04276572886090      1.55605678876050     -1.09722078172580
  H   2.13907947226016      1.28045711033923      0.26700988383714
