13
Coordinates from ORCA-job run
  C   -0.79201552058454     -0.26803337918697     -0.09245358785765
  C   0.54803893369741     -0.25351316127336      0.17299260279139
  C   -1.53745194908646     -1.49155902214727     -0.03835806870275
  N   -2.18068343651937     -2.47711633762974     -0.01109381528570
  N   -1.53329533531905      0.87317191252711     -0.33204738808096
  H   -2.42068740049703      0.72984297435976     -0.78725332142306
  H   -1.02007847267153      1.66353714509621     -0.69158144332875
  C   1.22146655670953     -1.47097808299417      0.46575173938985
  N   1.82267604684685     -2.45525838153094      0.70899679610483
  C   1.32315388936969      1.03660470926502      0.15451936710986
  H   1.37473080222247      1.45565913494369     -0.85711728006092
  H   0.85077839608604      1.77783672682717      0.80742814863743
  H   2.34436748974600      0.88080576174350      0.50021625070643
