13
Coordinates from ORCA-job run
  C   -0.83941697554515      0.07944257242954      0.10241385846371
  C   0.46177783307684      0.31396890622809     -0.24716371924286
  C   -1.86306954346315      1.01319244110502     -0.26917098992358
  N   -2.73733144812416      1.73818519251169     -0.57867927037565
  N   -1.26599412707404     -0.98312783174519      0.87717348620433
  H   -2.22809656368488     -1.25446441658022      0.74652589294975
  H   -0.63341686738865     -1.76750234251801      0.92821185832168
  C   0.78899753270699      1.52491665031957     -0.92027378530834
  N   1.10941700756759      2.51648230499270     -1.47005987772307
  C   1.58112973021259     -0.61574770542948      0.13390926049347
  H   1.27692542955856     -1.66606999179093      0.07003103770455
  H   2.43409707088309     -0.47938039460216     -0.53104734486394
  H   1.91398092127438     -0.42089538492062      1.15912959329997
