13
Coordinates from ORCA-job run
  C   -0.80744662766543     -0.08037404132621      0.15847578450009
  C   0.49151572555167     -0.05964714479040     -0.27095317304451
  C   -1.12716548684592      0.43471675081436      1.46011426889437
  N   -1.41001982396975      0.86937637463084      2.51669591871532
  N   -1.86651377996066     -0.65259741009305     -0.51834709722871
  H   -1.69718324034218     -0.85002619485678     -1.49513294981508
  H   -2.77025491959730     -0.24420628780124     -0.33777709444774
  C   0.73614724522451     -0.56821512354773     -1.57929751405949
  N   0.89847333506076     -0.98909662268865     -2.66867656242494
  C   1.65977831884916      0.43992209425115      0.53221136139749
  H   1.33222139133228      0.84014430244987      1.49249374381248
  H   2.18733385103228      1.22866329421144     -0.00976982165377
  H   2.37111401133061     -0.36865999125360      0.71996313535447
