13
Coordinates from ORCA-job run
  C   -0.78843688829448     -0.27070446508390      0.10963675103457
  C   0.56240499605467     -0.26141679640998     -0.09233896133420
  C   -1.49226915415457     -1.50651795100585      0.29426817203822
  N   -2.10255332567133     -2.49997656219406      0.45754669680620
  N   -1.57600624039174      0.86576287663177      0.05727998260443
  H   -1.10303431903497      1.72772576751901      0.28221984951713
  H   -2.47910741169504      0.78359341983936      0.49770903840817
  C   1.28470869894548     -1.48603216045281     -0.06872267124543
  N   1.92154101153668     -2.47758733448612     -0.04810324954674
  C   1.29975816717953      1.02936381381751     -0.32637312045579
  H   1.32433434673433      1.64544200054201      0.58006051776695
  H   2.33024564934751      0.83990017587895     -0.62402346197115
  H   0.81741446944394      1.61044721540410     -1.11915954362236
