13
Coordinates from ORCA-job run
  C   -0.82921441998854     -0.15376055567062      0.00368528122861
  C   0.50211458665651     -0.23357849374742     -0.29096708087635
  C   -1.75489663665828     -1.11180424607426     -0.52570583566255
  N   -2.53538795386397     -1.89322566888270     -0.93272930060596
  N   -1.38531752733860      0.88035499645754      0.73431453486060
  H   -0.76592499215311      1.33422958671075      1.38811769346479
  H   -2.30072283895559      0.69846083905444      1.11482890356318
  C   0.98766740605989     -1.30743972937791     -1.08706664773389
  N   1.44399069574322     -2.17503598754862     -1.74169391020173
  C   1.47185851839583      0.79187223056032      0.23299462357000
  H   2.45458671110177      0.66101920035197     -0.21879000156864
  H   1.12014048897544      1.80278267538869      0.00491635022874
  H   1.59210596202543      0.70612515277782      1.31909538973319
