13
Coordinates from ORCA-job run
  C   -0.77513231951544     -0.20540893073900      0.25541537929614
  C   0.53463259111185     -0.30609566943637     -0.11906947992758
  C   -1.49383039111014     -1.35355481824323      0.72585698238030
  N   -2.11373548888857     -2.27171713320696      1.12407400126739
  N   -1.51717179293241      0.95386714339816      0.12272663464026
  H   -2.36156422482041      0.99292491691053      0.67179333150900
  H   -0.98996465977824      1.81326434220997      0.14174021237097
  C   1.21107626730297     -1.55033522039436      0.00750511196234
  N   1.81676280212385     -2.55740251087197      0.09682434427687
  C   1.27817812601790      0.88893960776457     -0.65254799082628
  H   1.44135745895039      1.63959516223581      0.12930345055973
  H   2.25405919193671      0.59702999203136     -1.03827539064764
  H   0.71533243960152      1.35889311834149     -1.46534658686150
