13
Coordinates from ORCA-job run
  C   -0.81740560540838      0.06860739706157      0.09551060455782
  C   0.49340063223913     -0.12206045748127     -0.24761762577944
  C   -1.13376018803294      0.79117713312211      1.29557389668809
  N   -1.41117044901233      1.36293383498272      2.28627531339296
  N   -1.90768074859329     -0.29776494703156     -0.66843965724964
  H   -1.71445055027070     -0.96053404042344     -1.40677872410655
  H   -2.75260138447321     -0.49581978114511     -0.15549304496869
  C   0.73484320366285     -0.86394640084830     -1.43974367100166
  N   0.89260603085488     -1.49038545901207     -2.42614646360154
  C   1.67355202662489      0.40210978670379      0.52131396122663
  H   2.33961234310276     -0.41629040443713      0.80581977139738
  H   2.24918966666360      1.10328577599556     -0.08874834206110
  H   1.35286502264274      0.91768756251313      1.42747398150575
