13
Coordinates from ORCA-job run
  C   -0.81137317770290     -0.15369696747535      0.00466640294710
  C   0.49499611807521      0.22374828796862      0.16211904788653
  C   -1.18123271075816     -0.93670523502778     -1.14100689919811
  N   -1.50026305870657     -1.60118303035726     -2.05868833634600
  N   -1.85937455855329      0.21712439723771      0.82219666349624
  H   -2.63149632881097     -0.42937528164369      0.86663235438028
  H   -1.59504255338806      0.60053495922348      1.71903439977494
  C   0.80556135288686      0.98016510878174      1.32806085421754
  N   1.02745028300554      1.58786811457235      2.31405858535813
  C   1.59715930922876     -0.06823609758713     -0.81774371972864
  H   1.27530397667567     -0.79695142566926     -1.56322923661624
  H   1.90375933246848      0.84416538588314     -1.33596672443399
  H   2.47255201557943     -0.46745821590657     -0.30013339173780
