13
Coordinates from ORCA-job run
  C   -0.79105641600828     -0.11376656247175      0.21090671049343
  C   0.47717199376533     -0.04589414784875     -0.29892329030477
  C   -1.05732560267663      0.43780625152725      1.50963300168249
  N   -1.29469212551887      0.90473406146877      2.56351383606790
  N   -1.85852593712216     -0.76009122329290     -0.37917292862773
  H   -2.77017975822786     -0.39276039712555     -0.15563056172917
  H   -1.73893997654392     -0.99015890144099     -1.35602535959622
  C   0.66657124623646     -0.59034182653802     -1.60187300850344
  N   0.78086699036546     -1.04316486576631     -2.68460186630713
  C   1.66496155889957      0.53737579583698      0.41388544476421
  H   2.41849138943939     -0.23287930907637      0.59973996632327
  H   1.37308133593692      0.97057829459587      1.37152266425932
  H   2.12957530145460      1.31856283013176     -0.19297460852215
