13
Coordinates from ORCA-job run
  C   -0.80048426945703     -0.05997863620706      0.19603831641612
  C   0.46696536178573     -0.01341306029332     -0.31791952889566
  C   -1.03804103203768      0.42362444588032      1.52725187370199
  N   -1.24365485297807      0.79720116405523      2.62416967228203
  N   -1.93022750106879     -0.45700347685945     -0.49098197628145
  H   -1.75896264142309     -0.96386491676603     -1.34844873396666
  H   -2.66907848511781     -0.84807613225824      0.07225507190646
  C   0.63667026414047     -0.53336229882603     -1.63338988428352
  N   0.73725917388525     -0.98234237461378     -2.71901230833120
  C   1.66648980870449      0.55129388732496      0.39010016867620
  H   1.41216525821472      0.86214795437233      1.40434957698451
  H   2.46392887900202     -0.19399449964999      0.44579974846737
  H   2.05797003634979      1.41876794384107     -0.14821199667619
