13
Coordinates from ORCA-job run
  C   -0.81368639802512     -0.19858844069465     -0.07780266887075
  C   0.54919766938869     -0.27376159178693     -0.13263657733319
  C   -1.62811614041889     -1.22649339014043     -0.65705153258959
  N   -2.32743001578657     -2.04419105976689     -1.13497207663273
  N   -1.49565468852650      0.79088705561991      0.60621595507177
  H   -1.00227901711174      1.66356701270349      0.71593631457763
  H   -2.46157695842591      0.91038229784753      0.34343340238466
  C   1.16802930248507     -1.35630469333848     -0.81617780193415
  N   1.72383744540539     -2.23071123672658     -1.37793340458907
  C   1.40615289270504      0.78516781479341      0.50766635971939
  H   2.45728616980414      0.50012341647626      0.48565686295104
  H   1.11481946546624      0.93476152281060      1.55243979824617
  H   1.31042027304014      1.74416129220275     -0.01477463100117
