13
Coordinates from ORCA-job run
  C   -0.80534032937164     -0.02257726423766      0.18260142487165
  C   0.47417526694655     -0.06551291794195     -0.30064466710251
  C   -1.02532720819247      0.30718979131224      1.56283902928704
  N   -1.22288738219692      0.59565610324750      2.68663853563336
  N   -1.94114459815453     -0.36427992034385     -0.52385582613701
  H   -2.78992996640478      0.09663163221055     -0.23531438029093
  H   -1.82682117961262     -0.41823897565042     -1.52658787215858
  C   0.61895549251109     -0.37720570940165     -1.68350789271109
  N   0.69607140933371     -0.62929186639326     -2.83274569049011
  C   1.71421357281169      0.17449551326368      0.51388859785755
  H   2.33845073762095     -0.72271062623358      0.53816615174623
  H   2.30836397558572      0.98201096708582      0.07860555842311
  H   1.46222020912326      0.44583327308258      1.53991703107128
