13
Coordinates from ORCA-job run
  C   -0.76676201098507     -0.21083165618985      0.27429836642372
  C   0.55089037519996     -0.29037776927117     -0.07730849177986
  C   -1.48607318596908     -1.37936800783903      0.69025059792850
  N   -2.10942855788576     -2.31866841498003      1.02939070092070
  N   -1.46370183999387      0.98091137259618      0.35062548915479
  H   -2.46799660133721      0.89696856730616      0.34861553283093
  H   -1.12395789901528      1.72425913278815     -0.24006226207644
  C   1.20451179179589     -1.55292882377602     -0.08062342213720
  N   1.78834308226062     -2.57661806706203     -0.10016262234592
  C   1.31940136833589      0.94203366117329     -0.47297276917559
  H   0.97305295673515      1.33636147226154     -1.43521948679327
  H   2.38185850034150      0.72218608405818     -0.56860186950578
  H   1.19986202051726      1.72607244893463      0.28177023655541
