13
Coordinates from ORCA-job run
  C   -0.80825035021196     -0.02272077904438      0.16819612974203
  C   0.48243513389475     -0.08506991472236     -0.28226335776035
  C   -1.06704234949450      0.44332224949685      1.50168450903728
  N   -1.29606353047085      0.84137473212223      2.58530356842543
  N   -1.92009670693218     -0.46268264895940     -0.52191769726024
  H   -2.78488591594317      0.00549236714127     -0.30096205398094
  H   -1.78124667240551     -0.61879762813545     -1.51083214565789
  C   0.66412053292272     -0.53516484876794     -1.62189198497490
  N   0.76962112667706     -0.90496302484822     -2.73652020077843
  C   1.69858151375279      0.26807122647941      0.52720934559188
  H   2.28402673681832      1.04015079672485      0.02179010267713
  H   1.41808281612374      0.63745831958691      1.51442054212405
  H   2.34171766526878     -0.60647084707377      0.65678324281496
