13
Coordinates from ORCA-job run
  C   -0.81358379461031      0.03779130494237      0.13951424264120
  C   0.48326211538258     -0.10948415178642     -0.27100552725088
  C   -1.09507998607620      0.79347881249563      1.32759707731229
  N   -1.34274971673740      1.39087416077477      2.31096741931724
  N   -1.92686432683592     -0.40746519373052     -0.54517417234221
  H   -2.73068966785604     -0.62445648968480      0.02321173944332
  H   -1.74486512625540     -1.08776193636143     -1.27011897465564
  C   0.69236024059410     -0.89157288639469     -1.44356341351982
  N   0.82722153213114     -1.55323475732145     -2.41004913145538
  C   1.67914676479419      0.49758527154933      0.40733767285635
  H   2.39898376731308     -0.27804351127562      0.68055195743349
  H   1.38667361525245      1.03242722259849      1.31199119988871
  H   2.18418458290370      1.20086215419436     -0.26026008966867
