13
Coordinates from ORCA-job run
  C   -0.81572953370234      0.02221500279801      0.13030651424841
  C   0.51700077176870     -0.21789715894637     -0.06678902043361
  C   -1.27004739484782      1.37392006804591      0.29996101427667
  N   -1.66033343521194      2.47773476632824      0.41986989422287
  N   -1.79041703652710     -0.94382193449948      0.27850200370959
  H   -1.52612642419978     -1.87436593158196     -0.01449733877589
  H   -2.72006944522662     -0.67608849880875     -0.00421744880339
  C   0.89519759744434     -1.57924033368509     -0.25165443268431
  N   1.16716698095990     -2.71537928146757     -0.41119679685807
  C   1.59063179952320      0.83352184430039     -0.09015775837794
  H   2.14482457887915      0.79366114291637     -1.03107806194067
  H   2.30341428141940      0.67429691298425      0.72344364099371
  H   1.16348725972092      1.83144340161605      0.01750779042262
