13
Coordinates from ORCA-job run
  C   -0.79732284499599     -0.03001703030295      0.21345693918962
  C   0.45784100330183     -0.01416960584536     -0.33133925715568
  C   -0.97546354883065      0.36305897585758      1.58308695654199
  N   -1.13508178174780      0.66364680940944      2.70972033260262
  N   -1.96433775472851     -0.30872617129961     -0.46959399281874
  H   -2.71145312988740     -0.69797201738044      0.08394430258377
  H   -1.84399722299007     -0.75885774644692     -1.36645966380688
  C   0.56479116834504     -0.43761430456445     -1.68762916456754
  N   0.61209224534723     -0.80381919371867     -2.80745436985044
  C   1.70536625064401      0.42247807877792      0.38402028271122
  H   2.45309214514779     -0.37450989639396      0.37075725319135
  H   2.14255678644217      1.29762084450822     -0.10403812696877
  H   1.49191668395233      0.67888125739921      1.42252850834749
