13
Coordinates from ORCA-job run
  C   -0.81583488259869      0.09889453018528      0.08397986515804
  C   0.48831498795985     -0.20968634474265     -0.19244846936860
  C   -1.11060132925663      1.24076843135642      0.90338043286829
  N   -1.36757251566387      2.16131062652458      1.59017662710539
  N   -1.91995272175127     -0.54505382567131     -0.43800768735975
  H   -2.74889935945063     -0.52429343017231      0.13516736946326
  H   -1.73646686304536     -1.44606881873654     -0.85757201060829
  C   0.70937130525636     -1.36691113253214     -0.99386956580991
  N   0.85073219812060     -2.33515399989857     -1.65177149584768
  C   1.68032147563197      0.58136391186768      0.26803113292174
  H   1.37585219048316      1.41336499147356      0.90440179851572
  H   2.36695277916175     -0.05352533624305      0.83341942530030
  H   2.22778273515277      0.98499039658906     -0.58788742233852
