13
Coordinates from ORCA-job run
  C   -0.80174613300300      0.11068601778971      0.02399256827066
  C   0.52081086267846     -0.22085120792893      0.16055598896183
  C   -1.17221725133882      1.38105464147813     -0.53401647620187
  N   -1.54153152420403      2.39588457520218     -1.00569964251778
  N   -1.85721207045032     -0.66860591716004      0.44302193641847
  H   -2.76939322260766     -0.42742719105588      0.09122974487432
  H   -1.67925232563210     -1.66187563496094      0.50359384821555
  C   0.78664352624512     -1.51977525244766      0.67830502731054
  N   0.93750507249647     -2.59737835479850      1.12643961068137
  C   1.66969341144758      0.63905518044988     -0.28751403037994
  H   2.41099869764653      0.73216833587130      0.51138599348745
  H   2.16971440297497      0.19788106255905     -1.15590800265894
  H   1.32698655374680      1.64018374500169     -0.55638656646168
