13
Coordinates from ORCA-job run
  C   -0.80609053690682     -0.15988490068828      0.05854862259693
  C   0.54670040517661      0.02661160596003      0.15057672376404
  C   -1.50246216264276      0.30369732718227     -1.10824869168496
  N   -2.08954941921578      0.65116243406767     -2.06746116526599
  N   -1.61349027518019     -0.68853785010576      1.04449222911151
  H   -1.13266528760451     -1.17948927094032      1.78583561314921
  H   -2.45266966855262     -1.14474720479158      0.72411322126142
  C   1.17760655638545     -0.46955557127670      1.32702667050998
  N   1.66068100345431     -0.90426944274004      2.31082839954260
  C   1.38725912352603      0.75108848688032     -0.86404214217589
  H   2.27387569917439      0.16514633977452     -1.11777367978728
  H   1.72640968785099      1.71082776700206     -0.46378628530597
  H   0.82439487453489      0.93895027967581     -1.77910951571560
