13
Coordinates from ORCA-job run
  C   -0.80565208678890      0.11702529470946      0.14242550642850
  C   0.47014712287012     -0.14331257359315     -0.27826010930384
  C   -1.00954271966868      0.81646738485283      1.37984228386427
  N   -1.19344034566294      1.37053768909332      2.40177828396963
  N   -1.95619758113172     -0.15589303023415     -0.56994553920340
  H   -2.78306981825255     -0.32162432028406     -0.01772341181135
  H   -1.84540797303294     -0.79805528132792     -1.34235270270020
  C   0.59993107730641     -0.86288484416132     -1.50120561446021
  N   0.66632955478208     -1.46805915649830     -2.51103810628993
  C   1.72070650970755      0.28139662016865      0.43917303402530
  H   2.30474324455888      0.96780849972548     -0.17970943112739
  H   2.34886455791586     -0.58545890315833      0.65900434958262
  H   1.48258845739682      0.78305262070750      1.37801145702599
