13
Coordinates from ORCA-job run
  C   -0.80967924490022      0.09947448073078      0.13416170891708
  C   0.47588296122934     -0.13234797122664     -0.27329913005011
  C   -1.04136909878052      0.78604032440916      1.37402116663384
  N   -1.24585763497033      1.33180747443620      2.39650874092314
  N   -1.94621730788549     -0.19114248244878     -0.59356253338858
  H   -2.77625612976288     -0.37644889591040     -0.05263967331509
  H   -1.81318028238972     -0.82708467612046     -1.36771907913621
  C   0.63377874691989     -0.83788228673084     -1.50129173857344
  N   0.72221244920420     -1.43208487859077     -2.51589112370304
  C   1.70957904229073      0.31107350851282      0.46189397408180
  H   2.28689222955201      1.01389066784536     -0.14476424859059
  H   1.45114505835679      0.79994828722396      1.40211470899116
  H   2.35206921113620     -0.54524355213039      0.68146722721006
