15

C	-0.45603	-0.086107	-1.441437
C	0.0	0.0	0.0
F	-0.001238	1.084336	-2.077868
H	1.087778	0.0	0.0
H	-1.544743	-0.069285	-1.54341
N	0.10949	-1.257018	-1.989647
H	-0.060145	-1.299115	-2.986215
H	1.111189	-1.258902	-1.802218
N	-0.472148	-1.195928	0.745363
O	0.277025	-2.1653	0.792394
O	-1.602338	-1.139313	1.241782
N	-0.531985	1.169293	0.712559
O	-0.081565	1.339114	1.84735
O	-1.355041	1.903049	0.155409
H	2.609103	0.0	0.0
