15

C	-0.453109	0.03255	-1.446831
C	0.0	0.0	0.0
F	0.029497	-1.142281	-2.05201
H	1.087959	0.0	0.0
H	0.077147	0.854849	-1.925664
N	-1.853771	0.188364	-1.605989
H	-2.086462	0.268623	-2.587773
H	-2.313865	-0.620806	-1.210172
N	-0.459134	-1.162687	0.755286
O	0.123767	-1.380466	1.818896
O	-1.34034	-1.896966	0.275341
N	-0.387737	1.23346	0.674938
O	-0.077498	2.264757	0.069195
O	-0.915785	1.203362	1.790759
H	2.446552	0.0	0.0
