15

C	-0.491673	0.031458	-1.432693
C	0.0	0.0	0.0
F	-0.077503	-1.169046	-2.037397
H	1.08798	0.0	0.0
H	0.055294	0.826423	-1.939902
N	-1.89103	0.242958	-1.548608
H	-2.158628	0.297071	-2.5225
H	-2.372042	-0.528863	-1.10515
N	-0.468126	-1.152292	0.773499
O	0.162811	-1.403287	1.799818
O	-1.41801	-1.832283	0.351496
N	-0.390512	1.235044	0.677302
O	-0.058421	2.267483	0.087104
O	-0.949607	1.195495	1.778047
H	2.467962	0.0	0.0
