15

C	-0.513216	-0.098825	-1.425237
C	0.0	0.0	0.0
F	-0.520469	1.225255	-1.941841
H	1.087081	0.0	0.0
H	-1.556996	-0.41859	-1.472137
N	0.344216	-0.961376	-2.120437
H	0.146372	-0.98446	-3.110615
H	1.317397	-0.730838	-1.926225
N	-0.471054	-1.096672	0.860041
O	-1.124723	-2.018078	0.364691
O	-0.129551	-1.024424	2.041545
N	-0.51082	1.246633	0.631391
O	-1.671992	1.219002	1.048236
O	0.236417	2.216513	0.661214
H	2.641827	0.0	0.0
