15

C	-0.49129	0.031663	-1.432926
C	0.0	0.0	0.0
F	-0.076623	-1.168866	-2.037138
H	1.087956	0.0	0.0
H	0.05567	0.82669	-1.93997
N	-1.890617	0.242848	-1.549014
H	-2.371491	-0.529278	-1.10589
H	-2.157864	0.296874	-2.523038
N	-0.467945	-1.152925	0.772816
O	0.162323	-1.403346	1.800274
O	-1.417432	-1.833461	0.349286
N	-0.390759	1.234795	0.677412
O	-0.950867	1.195017	1.776707
O	-0.058144	2.267299	0.088312
H	2.468352	0.0	0.0
