15

C	-0.538435	-0.057333	-1.412271
C	0.0	0.0	0.0
F	-0.119569	1.109585	-2.069405
H	1.087793	0.0	0.0
H	-1.6314	-0.034891	-1.431418
N	-0.032136	-1.232791	-2.012603
H	-0.293067	-1.268517	-2.988053
H	0.980591	-1.242101	-1.92056
N	-0.490343	-1.208195	0.725939
O	-1.661172	-1.173946	1.122114
O	0.273605	-2.156687	0.846209
N	-0.508155	1.157262	0.754154
O	0.008867	1.326621	1.86169
O	-1.376985	1.879576	0.255273
H	2.637951	0.0	0.0
