15

C	-0.462556	-0.054269	-1.440572
C	0.0	0.0	0.0
F	0.026914	1.103389	-2.070082
H	1.087767	0.0	0.0
H	-1.550788	-0.002846	-1.536446
N	0.058312	-1.239569	-2.006887
H	1.061419	-1.273446	-1.834272
H	-0.122863	-1.262048	-3.001653
N	-0.4743	-1.209801	0.720684
O	-1.60806	-1.164566	1.210204
O	0.275126	-2.179237	0.753483
N	-0.516533	1.156118	0.739846
O	-0.102792	1.263899	1.896755
O	-1.277683	1.951248	0.179455
H	2.596343	0.0	0.0
