15

C	-0.431128	-0.112039	-1.457571
C	0.0	0.0	0.0
F	-0.502751	1.215028	-1.96411
H	1.087133	0.0	0.0
H	-1.444165	-0.504776	-1.568833
N	0.527916	-0.904712	-2.101728
H	1.472626	-0.63881	-1.818478
H	0.415972	-0.916413	-3.104633
N	-0.455104	-1.132153	0.818269
O	-0.169685	-1.064959	2.016429
O	-1.011603	-2.088808	0.270359
N	-0.544665	1.233214	0.611258
O	0.170687	2.227739	0.605624
O	-1.701386	1.181995	1.038267
H	2.621355	0.0	0.0
