16

C	0.0	0.0	0.0
C	-0.262652	-0.097723	-1.529646
F	1.387896	0.0	0.0
H	0.076241	-1.088317	-1.828794
N	-0.504276	1.117424	0.616369
H	-1.561942	0.918141	0.499126
H	-0.237604	1.100147	1.594271
N	-0.33895	-1.354857	0.678742
O	-0.440499	-1.315363	1.899163
O	-0.389749	-2.366228	-0.011485
C	0.561998	0.91556	-2.188439
N	1.215371	1.699098	-2.768176
N	-1.647154	0.028594	-2.133732
O	-2.137933	-1.018047	-2.534692
O	-2.068763	1.156465	-2.332554
F	-2.573298	0.0	0.0
