16

C	0.0	0.0	0.0
C	-0.22135	-0.474575	-1.488831
F	1.388495	0.0	0.0
H	0.195307	-1.477941	-1.5702
N	-0.525967	1.188598	0.445592
H	-0.270562	1.922953	-0.205298
H	-1.589124	0.945989	0.380072
N	-0.400626	-1.142715	0.941082
O	-0.706086	-0.857226	2.085716
O	-0.265192	-2.280244	0.494583
C	0.526906	0.438168	-2.352242
N	1.160423	1.145327	-3.0432
N	-1.617943	-0.571462	-2.056355
O	-2.078078	0.437274	-2.573512
O	-2.101867	-1.693967	-2.08303
F	-2.602389	0.0	0.0
