16

C	0.0	0.0	0.0
C	-0.576346	-0.388146	-1.36537
F	1.355586	0.0	0.0
H	-1.674933	-0.476539	-1.144811
N	-0.5487	1.199401	0.414588
H	-0.26325	1.378365	1.370345
H	-1.588835	0.999634	0.357718
N	-0.31311	-1.176335	0.988885
O	-0.216399	-0.890178	2.178632
O	-0.556418	-2.288531	0.538105
C	0.065232	-1.528168	-1.995785
N	0.559	-2.424112	-2.573566
N	-0.373189	0.795573	-2.281306
O	0.783736	1.058905	-2.604079
O	-1.374582	1.401728	-2.644716
F	-2.763532	0.0	0.0
