13
Coordinates from ORCA-job run
  C   -0.86466637768570     -0.26471872100267      0.28376847197665
  C   0.65913415579772     -0.19734914759257      0.24009127838507
  Br  -1.64048769662921      1.30388135170108      1.04327570846921
  H   1.01801944796916     -1.03123849713030     -0.37202367374798
  H   -1.16154269211185     -1.12078388350869      0.89210753009665
  N   -1.40181588275688     -0.59135642440527     -1.11206827185422
  O   -2.30149412421193      0.07720101633421     -1.58274165274764
  O   -0.86852138737615     -1.57827652523367     -1.60638202629762
  C   1.22961493230141     -0.26093883308799      1.57670236828544
  N   1.67024042229607     -0.37225511037288      2.65967271475062
  N   1.11344169544389      1.05675317974771     -0.48680711702528
  O   0.54642858560665      1.25393745520960     -1.55372064456850
  O   2.00264892135683      1.72414413934143      0.01912531427762
