13
Coordinates from ORCA-job run
  C   -0.44732942396235     -0.66535130394850     -0.37803560600427
  C   0.41199945809765      0.27573995685071      0.45790716140087
  Br  -0.31632397282529     -2.46993043574282      0.26258744425531
  H   0.15684011334166      0.20311169817816      1.51485479255805
  H   -0.16468631799330     -0.64236113713550     -1.42855244009590
  N   -1.88201263480656     -0.21388556615789     -0.28813950673975
  O   -2.26177431952602      0.19362518328422      0.80465315392055
  O   -2.54082430612181     -0.31020198370036     -1.31562843973157
  C   0.28186108249857      1.64583508501937     -0.02622749578324
  N   0.15936375739756      2.74180035466526     -0.43113131444930
  N   1.85777491994917     -0.15157678687977      0.31273510972078
  O   2.46757199011873     -0.37016149315137      1.35075728674114
  O   2.27753965383197     -0.23764357128149     -0.83478014579267
