13
Coordinates from ORCA-job run
  C   -0.56997690124384     -0.84344870675457      0.17112685156167
  C   0.64990139056708     -0.00379425179580      0.51235355583318
  Br  -1.55534558067223     -1.27125878087698      1.76321407650074
  H   1.31566897606116     -0.62124831746137      1.12607626133481
  H   -0.28002842882058     -1.77473124970341     -0.31005290281786
  N   -1.46729727959181     -0.13045239603190     -0.81677796515066
  O   -1.17855886785851      1.03007673712644     -1.09022688055933
  O   -2.38692247121965     -0.79266490593998     -1.27256537447479
  C   0.35902836642640      1.23545821264664      1.21851244072407
  N   0.14409145525504      2.20247061813597      1.84869948008799
  N   1.45179459836527      0.27468108161664     -0.75682630265082
  O   1.40103198737417     -0.60392146453867     -1.60903818097653
  O   2.11561275535750      1.29683342357699     -0.78449505941247
