13
Coordinates from ORCA-job run
  C   -0.46822141510234     -0.91854629943981      0.04757874313792
  C   0.64081100823874      0.00517399373670      0.52360616393005
  Br  -1.41028139206389     -1.66191276447567      1.54715232802807
  H   1.36866673577229     -0.60559093951309      1.06978719477374
  H   -0.06560401019949     -1.73909539882186     -0.54192083783426
  N   -1.43431472637291     -0.19202669099628     -0.86235365357737
  O   -2.26568829468549     -0.89143295732438     -1.42065588376590
  O   -1.28103183976722      1.01949991357492     -0.97962692363503
  C   0.19844091370038      1.10025210788703      1.37443341130337
  N   -0.13561779378813      1.94584390094763      2.11731876274082
  N   1.41694765927588      0.53680326503182     -0.67902318860678
  O   1.47706376230746     -0.22261429732227     -1.63835495459464
  O   1.95782939268473      1.62264616671527     -0.55794116189997
