13
Coordinates from ORCA-job run
  C   -0.85912480609447     -0.26978425604840      0.29153217169871
  C   0.66276859050089     -0.16263229135750      0.25793983938785
  Br  -1.68518886184406      1.32287550116537      0.94038765167646
  H   1.05115872742069     -1.02367670009983     -0.29572308327353
  H   -1.13921090712368     -1.09249036937853      0.95166453994642
  N   -1.37178688192977     -0.70087842096228     -1.08481101540513
  O   -0.80427013496297     -1.70078927834656     -1.51016191031947
  O   -2.28742107337318     -0.09229039982186     -1.60362210494394
  C   1.21894666596925     -0.12321737825615      1.60145445107715
  N   1.63856066154387     -0.15497489681359      2.69792763672879
  N   1.09027102418314      1.05434004990725     -0.54461494891935
  O   0.52874928193648      1.16702579595027     -1.62658630024834
  O   1.95654771377385      1.77649264406181     -0.07538692740564
