13
Coordinates from ORCA-job run
  C   -0.46535050234054     -0.65489205004813     -0.37126884728316
  C   0.46290322147017      0.26051751303337      0.41819175254724
  Br  -0.14629595600708     -2.49788332584416      0.06048927892058
  H   0.37619889010507      0.07631138266162      1.48869460639017
  H   -0.34856261094309     -0.51876286249327     -1.44450651008402
  N   -1.89085672913421     -0.30949599072063     -0.02694995026138
  O   -2.11756771510932     -0.01350157490506      1.14158910652871
  O   -2.69573139913867     -0.37200056343275     -0.94749154895790
  C   0.19150820544156      1.65725410361636      0.09579055443165
  N   -0.04786513258010      2.77320638744459     -0.18251531928125
  N   1.88896069143217     -0.05787768311631      0.01995308289420
  O   2.13314709063240     -0.00888887844940     -1.17946741658458
  O   2.65951194617154     -0.33398645774635      0.92949121073968
