13
Coordinates from ORCA-job run
  C   -0.46134264433888     -0.66762818888987     -0.35193176471637
  C   0.45422330174336      0.27727147263098      0.41729246162480
  Br  -0.16902588671307     -2.49068975874181      0.17370126265957
  H   0.33812602625942      0.14544097223400      1.49271227349009
  H   -0.31592888131085     -0.58315819902378     -1.42701681288194
  N   -1.89266108396039     -0.29725095415491     -0.06172466397085
  O   -2.67590646766412     -0.40935730360964     -0.99601696849737
  O   -2.14545770091109      0.06543254495188      1.08245807484435
  C   0.20385118052275      1.65893033730023      0.02141384010351
  N   -0.01912385335447      2.76209323176656     -0.31534671255677
  N   1.88721881853043     -0.07118781707501      0.07192982685996
  O   2.16300913263257     -0.07877926807412     -1.12159919903032
  O   2.63101805856436     -0.31211706931454      1.01312838207137
