13
Coordinates from ORCA-job run
  C   -0.57351254950611     -0.83760582316367      0.18623085105996
  C   0.66623400461501     -0.01316599032714      0.49053417057103
  Br  -1.50912402291332     -1.26292688831434      1.80886604636521
  H   1.34462993532455     -0.63968967145262      1.08076378273042
  H   -0.31030630822320     -1.76961244063199     -0.30873400391072
  N   -1.49561564278669     -0.11005159847420     -0.76768734998797
  O   -1.20196789364994      1.04761557344562     -1.04789655651165
  O   -2.43834049803341     -0.75954005444756     -1.19367175030970
  C   0.41201075683808      1.22695684150550      1.20915191056896
  N   0.22920820513247      2.19462770807684      1.84844101673096
  N   1.43065324355452      0.26108008714114     -0.80265185645849
  O   1.33572675396147     -0.60863423699510     -1.66006702618553
  O   2.11240401568658      1.27094649363759     -0.84327923466250
