13
Coordinates from ORCA-job run
  C   -0.53381792664775     -0.45998488654150     -0.53502384212925
  C   0.49785335608804      0.07455839179956      0.45103628335861
  Br  -0.36313691127919     -2.36028624047814     -0.74789123200983
  H   0.43242659938190     -0.44525289410015      1.40649270913740
  H   -0.44229428800090      0.01338754010610     -1.51052012576924
  N   -1.91112288463526     -0.14703728430175     -0.01140220090878
  O   -2.06878608050644     -0.22504257634049      1.20258758068790
  O   -2.75246837321571      0.14105497048689     -0.85298776571063
  C   0.34083510610575      1.51529499078437      0.61882169555605
  N   0.19389337423406      2.67467392761210      0.73856534827454
  N   1.87589651300670     -0.19663460384436     -0.11623098657281
  O   2.08150472194798      0.22636077464001     -1.24732418671154
  O   2.65021679352089     -0.81109210982264      0.60487672279756
