13
Coordinates from ORCA-job run
  C   -0.50277733977187     -0.48534309584546     -0.54236891057772
  C   0.49300646752798      0.09994818417527      0.45179952835747
  Br  -0.20309214515673     -2.36511159870818     -0.79252293698971
  H   0.46670801955505     -0.44087995981300      1.39740478404903
  H   -0.44647199766578      0.01168625581483     -1.50874778924012
  N   -1.89685473070757     -0.27781208088575     -0.01031129619563
  O   -2.75890505785095     -0.03293347126156     -0.84450902941719
  O   -2.04453775310195     -0.38874650775250      1.20240417880233
  C   0.23778489187506      1.52308107738265      0.64680218504371
  N   0.01141852130208      2.66716212590337      0.78795565922695
  N   1.88447305612029     -0.06560385225806     -0.12344634987984
  O   2.70060925698394     -0.64165365095428      0.58310456876944
  O   2.05763881089042      0.39420657420263     -1.24556459194873
