13
Coordinates from ORCA-job run
  C   -0.54448657117859     -0.85495126651359      0.19373617221795
  C   0.67219858661405      0.00879862752392      0.48289980734716
  Br  -1.44802964219596     -1.30767872659348      1.82675375727738
  H   1.37683367094022     -0.59621239901052      1.06478589864748
  H   -0.25683318570408     -1.77854528970249     -0.30340260221897
  N   -1.49973944814044     -0.15839778996941     -0.75062662281645
  O   -1.24752785378539      1.00842672158281     -1.03357290708974
  O   -2.42532541636725     -0.83840093031508     -1.16656919026721
  C   0.38761515865906      1.24055935770412      1.20441573427365
  N   0.17835937261186      2.20135882538615      1.84594660313786
  N   1.41155270667474      0.30557277864565     -0.81961405680256
  O   1.34230238468219     -0.57299410846633     -1.67056209470242
  O   2.05208023718957      1.34146419972820     -0.87419049900420
