13
Coordinates from ORCA-job run
  C   -0.78704859042194     -0.47775056841635      0.22592674159198
  C   0.65488207838767      0.01288102894572      0.31862725175205
  Br  -2.04378190770272      0.85728743479123      0.75335564217495
  H   1.29650736743849     -0.72592832464829     -0.17261449224040
  H   -0.90804383369339     -1.33945085182518      0.88463249820336
  N   -1.04818266395558     -1.03602749057729     -1.17497528480265
  O   -2.03673246293061     -0.68406033938609     -1.78884318818475
  O   -0.21135586408054     -1.86332835702194     -1.51884877537243
  C   1.06090374444324      0.20374191986135      1.70232835470539
  N   1.38840602178227      0.29583200915262      2.82641652156841
  N   0.83170941182070      1.29186698972356     -0.48198474228477
  O   1.44089000258782      2.21485817806872      0.03676694053173
  O   0.35984669632460      1.24907837133196     -1.61078746764287
