13
Coordinates from ORCA-job run
  C   -0.81889689795179     -0.41157332083589      0.23760625406611
  C   0.63948373305792      0.02295166666018      0.35065026423212
  Br  -2.03201626349980      1.03231128423043      0.52712531204476
  H   1.26660934856047     -0.79830241800366     -0.01144948996907
  H   -1.01682085186361     -1.17825445411093      0.98866916682096
  N   -1.03703218167682     -1.12775144542907     -1.09735699718625
  O   -1.97581815806027     -0.81281223516243     -1.80283194882304
  O   -0.22566838733882     -2.02588232503181     -1.29205715328659
  C   0.98357928215989      0.36568595924360      1.72174493818033
  N   1.24294109463452      0.58982383739845      2.84504195692101
  N   0.92090943925531      1.18407928738403     -0.58781583059483
  O   1.55231535135657      2.13471266754697     -0.15224728998925
  O   0.50241449136641      1.02401149611009     -1.72707918241627
