13
Coordinates from ORCA-job run
  C   -0.68881037691609     -0.59661014707739      0.25607256151064
  C   0.67593175640413      0.08621338081329      0.26082438561036
  Br  -2.05882327349551      0.51197923335578      0.98648128592866
  H   1.36089266386570     -0.52239766787358     -0.33856146057862
  H   -0.62901342567047     -1.50570603767779      0.85690991249517
  N   -1.00379837345076     -1.09876717081631     -1.15522699632072
  O   -0.10047695132128     -1.77916138106891     -1.62853755014305
  O   -2.08327557058447     -0.84963128458607     -1.65598828211297
  C   1.18239918701063      0.24547897843301      1.61504184267934
  N   1.58590663244495      0.30928483260569      2.71618810676654
  N   0.60072795984686      1.42472645395070     -0.45351394387559
  O   0.03717961824284      1.38507824830147     -1.53964608824777
  O   1.12216015362346      2.39151256164011      0.08095622628797
