14
Coordinates from ORCA-job run
  C   0.62992091467624      0.02675853305433      0.00011126337514
  C   -0.73665686039453      0.02913610723110     -0.02056076592809
  N   1.36173110650364     -1.19126438815727      0.23257978420442
  O   0.84353769054290     -2.27348095260034     -0.06547960126307
  O   2.49326121432427     -1.07196009667368      0.71752173645133
  N   1.34640955345947      1.23059964559905     -0.18146442048879
  H   1.91909847504848      1.19267676820042     -1.01735823039317
  H   1.96943690623726      1.38305411966672      0.60348855944633
  N   -1.51236923195241     -1.09353581713074      0.24611567623702
  H   -1.32939952411956     -1.88592775680090     -0.34773288312079
  H   -2.49687774968531     -0.88333257954342      0.31743583697867
  N   -1.38850789727323      1.20613267288839     -0.32057644682804
  H   -2.31170153715508      1.31683325488039      0.06840139621827
  H   -0.78788306021213      2.01431048938598     -0.23248190488923
