14
Coordinates from ORCA-job run
  C   0.59790767695825      0.05221410670566      0.07509272076823
  C   -0.77720177972447      0.00409397729186     -0.05200463711679
  N   1.38559396193829     -1.11516652373039      0.31015180832851
  O   0.83151262347528     -2.20684405591949      0.53720932686759
  O   2.61464534108203     -0.97375071397225      0.29546974059489
  N   1.25991075222093      1.28361627611676     -0.13286164010934
  H   1.88054443379344      1.22121806134271     -0.93247698465766
  H   1.84283554807457      1.50857882270523      0.66563665931601
  N   -1.57064999938546     -1.07087841244257      0.21215664332670
  H   -2.40849638626533     -1.12952111700519     -0.34416310954360
  H   -1.06178620158764     -1.93186490631862      0.35238412090020
  N   -1.43761963596539      1.13344306363141     -0.47488669346487
  H   -0.82646301580532      1.93863073346960     -0.48043737359988
  H   -2.33073331880918      1.28523068812529     -0.03127058160999
