14
Coordinates from ORCA-job run
  C   0.59394631341214      0.06699255365392      0.09364567927170
  C   -0.77501728257435     -0.01030834999950     -0.08038279140389
  N   1.38096137004321     -1.05986236689128      0.47907432320883
  O   2.60888442801380     -0.90892973754764      0.48842243972453
  O   0.82674895404232     -2.12849516380025      0.79787807835529
  N   1.25421006537217      1.27658040259996     -0.22158783506238
  H   1.80886981009165      1.58904881841161      0.56758202292134
  H   1.90220937182264      1.13693262116798     -0.98927391419479
  N   -1.56981803484234     -1.06036947218588      0.26605381579644
  H   -1.06090353188407     -1.89634151047015      0.51576491020725
  H   -2.38862946493570     -1.18465289119131     -0.30767867415832
  N   -1.42632083071073      1.06139131546189     -0.64420132862042
  H   -2.33598184937216      1.25130883470761     -0.25173893234040
  H   -0.82015931847859      1.86770494608304     -0.71155779370517
