14
Coordinates from ORCA-job run
  C   0.67630082831150      0.02712787904097      0.10356792774779
  C   -0.63068473692559     -0.01219810296744     -0.19009257292893
  N   1.37020617894690     -1.21850268221706      0.42611267261034
  O   2.27774411976828     -1.55204300733788     -0.33052420287342
  O   0.96412517324729     -1.85883191021291      1.39204278606218
  N   1.50836660204792      1.13433896118756      0.31749410804036
  H   1.01538038383335      2.00787339179412      0.41804177553631
  H   2.22595519921068      1.22322644930838     -0.39140228136924
  N   -1.30385056536440     -1.25260666120819     -0.14202710886890
  H   -1.64892192561905     -1.48854203896813      0.77808700323613
  H   -2.04494022557690     -1.28185717078094     -0.82773466873887
  N   -1.36784701350865      1.08608900467476     -0.67419731131494
  H   -0.83149677272104      1.93895615311970     -0.74413725269009
  H   -2.20933724565027      1.24696973456705     -0.13523087444872
