14
Coordinates from ORCA-job run
  C   0.59932168504807      0.06129125591334      0.05629623340730
  C   -0.77880354936842     -0.00706147047662     -0.01943625873702
  N   1.41276567706489     -1.09597192662903      0.25069401891076
  O   2.63767661736707     -0.93868664435275      0.17685764501299
  O   0.88390503331751     -2.19682792005796      0.49342898917179
  N   1.23468628231931      1.30220318884717     -0.17676583014466
  H   1.81898491301030      1.25127181368430     -1.00424409690505
  H   1.85076972650966      1.53162671848732      0.59509518057051
  N   -1.54604528252057     -1.09428428033810      0.27055893545879
  H   -1.02031495337779     -1.94880480533547      0.38724046759123
  H   -2.40568795082596     -1.16129957889804     -0.25064194992507
  N   -1.47105129378138      1.11467177032046     -0.41194453838037
  H   -2.34622075482041      1.25388627664164      0.07014900748795
  H   -0.87098614994228      1.92798560219375     -0.43628780351916
