14
Coordinates from ORCA-job run
  C   0.69601363242427     -0.03027492141264      0.10905238844360
  C   -0.65881126937570     -0.13540510488891     -0.08751464675643
  N   1.25435717537571      0.21049556694143      1.40888568706023
  O   2.41688510469468      0.61722074820325      1.44574345567165
  O   0.55117704901483      0.05266127788946      2.42408576598054
  N   1.63883678311771     -0.16012109515967     -0.91916565797815
  H   2.07013239542179      0.69666793478186     -1.23400743330241
  H   1.29976532793057     -0.72988972937330     -1.67865576096572
  N   -1.60762067161745     -0.37315858774898      0.87788767882856
  H   -2.47616552321565      0.12399403080628      0.74921368121180
  H   -1.23006246823272     -0.31741560516019      1.81436024654550
  N   -1.12474919190225     -0.18797661492907     -1.39865008298296
  H   -2.12585118903977     -0.25233358916470     -1.49073391594693
  H   -0.70390715459600      0.48353568921518     -2.02150140580930
