14
Coordinates from ORCA-job run
  C   0.60322290335105     -0.04171633536607      0.13939402925137
  C   -0.76530399867161     -0.02004000221292     -0.06120251951822
  N   1.48461264996189     -0.06576522060054     -1.00621661584061
  O   2.70373001675270     -0.04887596734127     -0.72689712059451
  O   1.03749085532953     -0.06633323711187     -2.17178900914838
  N   1.13833080139430      0.01601849902613      1.41112775937360
  H   1.77579547620384      0.77579459708586      1.57503153737738
  H   1.57827502433104     -0.84275288303292      1.69861231537524
  N   -1.58231153644236      0.01981433464650      1.04598496013984
  H   -1.06041885138106      0.23207881126731      1.88815035154861
  H   -2.47203171952586      0.48550580053484      0.94745135451383
  N   -1.35479821048747     -0.09298213395534     -1.26910187701416
  H   -0.74125807711021     -0.16405151235734     -2.07612196722134
  H   -2.34633533370580     -0.18569475058237     -1.39442319824264
