14
Coordinates from ORCA-job run
  C   0.61222462349874      0.02302879065168      0.05523817474456
  C   -0.77607110558774      0.03389335949591      0.02919448728231
  N   1.36315610337565     -1.17807851193578      0.11971453063355
  O   0.77715802270442     -2.27973417101913      0.15953943270076
  O   2.59766119766483     -1.07430263386722      0.11847252868772
  N   1.29984412204974      1.25502666312122     -0.03679760655634
  H   1.98238949967416      1.21358570486141     -0.78559257565285
  H   1.82077118420654      1.43747509104447      0.81437153330831
  N   -1.56282482203561     -1.05770790479074      0.12870146775356
  H   -1.11000494337270     -1.95423924810921      0.04370850927296
  H   -2.55503899675483     -0.97366947356940      0.00247879230495
  N   -1.40306452578984      1.25563823856648      0.01612734220991
  H   -2.28880172453685      1.29674249521782     -0.46258950959968
  H   -0.75739863509648      2.00134160033249     -0.20456710708973
