14
Coordinates from ORCA-job run
  C   0.60378073579030      0.03046755746309     -0.02582849630302
  C   -0.77820492248243      0.01922432195660     -0.03135299680387
  N   1.37797009310280     -1.16304933719216      0.09437265894214
  O   0.81807393910992     -2.27504113553759      0.07088762852551
  O   2.60241612291772     -1.02745735144911      0.20830654555940
  N   1.27611174530741      1.27375484931908     -0.03597677386285
  H   1.94506856968850      1.30450060878867     -0.79722414580413
  H   1.80852236681004      1.39598502400895      0.81857836438074
  N   -1.57200899617969     -1.08367338869818     -0.12176468673024
  H   -1.07669853178159     -1.95652484624728     -0.00770609921189
  H   -2.46318930133089     -1.00735059682342      0.34203413361161
  N   -1.44399757894019      1.21949937975080      0.05256280458725
  H   -2.28373183075123      1.27099629633111     -0.50404053089257
  H   -0.81311241126068      2.00066861832944     -0.06484840599809
