14
Coordinates from ORCA-job run
  C   0.60106390459197      0.03882607227466      0.05548704235015
  C   -0.76372814051574      0.01011516302220     -0.14972688591469
  N   1.35844964971420     -1.14648638368200      0.31876765181952
  O   2.54502106995138     -0.99442335235345      0.63299970531072
  O   0.82003107900127     -2.26396249792956      0.22084804485531
  N   1.25502189053847      1.28828471022649      0.14489526172470
  H   1.66801254049199      1.40794872575503      1.06328976940029
  H   2.01788680113624      1.33504517108287     -0.52120623018234
  N   -1.45384752813649      1.20257036316846     -0.16891688586180
  H   -2.18376729556070      1.23962894588649     -0.86541386345222
  H   -0.81662838418451      1.98801062542031     -0.19446958089316
  N   -1.52477903059957     -1.10337027400408     -0.35102539830636
  H   -1.04620392385514     -1.97107592871450     -0.15566548899581
  H   -2.47753263257337     -1.03011134015291     -0.03086314185430
