14
Coordinates from ORCA-job run
  C   0.71803185899341      0.03148729392350      0.07274195859001
  C   -0.62682962530463      0.02712005005492     -0.05051872786965
  N   1.45040917277259     -1.22234611632281      0.23486974268964
  O   2.33695520137479     -1.21584101155774      1.09233361027362
  O   1.15781241568590     -2.17388965149757     -0.48329419672083
  N   1.56001863794440      1.12767375422683     -0.03403425083080
  H   2.30964722350595      1.08991456492707      0.64347316395917
  H   1.01438817167374      1.97685716215013      0.03485529572358
  N   -1.22701792137484      1.32241050507824     -0.19317279055129
  H   -1.96463506172047      1.45394115279958      0.49040262124244
  H   -1.64228189579757      1.41762079074867     -1.11442365945594
  N   -1.37000523593560     -1.17845485530301     -0.04602633192148
  H   -2.30505064168598     -1.02595463545588      0.30532925065412
  H   -1.41044230013168     -1.62953900377193     -0.95053568578260
