14
Coordinates from ORCA-job run
  C   0.60310727978669      0.04585078980503      0.00527280769353
  C   -0.77531408657100     -0.00869272566445     -0.07952152614412
  N   1.39726865290589     -1.10196762636479      0.30499351442010
  O   0.86798831139408     -2.22720437761931      0.37120603339403
  O   2.60812750872463     -0.91601324465670      0.47766689488212
  N   1.24373375496853      1.30125744388237     -0.10187471591944
  H   1.71939907336631      1.53158384467490      0.76377622595835
  H   1.95745746696615      1.27069502907930     -0.82133949231565
  N   -1.53426594555747     -1.13955598587778     -0.09469059264598
  H   -1.02461155047610     -1.97817820439097      0.14481934889150
  H   -2.45359349565240     -1.04210025832172      0.30602573369091
  N   -1.47415199132986      1.17200423107686     -0.16828886323131
  H   -2.27974899211352      1.13635480918863     -0.77430190951448
  H   -0.85639598641192      1.95496627518863     -0.33374345915955
