14
Coordinates from ORCA-job run
  C   0.71599676948265      0.02410417574933      0.11200753750429
  C   -0.62634410717724      0.02779112699927     -0.07817572751925
  N   1.42806082538537     -1.22797066866420      0.28831945455349
  O   0.87192274329332     -2.15210487641644      0.88298577925741
  O   2.57351401300564     -1.26712443969274     -0.16788023678177
  N   1.53719945336584      1.14166997485423      0.25332008213263
  H   0.99961971923399      1.97425866486692      0.05562483430206
  H   2.36480098945673      1.07467146790110     -0.32306298715139
  N   -1.20924543220037      1.30291484640028     -0.35696993398550
  H   -2.04632810874934      1.43802336038314      0.19660072895419
  H   -1.44724889985007      1.40130872631977     -1.33750997915090
  N   -1.42437058161533     -1.12180536598884     -0.02335637302147
  H   -2.36997556674060     -0.95564332821578     -0.32802427072386
  H   -1.36660181689059     -1.66009366449603      0.82612109163005
