14
Coordinates from ORCA-job run
  C   0.68779292832429      0.03456340418532      0.17250265232166
  C   -0.63740627184176      0.01099731808412     -0.07247632435488
  N   1.41962299326950     -1.21774505039569      0.23800939174190
  O   1.06598585366153     -2.10004691456552      1.01532611653696
  O   2.43371217381198     -1.26444145667789     -0.46887072588445
  N   1.51194642424099      1.14389750440022      0.33473425230489
  H   2.28073246470082      1.14659022733467     -0.32216624895497
  H   0.99973360213586      2.01193674669014      0.33534688071286
  N   -1.31208078115813      1.23200914635493     -0.30687310058648
  H   -1.00898928007966      1.69173795030191     -1.15748395655017
  H   -2.31646877782551      1.13909056814711     -0.31959641868915
  N   -1.35707636782541     -1.20442908271787      0.03702576578312
  H   -1.54497168348722     -1.45616616023511      0.99883181253506
  H   -2.22353327792728     -1.16799420090635     -0.48431009691635
