14
Coordinates from ORCA-job run
  C   0.70243389170322     -0.02832592634680      0.06109832879993
  C   -0.64004759575797      0.02581255214997     -0.22170274989296
  N   1.37751678416517     -1.27497272858703      0.28297607295964
  O   2.46977502524015     -1.22032024930129      0.85056595129237
  O   0.83191859524910     -2.34263978309022     -0.05236562706385
  N   1.52166313743939      1.10530564163538      0.14647524339126
  H   1.79007051930698      1.38656004836860      1.07826986016209
  H   1.17022255300729      1.87154016053024     -0.40667047796272
  N   -1.25139534034340      1.27660069756989     -0.24170782935851
  H   -1.00501354344765      1.87863720886659      0.52811842071159
  H   -2.23749060233168      1.26456852243903     -0.44695599530225
  N   -1.42393016655594     -1.01255270839501     -0.66421904544198
  H   -2.35997243984177     -1.02642161639146     -0.28786005602526
  H   -0.94575081783289     -1.90279181944789     -0.62702209626935
