14
Coordinates from ORCA-job run
  C   0.59889016746504     -0.00353230294454      0.08561722285077
  C   -0.77703759600882     -0.04403840773134     -0.03792294266058
  N   1.47228366380818     -0.16486530274417     -1.03207666476531
  O   2.68057367462937      0.00602438966953     -0.82838720101290
  O   1.01006733769966     -0.47884398434962     -2.14489765999192
  N   1.16184502310858      0.31422295214245      1.34261359654702
  H   1.67826066060481      1.18553337026994      1.28996810320826
  H   1.82873426952142     -0.39797386898982      1.61817295457708
  N   -1.54387883897133      0.32061854324747      1.04380336861674
  H   -0.98147189812545      0.41666148920336      1.87844833467438
  H   -2.38257048579776     -0.22690509928475      1.16422603636429
  N   -1.47256620251492     -0.42603598734793     -1.14469917141489
  H   -0.90436580820090     -0.52021992906901     -1.97448827498443
  H   -2.36876396721788      0.01935413792844     -1.26137770200850
