14
Coordinates from ORCA-job run
  C   0.60418609688616      0.01256997146293      0.02963867277969
  C   -0.77085280337818      0.03494750155361     -0.10778850156504
  N   1.32258007422059     -1.18052328845503      0.34328235959996
  O   0.72978047940218     -2.27507659570973      0.37839295927805
  O   2.53509093187074     -1.06402162508219      0.55981444596639
  N   1.31620168300253      1.23170266212228     -0.03957322038276
  H   1.76984719949672      1.42807987663770      0.84607032156462
  H   2.05465176515440      1.16800214153062     -0.73140114067252
  N   -1.58972639297964     -1.05194284384486     -0.16414643220506
  H   -1.13711707212977     -1.92027176227324      0.08378674101951
  H   -2.51746990267131     -0.90703032535950      0.20125260668421
  N   -1.40024494055068      1.25327604865779     -0.20925810355374
  H   -2.18240835826914      1.26700719810467     -0.84612763076239
  H   -0.73451876005461      2.00228104065496     -0.34294307775092
