14
Coordinates from ORCA-job run
  C   0.65124309230767      0.05992402877315      0.01497860612845
  C   -0.70926410169058     -0.07025743574566     -0.02786043922918
  N   1.45762937109679     -0.23999356891691     -1.11805826550356
  O   2.69116628189712     -0.20688083517432     -0.96197069371280
  O   0.91076140555723     -0.56148480696501     -2.18892785173008
  N   1.29827187961066      0.32811055693323      1.24974004840401
  H   2.29574064369512      0.30613350176465      1.08246583266777
  H   0.98684693766709      1.20726150551375      1.63868366005037
  N   -1.33079825922582      0.18070733373332      1.19191444897042
  H   -2.32375744338640      0.02726858127649      1.20864449644231
  H   -0.84903479611009     -0.17874729184900      2.00035346203822
  N   -1.50222904973314     -0.41862910671412     -1.07779513602635
  H   -2.45377640816890     -0.09028799795975     -1.00582473233814
  H   -1.12179955351675     -0.34212446466983     -2.00534343616146
