14
Coordinates from ORCA-job run
  C   0.59439521399165      0.04444265768570      0.15408346665555
  C   -0.77264784391380      0.00563538738004     -0.08656068710495
  N   1.37313630489756     -1.12948907768990      0.31540229992567
  O   2.58953772787559     -0.98112104077432      0.49735827867784
  O   0.82992821981344     -2.25210770447273      0.25763965056188
  N   1.24114505745566      1.30157061196740      0.17491982761110
  H   1.61957060714185      1.49341597147697      1.09642856050692
  H   2.03111360162211      1.29345653641516     -0.46086687468977
  N   -1.43489936090227      1.20372927297115     -0.18735903088259
  H   -0.79285887684017      1.97591520942396     -0.30132420581496
  H   -2.24312744937973      1.21972320909223     -0.78866168427262
  N   -1.52417794472340     -1.11538527303686     -0.11526526095975
  H   -1.02731871029598     -1.99209415900849     -0.14427803573657
  H   -2.48179654674252     -1.06569160143032     -0.41251630447776
