14
Coordinates from ORCA-job run
  C   0.61233008120622      0.04097697012243      0.04225983411895
  C   -0.77620556621832      0.02664934626734      0.04642854635813
  N   1.38766313285878     -1.12463625467152      0.26417931619373
  O   0.82475811390337     -2.21808038549450      0.48064759471740
  O   2.61955033677191     -1.00336618630356      0.21259367302782
  N   1.27461457101691      1.25476973595634     -0.25420723467636
  H   1.80990400076332      1.57308055904420      0.54634181755383
  H   1.93919971147309      1.10972399264984     -1.00601493814960
  N   -1.54006435492082     -1.04905203346474      0.33597373449043
  H   -1.06536467991514     -1.93855521182646      0.36090631541629
  H   -2.53029087586579     -1.01088619128055      0.17389172411157
  N   -1.42335680160060      1.22202362421235     -0.13769648783336
  H   -0.80084098858274      1.93426863530502     -0.49313709230779
  H   -2.33089668089017      1.18308339948379     -0.57316680302104
