14
Coordinates from ORCA-job run
  C   0.58058564345632      0.02504323515127      0.16760313885360
  C   -0.76440890241035      0.02261873891126     -0.15043139127785
  N   1.36830164580999     -1.16557841721093      0.16889784576792
  O   0.82483600586383     -2.27387352198711      0.00487460808694
  O   2.58488613960836     -1.03225679918911      0.35011987089811
  N   1.22500487626251      1.26180922676073      0.39770707230853
  H   1.93807653026478      1.42667628433037     -0.30449739068663
  H   1.70211065495763      1.24715422142153      1.29218636753624
  N   -1.39909730751680      1.23028833684387     -0.32512193525991
  H   -2.34477587581924      1.25785045336792      0.02517688950702
  H   -0.81631466087365      1.99858318454712     -0.02118674640763
  N   -1.55086525472700     -1.07836446847245     -0.30408363095519
  H   -2.31057996086858     -0.97345741091350     -0.95750264970611
  H   -1.03775953400783     -1.94749306356099     -0.34374204866502
