14
Coordinates from ORCA-job run
  C   0.59949899749510      0.03751854982168      0.07151173945434
  C   -0.76360135830690      0.01036121014355     -0.15499004427915
  N   1.35958639285089     -1.14784255275802      0.30686381243918
  O   0.82520114642913     -2.26616483890790      0.18685195345562
  O   2.54822384473481     -0.99897973443577      0.61614881795182
  N   1.24861229602224      1.28861161968917      0.17745912536693
  H   1.63703561318563      1.40967493594908      1.10650354555099
  H   2.02956230707332      1.33396406256897     -0.46756787462974
  N   -1.44971098526483      1.20186114419234     -0.17054310579706
  H   -0.81805549238859      1.99115593822788     -0.17952335095734
  H   -2.19022346009741      1.24828999830190     -0.85395503999605
  N   -1.51782857340780     -1.10107815109576     -0.38127436031139
  H   -2.47253524367564     -1.03967831898421     -0.06489979416836
  H   -1.03576548464996     -1.96869386271290     -0.19358542407979
