14
Coordinates from ORCA-job run
  C   0.60769785612790      0.04047503289489      0.02729507676288
  C   -0.77359517156265     -0.00607022342337     -0.11230072873469
  N   1.38715873941557     -1.11554697028518      0.28242989316881
  O   2.61210644566631     -0.96088522165562      0.38545469982987
  O   0.83380768466305     -2.22848339772595      0.40073905030010
  N   1.25353085621862      1.29819295647682     -0.04165214423391
  H   1.88718695123035      1.32477336887474     -0.83337012787782
  H   1.82545126617570      1.43473674532524      0.78499549822297
  N   -1.42943267585168      1.16269097872075     -0.43575172842324
  H   -2.32269723222186      1.27963446595054      0.01919443146343
  H   -0.80822432470581      1.95496497101065     -0.33241004347552
  N   -1.52799741145140     -1.11257362424735     -0.01758279164409
  H   -1.06078240293651     -1.98036833266084      0.18867288601238
  H   -2.48521058076759     -1.09254074925529     -0.31571397137117
