14
Coordinates from ORCA-job run
  C   0.57887333936932      0.06094102306617      0.25267965557973
  C   -0.76505912151223      0.01103736328492     -0.10005581443008
  N   1.33638681000233     -1.11913148445350      0.45236973350657
  O   0.75753972363122     -2.22689839553544      0.47335083579656
  O   2.57207429913476     -1.01389885766762      0.45599535749488
  N   1.26925822106201      1.28868933695556      0.09963011798825
  H   2.12050550785393      1.12556967349780     -0.42406151601356
  H   1.52704652254639      1.67500960637398      0.99949468866732
  N   -1.53189902143648     -1.09581408277180     -0.09479895997919
  H   -1.08136324127969     -1.96072818549194      0.16151394280037
  H   -2.52255441045620     -1.01610953437758     -0.22794892496156
  N   -1.39087807212237      1.20581360018491     -0.38161904387479
  H   -2.15393886302004      1.14441183388721     -1.04100845386355
  H   -0.71699169377297      1.92210810304732     -0.62454161871094
