14
Coordinates from ORCA-job run
  C   0.60879091109781      0.06974109751245      0.16509282702936
  C   -0.74221117460900      0.02647827337621      0.00408239773663
  N   1.37293242085232     -1.17141147784226      0.25590882268438
  O   0.99072720202754     -2.06308395750427      1.01564243343698
  O   2.39077400891339     -1.23493045435535     -0.44396754251956
  N   1.31903674186018      1.27197062768507     -0.03476790879936
  H   1.82596836851343      1.26220091627266     -0.91293193008285
  H   1.98423610313865      1.43128888691176      0.71124959506968
  N   -1.49640112706020     -1.13633347630769      0.10084978913749
  H   -2.47901850542432     -0.99043630268023     -0.06889532921637
  H   -1.14585258646428     -1.92333309802442     -0.42205891425569
  N   -1.42133901436318      1.19208498564746     -0.31478000878487
  H   -0.85524503606079      2.00844680939931     -0.12603756897810
  H   -2.35239831242154      1.25731716990929      0.07061333754230
