14
Coordinates from ORCA-job run
  C   0.60289997507170      0.04771763084093      0.08595387609537
  C   -0.75998978011978     -0.00693883902548     -0.17244513129177
  N   1.38115007920876     -1.11521926616160      0.31623149713287
  O   2.59422860146402     -0.95575592518651      0.51097129838827
  O   0.83615054706347     -2.23823104642782      0.33729593763824
  N   1.23258449147997      1.31324146948122      0.14169615420519
  H   1.73997548139345      1.41103545434251      1.01424978325039
  H   1.91868060998471      1.40034168779577     -0.60040985217817
  N   -1.40876279194276      1.17057130055185     -0.47490794082329
  H   -0.81886696281894      1.96581504517481     -0.26556620297184
  H   -2.34231913461911      1.24391166634785     -0.09834560234623
  N   -1.50136023346409     -1.12920393236674     -0.20681231487191
  H   -1.03990112316745     -2.00359341718703     -0.01409536312706
  H   -2.43446975953394     -1.10369182817977     -0.57481613910007
