14
Coordinates from ORCA-job run
  C   0.59967805925128      0.03760466271547      0.11933653732883
  C   -0.75447341873924      0.01430110882010     -0.18543406420308
  N   1.38660176941348     -1.14195576727000      0.17600001869592
  O   2.59219526654120     -1.00593310224990      0.42621622721254
  O   0.85611974136938     -2.25608116222062     -0.01163767500101
  N   1.21368617270433      1.28318911118248      0.38329633666029
  H   1.69530846875742      1.25045469801782      1.27506070832204
  H   1.91971820879799      1.48848035921849     -0.31545237187748
  N   -1.40384604985987      1.21867563325042     -0.32297984806970
  H   -0.83696865891117      1.98016277828605      0.02517931121598
  H   -2.36208023904712      1.23044418910127     -0.00924308121175
  N   -1.48176805261645     -1.09461096669523     -0.41633032348078
  H   -2.41285420148873     -1.02133189483571     -0.78181473163839
  H   -1.01131706617249     -1.98339964732064     -0.36319704395341
