14
Coordinates from ORCA-job run
  C   0.59542901348705     -0.03667223169339      0.10113562054718
  C   -0.77739119402808     -0.00047697954397     -0.05373272248968
  N   1.48017184606038     -0.32250697367398     -0.98265096588684
  O   2.69194008918662     -0.20640502710154     -0.76222172539685
  O   1.02256982759490     -0.68229312508415     -2.08339385915455
  N   1.15140004362647      0.33245734038013      1.34721849443950
  H   1.76629305792052     -0.39846773845142      1.68714569311981
  H   1.72227897630956      1.16481294780547      1.24782632681925
  N   -1.54204374449632      0.48122762920805      0.98236247827777
  H   -0.99297810987439      0.60106118936868      1.82265182792377
  H   -2.41688959392596     -0.00250648759265      1.11687509076869
  N   -1.47315476731624     -0.41320071990088     -1.14970559548437
  H   -0.89378608840886     -0.59944545376845     -1.95594669832210
  H   -2.33383935613567      0.08241563004809     -1.31956396516157
