14
Coordinates from ORCA-job run
  C   0.70043593162101     -0.03041503422998      0.07518026112894
  C   -0.67061652018344      0.04361877427828      0.09169326496233
  N   1.38948873366933     -1.28890709380962      0.11108562580013
  O   0.77538381180776     -2.32192834976657      0.43640360405342
  O   2.57129704531868     -1.28397368126891     -0.23737363702364
  N   1.53506403768537      1.09427182555429      0.03704294918710
  H   1.97911570909036      1.28538433786018     -0.84921879880980
  H   1.09838865682628      1.90852316417329      0.44037790175906
  N   -1.25816815051912      1.28694345451550     -0.12619044041019
  H   -2.26550079401968      1.28776195969686     -0.11819032201490
  H   -0.85928121091432      1.81309841754599     -0.88771951086002
  N   -1.53746195483172     -0.95092180166871      0.47657267162423
  H   -1.07234997288771     -1.83810013300985      0.61522193169161
  H   -2.38579532266280     -1.00635583987075     -0.06688550108826
