14
Coordinates from ORCA-job run
  C   0.63317976444483      0.03784523445906      0.06034692804993
  C   -0.73813768775930     -0.01091805754047     -0.06158166642499
  N   1.41120395724222     -1.14228594013521      0.18313314815440
  O   0.87117899872958     -2.24498301911177     -0.01909891084312
  O   2.61441537938169     -1.01203706559122      0.45336023741806
  N   1.28855270804999      1.28858599956097      0.04792349982125
  H   1.29344532807579      1.70862763894978      0.97250720999377
  H   2.25370727716755      1.16149034557625     -0.22926070293202
  N   -1.42062988240665      1.18680770893135     -0.12841803327062
  H   -2.23915889731213      1.16190942276835     -0.71873259295888
  H   -0.79733358874726      1.95249732722266     -0.35070475725823
  N   -1.52132121753206     -1.11688057271615      0.06914190474907
  H   -2.50987677341522     -0.97618449223945     -0.04562431638152
  H   -1.13922536591903     -1.99347453013416     -0.23299194811710
