14
Coordinates from ORCA-job run
  C   0.65531537272171     -0.00586309550445      0.06406952697493
  C   -0.70240695203895      0.02648841531641     -0.07697793968332
  N   1.36688360829446     -1.24732800201704      0.11839138081123
  O   0.75139109609558     -2.26825789655498      0.44658725464243
  O   2.57999521731943     -1.21438799994123     -0.13349073559380
  N   1.38958697034258      1.18767613088377      0.19799600039879
  H   1.41321131937801      1.69674910901760     -0.67997810250521
  H   2.34422072131674      0.97812323277947      0.46010665494560
  N   -1.49509691537781     -1.07682646539798     -0.37031787705504
  H   -2.37026041558734     -0.82338507760334     -0.80332956242462
  H   -1.58332857305343     -1.76543276782992      0.35773996643491
  N   -1.31855857632571      1.27090028020906     -0.12064898431298
  H   -2.27076581685959      1.25381675620754      0.21350107761141
  H   -0.75818705622569      1.98672738043508      0.32635133975565
