14
Coordinates from ORCA-job run
  C   0.60042532422867      0.03558161698818      0.06361372065545
  C   -0.77848571409323      0.01921303499747     -0.02464785391915
  N   1.37769185059742     -1.16046272084362      0.12735394522799
  O   2.60751056116823     -1.03236204575441      0.08588939717974
  O   0.81405479438927     -2.26596911940748      0.23023631271271
  N   1.27407110371732      1.27615537033447     -0.00986416042563
  H   1.89198683520375      1.38713589368785      0.78628698954519
  H   1.86196579776465      1.31221996129418     -0.83561172361903
  N   -1.43366667982252      1.20065404304814     -0.28206441796669
  H   -0.80935232926207      1.99203070579735     -0.20321604825468
  H   -2.31044974379219      1.30672709969286      0.20531715979716
  N   -1.58044856698973     -1.07172901946040      0.12704984330122
  H   -2.43307661020475     -1.05102519700644     -0.40958826434755
  H   -1.08022662290482     -1.94916962336814      0.14124510011326
