14
Coordinates from ORCA-job run
  C   0.60107110847476      0.05021659376418      0.04898932841980
  C   -0.77890592260996      0.00906359615822     -0.01435994697020
  N   1.39092028136608     -1.11522621186986      0.28619792968820
  O   2.61851492943429     -0.98693096542468      0.20152416552890
  O   0.84030952459143     -2.19419146663469      0.57478948275359
  N   1.26110853171818      1.26700776873213     -0.23670107259693
  H   1.83822089409823      1.17131528744760     -1.06523292089417
  H   1.88731390449254      1.51306006060097      0.52176441160731
  N   -1.44936630337854      1.12913260123387     -0.44653815253788
  H   -0.83240193378796      1.92764893167770     -0.50796393834125
  H   -2.31900714153653      1.30608744778694      0.03303632100571
  N   -1.56695852477863     -1.04893302096109      0.32400024201426
  H   -2.43138440946072     -1.11894082585529     -0.18890408085207
  H   -1.05843493862317     -1.90930979665600      0.47039823117472
