14
Coordinates from ORCA-job run
  C   0.63197277537642     -0.02609870802163      0.05120233046657
  C   -0.74823699751893     -0.01322646498704     -0.02706094519455
  N   1.43879999024827     -0.28064830473111     -1.12146243239055
  O   0.90164871774783     -0.75676200410274     -2.13939006684003
  O   2.64032757210306     -0.02391989762781     -1.05329664628250
  N   1.29318375010300      0.33583458885340      1.21278491558316
  H   1.71703572631564      1.24162728010049      1.28520992085243
  H   1.67549848060164     -0.37772768185531      1.80298481375287
  N   -1.47030397108718      0.49127147624604      1.03783089613961
  H   -2.30560018902305     -0.03373861063774      1.25194543094312
  H   -0.87769968669706      0.64526469954036      1.84129497552112
  N   -1.50428907089003     -0.46694502057775     -1.06416583801533
  H   -0.98766277357676     -0.70146345925737     -1.89923946106939
  H   -2.40567432370284     -0.03246789294177     -1.17763789346653
