15
Coordinates from ORCA-job run
  C   -0.75137383921057      0.16731184676248      0.02035743646584
  C   0.55127520224253     -0.12093014401567      0.05107674104602
  N   -1.62966795978472      0.15337319043564      1.19301105264075
  O   -2.30214226777722      1.16799629525831      1.34123600184082
  O   -1.61606282390291     -0.85013112777446      1.89475401659198
  N   -1.48154231955078      0.49838166660279     -1.20348008548948
  O   -2.57163996483227     -0.05348246017321     -1.32129028539924
  O   -0.95327389008439      1.27579694464427     -1.99147927964850
  C   1.53132733738153     -0.15641261835653     -1.06466135979904
  H   2.27798797846097      0.62877697218199     -0.91310002359373
  H   2.04256525953643     -1.12047354742355     -1.04819584086753
  H   1.05580168183297      0.00088528692504     -2.02880793244843
  N   1.12771341576615     -0.45195494870322      1.37190202281476
  O   1.74366620801816     -1.51053729468176      1.43188573161868
  O   0.97536598190411      0.37039993831789      2.26979180422710
