15
Coordinates from ORCA-job run
  C   -0.76490369988358      0.08363474112800     -0.02733704476762
  C   0.55606019437989     -0.06892634342631      0.08559540948330
  N   -1.72310628710359     -0.17207189492120      1.05161557069471
  O   -2.51989597598888      0.73741775502845      1.25528690734554
  O   -1.64522985640572     -1.24887626056171      1.62959457943426
  N   -1.43195634628449      0.48916094029775     -1.26468273909134
  O   -2.43923218463734     -0.15375239424726     -1.54540686620695
  O   -0.93740225669645      1.41178440670701     -1.90403769211064
  C   1.61542853993207      0.14213455991699     -0.93418704541338
  H   2.24263755104870      0.98632477190354     -0.63251404465138
  H   1.19926924962310      0.35504908688954     -1.91500633096308
  H   2.24145131465380     -0.75079699195021     -0.97533366608428
  N   1.06452793868873     -0.50156852905910      1.40505419627677
  O   1.79168302603857     -1.48891924938982      1.39572976960271
  O   0.75066879263521      0.18040540168432      2.37562899645138
