15
Coordinates from ORCA-job run
  C   -0.75550391882585      0.13942337314072      0.05249105270891
  C   0.55696915453595     -0.10028193322995      0.02760552783530
  N   -1.57497269614763      0.13675343180482      1.26724480994390
  O   -2.28508357178241      1.12659101686525      1.40778270220128
  O   -1.48259754563878     -0.83491039671128      2.00684263304577
  N   -1.55585703364505      0.39649801221650     -1.14476599763297
  O   -1.09696970483090      1.16426005714602     -1.98428260475700
  O   -2.62733060041637     -0.20067666679199     -1.18990188593699
  C   1.48184099056502     -0.13804266639109     -1.13416482124923
  H   2.04263436452756     -1.07371855346052     -1.10215428698292
  H   0.95224376062694     -0.04960323112283     -2.07879341031241
  H   2.19249901009664      0.69010660835658     -1.05554757063582
  N   1.21037925979418     -0.35834470668006      1.32880741060197
  O   1.86412030820240     -1.39348790045311      1.39798676163702
  O   1.07662822293831      0.49543355531093      2.19984967953317
