15
Coordinates from ORCA-job run
  C   -0.75750910647397      0.10337529820018      0.08612118740346
  C   0.56249999724302     -0.07517826712474      0.00308924954331
  N   -1.60980964900888      0.41173371882017     -1.06239691554402
  O   -2.65861271527564     -0.22402620340723     -1.11437775895910
  O   -1.21179443417378      1.25482210840639     -1.85939192507575
  N   -1.53462818291851     -0.02564765293161      1.32162226934439
  O   -1.39170931964094     -1.05347217402659      1.97176210465279
  O   -2.26540333265918      0.92758822683822      1.56839624167343
  C   1.44719925129949      0.00873865443623     -1.18729296614648
  H   0.88229071917636      0.15467561683921     -2.10380643106987
  H   2.13629762220140      0.84977734639139     -1.06600951727094
  H   2.03609647473032     -0.90801235585877     -1.24837698367182
  N   1.26920100233373     -0.39921312725223      1.26094889376113
  O   1.11063585460352      0.36810117793705      2.20536912863838
  O   1.98524581856301     -1.39426236726766      1.22634342272110
