15
Coordinates from ORCA-job run
  C   -0.74243611589087      0.18131544734974     -0.09066484980279
  C   0.55401458422131     -0.07501118430827      0.09639571846219
  N   -1.36118484390922      1.49679180161122      0.09329028543410
  O   -0.84480903853564      2.44642529004694     -0.48223605748766
  O   -2.35527061969384      1.49959672169569      0.81104720800638
  N   -1.71000891181032     -0.81612730341103     -0.54839053991382
  O   -2.48779932684072     -0.42512326704478     -1.41372255056559
  O   -1.66027168354107     -1.93310076402245     -0.04397614964993
  C   1.29257547164053     -1.35227622628650     -0.07613720019697
  H   1.65549210746057     -1.69337791009721      0.89796467770123
  H   2.15661130246638     -1.17003111618977     -0.71734077744839
  H   0.66551143627640     -2.13035901088360     -0.50255135333419
  N   1.39601394393547      1.05515539038985      0.54455017234906
  O   2.40122154176679      1.26681346627057     -0.12523895149767
  O   1.04034015245423      1.65030866487960      1.55701036794406
