15
Coordinates from ORCA-job run
  C   -0.73577356016730      0.22592893279731      0.02914775801772
  C   0.54299523742570     -0.15522799380761      0.04259552329706
  N   -1.55413429718859      0.41680389441224      1.22983489748321
  O   -2.14567282219241      1.48961808292879      1.28132561774083
  O   -1.57655737697820     -0.49552091454656      2.04642352706865
  N   -1.50045222665658      0.46452038541984     -1.19523665623627
  O   -2.63179484858574     -0.01165762350920     -1.19967259013295
  O   -0.95805496181332      1.10002316548713     -2.09313797326035
  C   1.46297329080012     -0.39717283996080     -1.09830550324942
  H   1.90039667221755     -1.39096081436521     -0.98792947543354
  H   2.27366364343297      0.33693335257644     -1.06904000547115
  H   0.95488915111533     -0.31354465578898     -2.05500907225866
  N   1.15864841871155     -0.37083592674012      1.36983332542890
  O   1.11070302245936      0.56141878294748      2.16613870479831
  O   1.69917065741957     -1.45932582785075      1.53303192220767
