15
Coordinates from ORCA-job run
  C   -0.73122627576560      0.22678576379865     -0.08129021659800
  C   0.55369503268800     -0.10457431095551      0.06210110652732
  N   -1.26710069618148      1.57263668144266      0.13958011289214
  O   -1.95129510929391      2.00845047844400     -0.78003096306288
  O   -0.99528334015273      2.11991131813863      1.20082614015298
  N   -1.78274525106337     -0.72595080315135     -0.43768165673004
  O   -2.81787732332811     -0.62278059233258      0.21393376887662
  O   -1.54536182156408     -1.53038931034217     -1.33269993044047
  C   1.20863688583884     -1.42617720311705     -0.11387006087444
  H   0.48680970200795     -2.21466908400027     -0.30793185813318
  H   1.78292605304675     -1.65272666483334      0.78606467618424
  H   1.90276599481164     -1.37454869533123     -0.95794919494936
  N   1.48024064621006      0.98185338681786      0.44632837990437
  O   2.18211831852425      0.75829114790597      1.42685711260163
  O   1.49369718422177      1.98288788751573     -0.26323741635094
