15
Coordinates from ORCA-job run
  C   -0.73338828243162      0.20946042981287     -0.10733084952454
  C   0.55305792696028     -0.09025909008457      0.08272419257220
  N   -1.30934041865686      1.54287142751140      0.08673113059517
  O   -1.07893740844739      2.10635260466013      1.14930372669450
  O   -1.97956490765726      1.95296155852566     -0.85468291460822
  N   -1.74717695867175     -0.77080602980340     -0.49651017762447
  O   -2.80439659468468     -0.69648828872933      0.12276408955768
  O   -1.45988501030636     -1.56791613027001     -1.38343003744786
  C   1.24418476566180     -1.39695789565283     -0.06372464771035
  H   1.96294139035670     -1.33358751720032     -0.88613823894341
  H   0.54803246898291     -2.20395384671642     -0.27489007099239
  H   1.79517134484868     -1.60394960870184      0.85530342418641
  N   1.44026318385024      1.01925235160235      0.49347641573291
  O   1.46053903377481      2.01358172104290     -0.22528133902892
  O   2.10749946642050      0.81943831400342      1.50268529654127
