15
Coordinates from ORCA-job run
  C   -0.73213920130810      0.22149843770524     -0.08669100450442
  C   0.55314932439526     -0.09965212108619      0.07442984835231
  N   -1.74750537213071     -0.71193929829108     -0.57387355188073
  O   -2.80785050497912     -0.69325408447513      0.04435254978210
  O   -1.45909056224928     -1.42053236113623     -1.53270402005793
  N   -1.30482792354004      1.53050360335006      0.23822375646183
  O   -1.96664941375466      2.03718365798311     -0.66119206268675
  O   -1.08121368342759      1.98152978270543      1.35457331763530
  C   1.23970502870382     -1.38800090461538     -0.20021910020778
  H   1.79664289056777     -1.68234926174719      0.69088196178762
  H   1.95229287573127     -1.24910035964417     -1.01873600435933
  H   0.53977546584545     -2.16992292620121     -0.48165006985494
  N   1.44271124742813      0.96114621941213      0.59435428717462
  O   2.11232911236781      0.65842059818676      1.57607546165450
  O   1.46167071634998      2.02446901785384     -0.01782536929641
