15
Coordinates from ORCA-job run
  C   -0.73157456614236      0.20608772440530     -0.12511730847281
  C   0.54954226955989     -0.08793674986376      0.10524719184089
  N   -1.35845521423833      1.48880353384910      0.20492037046532
  O   -1.98529804340921      2.00423536822274     -0.71433887976207
  O   -1.20770461034143      1.91241468732771      1.34401419629875
  N   -1.69012877412471     -0.73681382396258     -0.70178490807520
  O   -2.78320614516402     -0.77042321789405     -0.14437807224427
  O   -1.32707811366565     -1.40199436501620     -1.66631455838611
  C   1.28690384096469     -1.34843249806583     -0.16729957841359
  H   0.62890844393265     -2.13491934420442     -0.52646889500066
  H   1.78750930264719     -1.66417633574414      0.74960150023806
  H   2.05169379644301     -1.16087593659255     -0.92682527602240
  N   1.37777492625151      0.97654001256002      0.71176016594239
  O   1.98873973866542      0.65944131733736      1.72660540392848
  O   1.41237314862135      2.05704962764129      0.13137864766322
