15
Coordinates from ORCA-job run
  C   -0.73675442017318      0.19431284249686     -0.11201664551919
  C   0.55291355588767     -0.08034647589205      0.09400038937160
  N   -1.36847982765637      1.47886279885534      0.20156478810694
  O   -1.19894389457271      1.92980665709756      1.32737794874249
  O   -2.01883874292386      1.96704953410561     -0.71621757961745
  N   -1.69920872647947     -0.77111090150554     -0.64256034203527
  O   -2.77992931762793     -0.79767950930852     -0.06107881508113
  O   -1.35167868818473     -1.45899112186738     -1.59674809724843
  C   1.29847973034170     -1.33845585596399     -0.16641780921604
  H   2.04237001334156     -1.16004072597382     -0.94860452184141
  H   1.82451048706650     -1.62708699052057      0.74513129291433
  H   0.64133075729805     -2.14042763749540     -0.49129640027460
  N   1.38256073733395      1.00767748892852      0.65501476193055
  O   2.02256329057442      0.72144108175909      1.66111961083156
  O   1.38910504577439      2.07498881528429      0.04973141893606
