15
Coordinates from ORCA-job run
  C   -0.71478445684047      0.19932621594580     -0.20532605269892
  C   0.53917570937940     -0.08122582109700      0.15501689133001
  N   -1.32949050549365      1.52523247773725     -0.10048303636114
  O   -1.24954123152149      2.09898596462107      0.97846338253735
  O   -1.87586924195247      1.91901213614449     -1.12521394190445
  N   -1.65565682700145     -0.79804234422724     -0.71607948984117
  O   -2.78464986566250     -0.73695617294459     -0.23820337612867
  O   -1.24536598300010     -1.59428583857619     -1.55392763082351
  C   1.25874229479849     -1.38011069163229      0.11354897442748
  H   1.67651634921780     -1.57828855834579      1.10213501037939
  H   2.08624913463885     -1.31079713004370     -0.59872987932569
  H   0.60843491866715     -2.19568913133395     -0.19036960318355
  N   1.35085439858207      1.04274161217726      0.66907573591805
  O   1.44913350517611      2.03470914299335     -0.04641593463450
  O   1.88625180101226      0.85638813858155      1.75650895030930
