13

C	-0.594241	-0.031166	-1.378593
C	0.0	0.0	0.0
Br	0.489862	0.893125	-2.707436
H	1.085735	0.0	0.0
H	-1.583134	0.409411	-1.457791
H	-0.281382	-0.884759	0.573324
N	-0.74187	-1.452721	-1.849569
O	-1.769686	-1.718797	-2.475718
O	0.164622	-2.237411	-1.601033
N	-0.48653	1.157985	0.744451
O	-0.988224	2.10452	0.124685
O	-0.319745	1.147219	1.963555
F	2.478395	0.0	0.0
