13

C	-0.46612	0.07741	-1.41963
C	0.0	0.0	0.0
Br	0.330761	-1.212077	-2.604915
H	1.087957	0.0	0.0
H	-0.167319	1.055147	-1.800286
H	-0.318758	0.889046	0.544056
N	-1.989621	0.084188	-1.544373
O	-2.533604	0.912929	-0.814388
O	-2.565517	-0.648016	-2.333917
N	-0.548223	-1.143674	0.732489
O	-1.131978	-2.033705	0.104719
O	-0.377461	-1.152648	1.951063
F	2.509073	0.0	0.0
