18

C	0.0	0.0	0.0
C	-0.669126	-0.056563	-1.372804
Cl	1.764319	0.0	0.0
H	-1.727335	-0.250562	-1.080885
C	-0.535172	1.171131	0.784218
H	-0.124482	1.176108	1.792059
H	-1.630654	1.054064	0.803624
H	-0.270659	2.079276	0.248728
N	-0.354419	-1.280135	0.797499
O	-0.531579	-2.325876	0.175821
O	-0.373283	-1.19523	2.018648
N	-0.080305	-1.03627	-2.287151
H	-0.780603	-1.195483	-3.005542
H	0.015848	-1.913888	-1.793809
N	-0.615869	1.257066	-1.991644
H	-1.549036	1.519101	-2.28333
H	0.003181	1.198772	-2.789994
H	-3.355561	0.0	0.0
