18

C	0.0	0.0	0.0
C	-0.517364	-0.01442	-1.457315
Cl	1.774487	0.0	0.0
H	0.235151	-0.554227	-2.042871
C	-0.590465	1.073865	0.866264
H	-0.240073	0.975922	1.893358
H	-0.287416	2.039948	0.463406
H	-1.683828	0.969416	0.84379
N	-0.318078	-1.390689	0.588949
O	-0.974145	-1.433995	1.623606
O	0.139828	-2.356097	-0.006749
N	-0.490326	1.385854	-1.932329
H	-0.507687	1.358458	-2.946343
H	-1.374064	1.79948	-1.646878
N	-1.752118	-0.737755	-1.507751
H	-2.09899	-0.757391	-2.460619
H	-2.532542	-0.373943	-0.887992
H	-3.776417	0.0	0.0
