18

C	0.0	0.0	0.0
C	-0.425998	-0.080223	-1.498447
Cl	1.784008	0.0	0.0
H	0.213419	-0.85648	-1.936061
C	-0.605533	1.128142	0.776347
H	-0.226419	1.149295	1.797814
H	-0.381072	2.056164	0.254571
H	-1.693777	0.966379	0.784149
N	-0.334299	-1.336055	0.669344
O	-0.265247	-2.345765	-0.027167
O	-0.585312	-1.326309	1.868807
N	-0.161158	1.241354	-2.080395
H	-0.792483	1.299313	-2.870114
H	0.793256	1.291742	-2.416375
N	-1.790232	-0.433365	-1.754564
H	-1.885208	-1.439354	-1.690182
H	-2.506846	-0.067642	-1.066352
H	-3.682758	0.0	0.0
