18

C	0.0	0.0	0.0
C	-0.282754	0.206829	-1.532397
Cl	1.773617	0.0	0.0
H	0.473443	0.948206	-1.832094
C	-0.503317	1.158229	0.825831
H	-0.195644	2.112881	0.395878
H	-1.602016	1.096052	0.824218
H	-0.128185	1.047765	1.845717
N	-0.648133	-1.204997	0.531279
O	-0.332293	-1.557676	1.697886
O	-1.815008	-1.378351	-0.022207
N	-1.555952	0.816112	-1.814149
H	-2.294453	0.333523	-1.283085
H	-1.751799	0.72404	-2.80576
N	-0.054226	-1.061073	-2.248843
H	-0.133359	-0.854563	-3.241695
H	0.907168	-1.354139	-2.089185
H	-3.12145	0.0	0.0
