14

C	-0.428646	0.157491	-1.456318
C	0.0	0.0	0.0
Br	0.283291	1.76718	-2.236262
H	1.103221	0.0	0.0
H	-0.06742	-0.680876	-2.047796
N	-1.935137	0.137845	-1.576263
O	-2.565361	1.180831	-1.478116
O	-2.412398	-0.988834	-1.719114
C	-0.455588	-1.302219	0.496539
N	-0.797603	-2.336973	0.934375
N	-0.578016	1.056858	0.83989
H	-0.214103	0.911261	1.776677
H	-0.172892	1.93253	0.52378
Cl	3.27399	0.0	0.0
