14

C	-0.432878	-0.026802	-1.463119
C	0.0	0.0	0.0
Br	0.295392	1.45946	-2.446397
H	1.100973	0.0	0.0
H	-0.086346	-0.939045	-1.942959
N	-1.939879	-0.040888	-1.573549
O	-2.433071	-1.16975	-1.56762
O	-2.555258	1.014728	-1.609198
C	-0.457977	-1.227655	0.657739
N	-0.802659	-2.208403	1.204322
N	-0.572828	1.157713	0.699948
H	-0.164898	1.984682	0.273343
H	-0.204726	1.130386	1.645887
Cl	3.273964	0.0	0.0
