14

C	-0.410901	-0.086291	-1.454561
C	0.0	0.0	0.0
Br	-2.343194	-0.099095	-1.699224
H	1.102988	0.0	0.0
H	-0.030383	0.785394	-1.979744
N	0.135556	-1.289641	-2.164237
O	0.156135	-2.350371	-1.551162
O	0.497515	-1.111021	-3.324089
C	-0.516999	-1.082247	0.839763
N	-0.981593	-1.849139	1.599597
N	-0.388493	1.324662	0.486724
H	-1.272414	1.283415	0.978806
H	0.329662	1.636991	1.129906
Cl	3.220222	0.0	0.0
