14

C	-0.411098	0.117503	-1.452999
C	0.0	0.0	0.0
Br	-2.342861	0.143824	-1.695666
H	1.094497	0.0	0.0
H	-0.027941	1.052972	-1.851238
N	0.132736	-0.975959	-2.324968
O	0.489656	-0.6374	-3.450062
O	0.15616	-2.112041	-1.865539
C	-0.519175	-1.189082	0.679929
N	-0.990703	-2.052318	1.323131
N	-0.389285	1.243348	0.666459
H	0.330385	1.467518	1.343313
H	-1.272537	1.134632	1.148712
Cl	3.221394	0.0	0.0
