14

C	-0.349528	-0.022957	-1.498847
C	0.0	0.0	0.0
Br	0.087313	1.641489	-2.363852
H	1.096042	0.0	0.0
H	0.195561	-0.814439	-2.009549
N	-1.807756	-0.303294	-1.728608
O	-2.621136	0.428239	-1.167925
O	-2.083568	-1.268029	-2.437705
C	-0.478303	-1.274419	0.554655
N	-0.881317	-2.303664	0.953167
N	-0.459051	1.111303	0.797026
H	0.210227	1.864557	0.719115
H	-1.375509	1.423736	0.504974
Cl	3.240164	0.0	0.0
