15

C	0.0	0.0	0.0
C	-0.458541	0.009539	-1.475062
Cl	1.762451	0.0	0.0
H	0.039273	0.863774	-1.950433
H	-0.278371	-0.931217	0.490699
N	-0.739901	1.043827	0.69799
O	-0.895481	0.947251	1.932676
O	-0.578212	2.172393	0.115897
C	-1.954072	0.167204	-1.602588
N	-3.130174	0.352067	-1.744108
C	-0.099185	-1.284078	-2.218805
H	0.973497	-1.437628	-2.329268
H	-0.543568	-1.26832	-3.215564
H	-0.523747	-2.139107	-1.686638
H	-1.927867	0.0	0.0
