15

C	0.0	0.0	0.0
C	-0.497415	-0.023668	-1.496027
Cl	1.748217	0.0	0.0
H	-1.602794	-0.065736	-1.425993
H	-0.383548	-0.869988	0.552529
N	-0.47413	1.196633	0.834003
O	0.263825	2.226462	0.912196
O	-1.820585	1.313415	0.949916
C	-0.117223	-1.242671	-2.189263
N	0.151327	-2.265234	-2.70881
C	-0.215412	1.26063	-2.248238
H	-0.6179	2.11751	-1.69643
H	0.858602	1.377776	-2.363199
H	-0.698535	1.202615	-3.225951
H	-1.639131	0.0	0.0
