15

C	0.0	0.0	0.0
C	-0.257568	-0.028366	-1.553992
Cl	1.754288	0.0	0.0
H	0.235368	-0.957432	-1.868143
H	-0.321105	-0.89752	0.511803
N	-0.666634	1.13071	0.657391
O	-0.663913	1.101856	1.911793
O	-0.694011	2.197292	-0.011172
C	0.496412	1.043872	-2.230531
N	1.026492	1.834199	-2.919068
C	-1.653235	-0.016195	-2.18871
H	-2.23716	-0.883164	-1.890165
H	-1.514662	-0.026125	-3.279995
H	-2.187824	0.885302	-1.89985
H	-2.072719	0.0	0.0
