13
Coordinates from ORCA-job run
  C   -0.90004674568247     -0.08697188959031      0.11474085220972
  C   0.54705118005260     -0.57021851537151      0.02770352854624
  F   -1.16612440591425      0.32177769416651      1.41059915645762
  H   0.63128096651357     -1.40762824362117      0.72660985017387
  H   0.71092146677763     -0.96357913321312     -0.97970633524111
  C   -1.13468141937666      1.05753075663488     -0.78532351973351
  N   -1.28158826044722      1.96933153539888     -1.51051013543583
  C   -1.83377116138389     -1.17566936420855     -0.22637674442121
  N   -2.54186344046655     -2.07157909639919     -0.49941205450755
  C   1.54729161305220      0.52815635398871      0.36565433912775
  H   1.35658825062683      0.93493748579679      1.35910839290096
  H   2.55920970564979      0.11978175497219      0.35540465045460
  H   1.50673225059843      1.34413066144590     -0.35849198053155
