13
Coordinates from ORCA-job run
  C   -0.78104758840626     -0.48596967077924     -0.47757087580186
  C   0.69556372841971     -0.60072485211436     -0.10792615117043
  F   -1.15927778482583     -1.61961918587366     -1.17420177131762
  H   0.79721456062548     -1.52184754405783      0.47320325409222
  H   1.23835272234946     -0.73779121187872     -1.04767782054593
  C   -1.62196056111979     -0.38237002809315      0.72948043629103
  N   -2.25808426250875     -0.30911546951150      1.71387898365659
  C   -1.02029143195212      0.68806811641839     -1.33739352435318
  N   -1.16727096078786      1.63050841067725     -2.02230826433271
  C   1.21306452846284      0.60657432652118      0.66440903130010
  H   1.11995799420628      1.52409521820519      0.07980960886252
  H   0.67485559039624      0.73933209493343      1.60515091259163
  H   2.26892346514060      0.46785979555300      0.90114618072763
