13
Coordinates from ORCA-job run
  C   -0.90012641289464     -0.13789591384283      0.03257971562159
  C   0.57248876435844     -0.49303581219893      0.23353129239672
  F   -1.35587603927453      0.55682189689058      1.14002028891906
  H   0.89028480742071     -1.10579827695985     -0.61538707542084
  H   0.61601859874181     -1.12112047257042      1.12841976020878
  C   -1.08422254352193      0.71778688919143     -1.15444046983164
  N   -1.18810642456499      1.40060637312376     -2.10388116194931
  C   -1.71536765383832     -1.35715290094521     -0.11423097336764
  N   -2.32918558850753     -2.35224013356184     -0.22236979526863
  C   1.45100614572693      0.74254301026073      0.38720342494387
  H   1.10802853577285      1.36285573710882      1.21590823320118
  H   2.47881152614800      0.43940245881524      0.59361131567673
  H   1.45524628443320      1.34722714468853     -0.52196455512989
