13
Coordinates from ORCA-job run
  C   -0.71037088594724     -0.46516274530361     -0.33072263374189
  C   0.31980621432959     -0.05590490010042      0.72110529370426
  F   -0.17802355076298     -1.46812743002456     -1.12287080288164
  H   -0.14742330138251      0.68046312728101      1.38184861984208
  H   0.52165236212306     -0.95180402531678      1.31594083291208
  C   -1.93231832812028     -0.98380399132511      0.31011091692939
  N   -2.88538233259721     -1.39423507899925      0.85956931040583
  C   -1.06147307632550      0.67132671657861     -1.20265589518148
  N   -1.31108291461027      1.59938081033307     -1.87717962414840
  C   1.59935549322921      0.48877562095972      0.09811316552772
  H   2.04106456939337     -0.23972051353490     -0.58257827040405
  H   2.32703067776768      0.70453996457117      0.88221138505461
  H   1.41516507290308      1.41327244488107     -0.45289229801851
