13
Coordinates from ORCA-job run
  C   -0.79841279365293     -0.21648743571657     -0.38084764272752
  C   0.50596778781539     -0.48439277727545      0.36864026848562
  F   -0.56542832615023     -0.30070860205063     -1.74325894290644
  H   0.28391434664542     -0.49248149333001      1.43994465875240
  H   0.81673691218517     -1.49537218986967      0.08849357889903
  C   -1.81993943180583     -1.21807013591533     -0.02568988746413
  N   -2.60371667989103     -2.03756684877512      0.27916840237173
  C   -1.31528272592179      1.13305396202982     -0.08595129156315
  N   -1.69321798616879      2.21454668203807      0.17132480086447
  C   1.58747907520390      0.53494785544297      0.03249989715951
  H   1.30878895087943      1.53834289711941      0.36023593605144
  H   1.77779668564474      0.56003330275683     -1.04076266481564
  H   2.51731418521655      0.26415478354568      0.53520288689266
