13
Coordinates from ORCA-job run
  C   -0.80583318174287     -0.48427009561499     -0.43798882114791
  C   0.68562978557491     -0.60534777401062     -0.13596471042790
  F   -1.22273258974996     -1.62061263253602     -1.10728437998677
  H   1.18411161575980     -0.75142271473645     -1.09860865938778
  H   0.80867695361904     -1.52338643541519      0.44590256015441
  C   -1.58823957491376     -0.36609329321764      0.80653223075409
  N   -2.17282435972992     -0.28094308723708      1.82141491946590
  C   -1.07730810584514      0.68450297918819     -1.29544408176695
  N   -1.24806706489897      1.62077825169545     -1.98333127535761
  C   1.24478629110526      0.60356418915014      0.60418134959828
  H   2.30998280892648      0.46068633918012      0.79167222905155
  H   1.12867127164208      1.51841197616978      0.01940279066782
  H   0.75214615025306      0.74413229738429      1.56851584838287
