13
Coordinates from ORCA-job run
  C   -0.76871031929284     -0.32780397843951     -0.36148283377482
  C   0.49875161138748     -0.36842048102639      0.49114711251559
  F   -0.45572310494761     -0.69637196061412     -1.65895491572060
  H   0.85582649224136     -1.40213826173999      0.45797430504719
  H   0.21712617790797     -0.14968073689931      1.52546997881430
  C   -1.77573347688146     -1.27211772147115      0.15553194542078
  N   -2.54799178442289     -2.03870611355955      0.59673579965578
  C   -1.34506753337984      1.02942633884735     -0.39526000688884
  N   -1.77275573235576      2.12290609527018     -0.39934767119107
  C   1.56597552363978      0.59623189395055     -0.01101809805296
  H   2.47142003197501      0.48805452662446      0.58829995821658
  H   1.23590406048612      1.63409808199914      0.06398839268353
  H   1.82097805364267      0.38652231705835     -1.05008396672547
