13
Coordinates from ORCA-job run
  C   -0.72348833577229     -0.36906537444733     -0.41118990987787
  C   0.57322460651813      0.43496992326551     -0.32875629457204
  F   -0.41761985241963     -1.70683507718699     -0.59622954694374
  H   0.31010755140313      1.49479205364014     -0.25990275580189
  H   1.08711016518941      0.28387873901933     -1.28297822946785
  C   -1.50848519762579     -0.24460650533447      0.83130403417910
  N   -2.10266753418087     -0.12379132814530      1.83676933026570
  C   -1.54338437115408      0.07759238924265     -1.55203318575565
  N   -2.16372590969952      0.45938253911756     -2.47292595871357
  C   1.44993145187518      0.00180095544690      0.83986387040640
  H   0.96459075057866      0.19434953337537      1.79841556460880
  H   1.68457936470829     -1.06089187275388      0.77606817168779
  H   2.38882731057938      0.55742402476052      0.82159490998482
