13
Coordinates from ORCA-job run
  C   -0.81184140009992     -0.49566697733382     -0.41515095880596
  C   0.68356342736373     -0.60914364317818     -0.13003129409392
  F   -1.23764158880578     -1.64880667270925     -1.04887204584091
  H   0.81479832118800     -1.51270409326922      0.47240022238327
  H   1.16944477180501     -0.77841316627768     -1.09535317302944
  C   -1.57740615331585     -0.34418108201654      0.83613288212236
  N   -2.14653560400527     -0.22901293572429      1.85685075692604
  C   -1.09400319662100      0.65066882911017     -1.29901784501261
  N   -1.27080777252879      1.56958266927017     -2.00845479605598
  C   1.25176061019166      0.61765222182601      0.57316954426815
  H   2.31942410323565      0.47966805602060      0.74996459860033
  H   0.77187938225731      0.78126421239424      1.54036875044462
  H   1.12736509933524      1.51809258188779     -0.03200664190595
