13
Coordinates from ORCA-job run
  C   -0.78273479519461     -0.47286242218931     -0.49052476549601
  C   0.69729776425682     -0.59215441914252     -0.13600288578909
  F   -1.15977519413853     -1.58158660770082     -1.22619970313458
  H   1.23431459178367     -0.69091849661660     -1.08385509709939
  H   0.80858126041260     -1.53344764351337      0.41003806882720
  C   -1.61330730132322     -0.41954319981774      0.72694599053293
  N   -2.23491424489433     -0.38646089369461      1.72267168751886
  C   -1.03496258268745      0.73123650438572     -1.30371394610672
  N   -1.18902071910178      1.69828470944556     -1.95187947083434
  C   1.21323800037099      0.58898178898665      0.67707285641833
  H   0.68186598939567      0.68267499955118      1.62648009830026
  H   2.27191432637673      0.44859915650129      0.90000163746493
  H   1.10950290474345      1.52719652380456      0.12796552939762
