13
Coordinates from ORCA-job run
  C   -0.78201368032873     -0.49901031501584     -0.46438173885659
  C   0.69778632768638     -0.59798038819201     -0.10253749589424
  F   -1.15909403371199     -1.64875092601930     -1.13390465362337
  H   0.80938854521673     -1.50965171405562      0.49180425345811
  H   1.23622968293101     -0.74528911886865     -1.04341168985357
  C   -1.61423362026945     -0.37371870826381      0.74643994757345
  N   -2.23893390013532     -0.28166729611838      1.73662784004880
  C   -1.03240173700140      0.65514315781978     -1.34767313786490
  N   -1.18599160325888      1.58013481017108     -2.05446713477128
  C   1.21138888648781      0.62442701317499      0.64869440890567
  H   1.10369558995996      1.53351513307610      0.05334326117037
  H   2.27082728584650      0.49868989321270      0.87634858770310
  H   0.68135225657738      0.76415845907894      1.59311755200446
