13
Coordinates from ORCA-job run
  C   -0.86589272010118      0.26798686604328     -0.35451822776435
  C   0.52181626656383      0.67349023236972      0.10544249760904
  Cl  -1.95643597261907      1.75771734551149     -0.22017906048186
  H   0.46583788176705      0.96269761293095      1.16093511433931
  H   -0.87382867607080      0.04649008260633     -1.42251843984398
  H   0.82030718753120      1.56801528479701     -0.44596937310466
  N   -1.35753588273058     -0.85171910235599      0.36024106766957
  H   -2.26570812031417     -1.14428113567285      0.02513061112479
  H   -1.42398519139848     -0.65032999038619      1.35048582341695
  C   1.53852837400709     -0.44548453500375     -0.09710968167114
  H   1.27103901997022     -1.32962624442313      0.48058045262973
  H   1.59099807385869     -0.73750654011707     -1.14937326705075
  H   2.53485975953621     -0.11644987629979      0.20685248312735
