13
Coordinates from ORCA-job run
  C   -0.83564019485237      0.41631697619206     -0.10803176718702
  C   0.38839361677716     -0.45776873486269      0.13829281469295
  Cl  -0.80030000265890      1.80464162517353      1.03800158782307
  H   0.27754436634623     -1.33426464354698     -0.51185758297507
  H   -0.78421591042403      0.85877360789906     -1.10615178172064
  H   0.34808209614131     -0.81754348596030      1.17235603444955
  N   -2.11377508148735     -0.23842740664663      0.02084972544538
  H   -2.15273789906073     -0.75963616718580      0.88905888852801
  H   -2.24527250961521     -0.88161832859125     -0.75066543159546
  C   1.72304218314922      0.22351490106996     -0.13985231743821
  H   1.89430300754024      1.05198464595329      0.54757452210911
  H   1.75385746376402      0.61809386313089     -1.15923715330355
  H   2.54771886438041     -0.48406685262514     -0.03133753882812
