13
Coordinates from ORCA-job run
  C   -0.94934199894647      0.37537962911745     -0.28252110919937
  C   0.48860046257171      0.24593874712184     -0.75476948107030
  Cl  -1.05841993433324      1.84235952352118      0.85090864318695
  H   0.47707693555717     -0.47039715145321     -1.58296653750288
  H   -1.59487343702874      0.66305562669125     -1.11203872378124
  H   0.80472086683319      1.21088417024616     -1.15752768309378
  N   -1.44255419364158     -0.81814785155261      0.29783640551546
  H   -0.93614027666859     -1.06001113118253      1.13917100209434
  H   -2.42512216334546     -0.74182527876827      0.52461476943984
  C   1.46445878787655     -0.22131206772348      0.31881714699688
  H   1.43615639601979      0.43264435143724      1.19216637518541
  H   1.24997943252541     -1.24412819485892      0.63643812358774
  H   2.48445912258024     -0.21444037259609     -0.07012893135904
