13
Coordinates from ORCA-job run
  C   -0.98467737955613      0.50269815111039     -0.18427096076555
  C   0.42229106371946      0.24441009049806     -0.72303016481730
  Cl  -0.93729127668343      1.92339176116123      0.91967927836106
  H   0.78105592005756      1.15728714039770     -1.20756909345522
  H   -1.63439542140361      0.80246794623145     -1.00930702008330
  H   0.32200623676192     -0.51449226441439     -1.50948009958976
  N   -1.63413256073859     -0.58250732607659      0.50928793336760
  H   -1.06659110346927     -0.90666392170915      1.28194331888504
  H   -1.78956763985288     -1.35236448959109     -0.13091915919405
  C   1.43086750083566     -0.22632441231025      0.31756919565994
  H   1.53845327174586      0.50211744856022      1.12240536271925
  H   2.41131933239239     -0.36575195331322     -0.14189859597198
  H   1.14166205619108     -1.18426817054436      0.75559000488426
