16

C	-0.421991	-0.016622	-1.47382
C	0.0	0.0	0.0
Cl	-0.046367	1.573816	-2.244324
H	1.102079	0.0	0.0
N	0.295177	-1.038159	-2.2092
H	0.101079	-1.895351	-1.694275
H	1.284868	-0.839247	-2.034011
C	-1.873341	-0.22308	-1.600983
N	-3.027804	-0.425034	-1.680407
N	-0.412428	-1.277972	0.554769
H	-1.29112	-1.162018	1.047507
H	0.304243	-1.595306	1.197566
N	-0.599738	1.10892	0.743937
H	-0.283459	1.975752	0.319021
H	-0.158923	1.086552	1.660979
H	2.901535	0.0	0.0
