16

C	-0.396151	-0.090834	-1.488842
C	0.0	0.0	0.0
Cl	-0.130879	1.565718	-2.283095
H	1.094347	0.0	0.0
N	0.38593	-1.099548	-2.095187
H	1.350034	-0.997986	-1.770921
H	0.344077	-1.045606	-3.104701
C	-1.835791	-0.338762	-1.641524
N	-2.993426	-0.535228	-1.698128
N	-0.402844	-1.240225	0.63505
H	0.304237	-1.490232	1.315873
H	-1.302648	-1.153871	1.093363
N	-0.487866	1.222806	0.621201
H	-1.114355	0.998813	1.383305
H	0.313083	1.714917	1.002883
H	2.84905	0.0	0.0
