16

C	-0.270792	0.115199	-1.490087
C	0.0	0.0	0.0
Cl	-2.026902	0.559323	-1.856423
H	1.104672	0.0	0.0
N	0.583652	1.148712	-1.997883
H	1.516901	0.98975	-1.587118
H	0.645144	1.105111	-3.00804
C	-0.087903	-1.187681	-2.153983
N	0.104148	-2.163235	-2.780579
N	-0.532902	-1.217896	0.557503
H	0.171376	-1.627309	1.15982
H	-1.338204	-0.971672	1.119257
N	-0.452896	1.203603	0.706508
H	0.326848	1.485061	1.296658
H	-0.56672	1.952419	0.030131
H	2.805668	0.0	0.0
