16

C	-0.546337	-0.013895	-1.438139
C	0.0	0.0	0.0
Cl	0.011185	-1.480592	-2.319497
H	1.09823	0.0	0.0
N	-1.993994	-0.045175	-1.37992
H	-2.385662	0.108769	-2.302843
H	-2.242183	0.733205	-0.771171
C	-0.042573	1.144249	-2.197839
N	0.287559	2.101465	-2.796281
N	-0.457318	-1.142339	0.760628
H	-1.252333	-1.577375	0.311754
H	0.308723	-1.804934	0.798851
N	-0.523391	1.247285	0.592771
H	-0.731366	1.00865	1.554905
H	0.251102	1.906305	0.612623
H	2.86596	0.0	0.0
