16

C	-0.548792	-0.012899	-1.437906
C	0.0	0.0	0.0
Cl	-0.002916	-1.483765	-2.31678
H	1.098234	0.0	0.0
N	-1.996655	-0.032644	-1.375106
H	-2.236814	0.745549	-0.761582
H	-2.39232	0.127105	-2.295783
C	-0.043043	1.143471	-2.198229
N	0.262662	2.103357	-2.803526
N	-0.457787	-1.141934	0.761779
H	0.305736	-1.807322	0.796156
H	-1.256498	-1.573389	0.31587
N	-0.520219	1.249554	0.591947
H	-0.724692	1.010734	1.552751
H	0.256342	1.904745	0.60951
H	2.866265	0.0	0.0
