13

C	0.0	0.0	0.0
C	-0.464182	0.06653	-1.440463
Br	1.933012	0.0	0.0
H	-0.083413	-0.809237	-1.97626
H	-0.379366	0.820181	0.600844
H	-1.559233	0.014173	-1.335781
N	-0.404493	-1.272734	0.683961
O	-0.477688	-1.240029	1.908541
O	-0.520115	-2.276368	-0.012445
N	-0.049521	1.349346	-2.008612
H	-0.766534	1.667762	-2.646625
H	0.813134	1.245236	-2.527281
H	-2.894687	0.0	0.0
