13

C	0.0	0.0	0.0
C	-0.247276	0.024584	-1.567784
Br	1.930815	0.0	0.0
H	0.005725	1.058116	-1.837876
H	-0.371734	0.826054	0.589222
H	0.533318	-0.605393	-1.994063
N	-0.401376	-1.265343	0.682059
O	-0.509041	-1.242584	1.906342
O	-0.431568	-2.283915	-0.011218
N	-1.490787	-0.33864	-2.206585
H	-2.208421	0.046428	-1.569758
H	-1.589984	-1.343687	-2.072767
H	-2.43874	0.0	0.0
