13

C	0.0	0.0	0.0
C	-0.341265	-0.042443	-1.521698
Br	1.923067	0.0	0.0
H	-1.424014	-0.089062	-1.575246
H	-0.326395	0.906349	0.493337
H	-0.016485	0.923577	-1.923279
N	-0.54885	-1.121911	0.790073
O	-0.587172	-2.239552	0.231214
O	-0.55542	-0.975528	2.02606
N	0.221223	-1.106859	-2.339051
H	1.23238	-1.082145	-2.289008
H	-0.067921	-1.977521	-1.908955
H	-2.314807	0.0	0.0
