13

C	-0.352893	-0.179019	-1.490859
C	0.0	0.0	0.0
Br	-1.976991	-1.595844	-1.546029
H	1.094451	0.0	0.0
H	-0.313646	-0.885703	0.553925
C	-1.024595	0.947531	-2.137155
N	-1.518896	1.847697	-2.710857
N	0.747608	-0.622094	-2.169843
H	1.636006	-0.701061	-1.671198
H	0.7684	-0.575361	-3.173525
C	-0.571905	1.184394	0.611288
N	-1.047502	2.13302	1.112962
Cl	3.289795	0.0	0.0
