13

C	-0.349812	0.048348	-1.501348
C	0.0	0.0	0.0
Br	-0.07092	-1.740354	-2.277813
H	1.093925	0.0	0.0
H	-0.310162	0.960008	0.431154
C	-1.759963	0.386751	-1.721206
N	-2.884685	0.699911	-1.857768
N	0.496735	0.972534	-2.220546
H	0.281285	1.91501	-1.906962
H	1.4626	0.774074	-1.949507
C	-0.607701	-1.077831	0.759128
N	-1.132455	-1.917265	1.390748
Cl	3.289106	0.0	0.0
