13

C	-0.533316	-0.209592	-1.426586
C	0.0	0.0	0.0
Br	0.004507	-2.058591	-2.035707
H	1.092397	0.0	0.0
H	-0.326824	0.999271	0.311899
C	-1.9986	-0.228281	-1.460382
N	-3.170793	-0.179954	-1.393841
N	-0.048249	0.821197	-2.280256
H	0.952922	0.91492	-2.124304
H	-0.226671	0.617681	-3.252993
C	-0.518162	-0.989646	0.934147
N	-0.953341	-1.774917	1.691471
Cl	3.248216	0.0	0.0
