13

C	-0.58675	-0.00375	-1.414486
C	0.0	0.0	0.0
Br	0.192676	1.559058	-2.418005
H	1.091209	0.0	0.0
H	-0.332183	-0.924727	0.484632
C	-0.14198	-1.191404	-2.145478
N	0.190791	-2.155681	-2.727389
N	-2.010639	0.02441	-1.384691
H	-2.33059	0.837672	-0.870699
H	-2.391561	0.058128	-2.321276
C	-0.532258	1.130728	0.749741
N	-1.029388	2.025899	1.32519
Cl	3.287012	0.0	0.0
