13

C	-0.289116	-0.087112	-1.50977
C	0.0	0.0	0.0
Br	-2.217773	-0.426785	-1.839411
H	1.096002	0.0	0.0
H	-0.389842	0.914474	0.451412
C	-0.012233	1.218447	-2.120469
N	0.193475	2.270769	-2.600879
N	0.471574	-1.106027	-2.190614
H	0.251651	-2.00437	-1.769503
H	1.457568	-0.915179	-1.99054
C	-0.479151	-1.177152	0.706944
N	-0.860652	-2.137057	1.265988
Cl	3.262976	0.0	0.0
