13

C	-0.549356	-0.067568	-1.424013
C	0.0	0.0	0.0
Br	0.044098	1.488416	-2.456903
H	1.092578	0.0	0.0
H	-0.307327	-0.919699	0.515315
C	-0.013553	-1.255111	-2.111085
N	0.269486	-2.254966	-2.662739
N	-1.997589	-0.049954	-1.411074
H	-2.357835	-0.181689	-2.348402
H	-2.328333	-0.809826	-0.826238
C	-0.532737	1.144952	0.727138
N	-0.95378	2.054945	1.336963
Cl	3.289107	0.0	0.0
