13

C	-0.346196	0.029056	-1.504346
C	0.0	0.0	0.0
Br	0.038126	-1.775565	-2.206867
H	1.093742	0.0	0.0
H	-0.392254	-0.88245	0.507132
C	-1.773724	0.265602	-1.738899
N	-2.919375	0.472468	-1.892767
N	0.44312	0.974018	-2.253467
H	1.418183	0.840947	-1.981162
H	0.166221	1.913664	-1.981208
C	-0.484396	1.221899	0.632323
N	-0.881249	2.220202	1.108111
Cl	3.288704	0.0	0.0
