17

C	-0.492384	0.009587	-1.432302
C	0.0	0.0	0.0
F	0.24156	0.809057	-2.238565
H	1.092502	0.0	0.0
N	-0.327219	-1.418914	-2.00157
O	-1.235494	-2.207932	-1.763798
O	0.70184	-1.647364	-2.617266
C	-1.920939	0.336492	-1.585719
N	-3.067416	0.559839	-1.717629
C	-0.349044	-1.219843	0.824021
H	0.195323	-2.08304	0.435873
H	-1.419373	-1.438306	0.851868
H	0.01462	-1.031869	1.832605
N	-0.39295	1.232991	0.640354
O	-0.289785	1.30022	1.876436
O	-0.657911	2.212286	-0.085575
H	2.428476	0.0	0.0
