17

C	-0.37773	0.008822	-1.460031
C	0.0	0.0	0.0
F	0.151474	-1.090746	-2.057692
H	1.092867	0.0	0.0
N	-1.911343	-0.140695	-1.576305
O	-2.353365	-1.248813	-1.849951
O	-2.558603	0.868363	-1.317464
C	-0.012342	1.182734	-2.263127
N	0.311589	1.978259	-3.063839
C	-0.485171	-1.234662	0.717479
H	-1.5642	-1.227932	0.883056
H	-0.206705	-2.117133	0.139865
H	0.014569	-1.28757	1.685546
N	-0.384928	1.229522	0.670015
O	-0.050361	2.292903	0.127048
O	-0.889399	1.156814	1.803358
H	2.466985	0.0	0.0
