17

C	-0.397237	-0.011924	-1.447993
C	0.0	0.0	0.0
F	-0.312427	-1.292727	-1.9423
H	1.096072	0.0	0.0
N	-1.884355	0.354479	-1.687539
O	-2.667101	0.078781	-0.788867
O	-2.175502	0.779111	-2.799743
C	0.41555	0.855695	-2.312931
N	1.092278	1.480449	-3.042187
C	-0.352674	-1.208822	0.830546
H	-0.013961	-2.106663	0.312445
H	0.203279	-1.132336	1.765726
H	-1.421536	-1.275463	1.038848
N	-0.394167	1.239764	0.580398
O	-0.37219	1.34736	1.817987
O	-0.601766	2.196513	-0.201094
H	2.393967	0.0	0.0
