15

C	-0.407898	0.005606	-1.419494
C	0.0	0.0	0.0
Br	-2.409316	-0.273171	-1.733176
H	1.096803	0.0	0.0
H	-0.30935	-0.94956	0.442624
C	-0.082531	1.237836	-2.120482
N	0.17929	2.268527	-2.622415
N	0.231975	-1.174835	-2.156801
O	0.180304	-2.255314	-1.590705
O	0.744649	-0.94315	-3.245485
C	-0.4935	1.196588	0.791939
H	-0.116879	2.128669	0.363845
H	-0.099177	1.127326	1.80835
H	-1.585655	1.245814	0.839229
H	2.70747	0.0	0.0
