15

C	-0.560649	-0.019904	-1.407904
C	0.0	0.0	0.0
Br	0.173966	-1.50554	-2.433267
H	1.092084	0.0	0.0
H	-0.319611	-0.941037	0.461346
C	-2.014563	-0.153721	-1.438134
N	-3.17835	-0.315153	-1.393709
N	-0.213309	1.301326	-2.116288
O	-1.054773	2.18972	-1.979367
O	0.863487	1.400043	-2.676414
C	-0.477107	1.192289	0.821426
H	-1.565945	1.295941	0.861281
H	-0.097096	1.063744	1.838542
H	-0.050229	2.12246	0.441432
H	2.836457	0.0	0.0
