15

C	-0.476148	0.010484	-1.425011
C	0.0	0.0	0.0
Br	0.149092	1.61039	-2.36788
H	1.093184	0.0	0.0
H	-0.342836	0.929366	0.465012
C	-0.046879	-1.154023	-2.190916
N	0.300108	-2.092343	-2.808928
N	-2.009795	0.048624	-1.446255
O	-2.545209	1.058463	-1.005332
O	-2.59098	-0.976255	-1.80594
C	-0.483162	-1.225263	0.765093
H	-0.161617	-2.144917	0.270045
H	-1.568657	-1.261718	0.901789
H	-0.008891	-1.209953	1.74981
H	2.77431	0.0	0.0
