15

C	-0.473143	-0.035182	-1.433779
C	0.0	0.0	0.0
Br	0.274766	1.422049	-2.493019
H	1.092931	0.0	0.0
H	-0.315718	-0.948537	0.450909
C	-0.129257	-1.284745	-2.105031
N	0.115001	-2.287683	-2.668226
N	-2.006082	0.070022	-1.451974
O	-2.52451	1.173261	-1.563643
O	-2.598177	-0.985293	-1.222292
C	-0.508802	1.185597	0.802528
H	-1.587911	1.156556	0.99517
H	-0.269556	2.126607	0.302164
H	0.016847	1.185572	1.763616
H	2.765736	0.0	0.0
