15

C	-0.537812	0.018949	-1.390056
C	0.0	0.0	0.0
Br	0.391318	-1.351922	-2.555007
H	1.091119	0.0	0.0
H	-0.300467	0.940316	0.475111
C	-1.958751	-0.268419	-1.501593
N	-3.106458	-0.528775	-1.491854
N	-0.286994	1.356469	-2.067098
O	0.622064	2.045938	-1.611402
O	-0.98637	1.622501	-3.046295
C	-0.462418	-1.204608	0.808335
H	-1.544023	-1.235925	0.965691
H	-0.152413	-2.131925	0.320482
H	0.035524	-1.171543	1.779946
H	2.708012	0.0	0.0
