15

C	-0.475891	0.017622	-1.431207
C	0.0	0.0	0.0
Br	0.253912	1.51751	-2.442966
H	1.095417	0.0	0.0
H	-0.313028	-0.964753	0.417127
C	-0.13313	-1.206808	-2.148131
N	0.137501	-2.186864	-2.737303
N	-2.010464	0.124123	-1.428918
O	-2.528581	1.232719	-1.46796
O	-2.601003	-0.941066	-1.252972
C	-0.506847	1.154431	0.847909
H	0.026338	1.123791	1.801736
H	-0.279175	2.113205	0.378929
H	-1.582328	1.112633	1.047452
H	2.760157	0.0	0.0
