15

C	-0.495839	-0.231059	-1.398838
C	0.0	0.0	0.0
Br	0.168093	1.146049	-2.620192
H	1.107113	0.0	0.0
H	-0.328872	1.000819	0.297727
C	-0.12958	-1.530755	-1.951623
N	0.164305	-2.568239	-2.421962
N	-2.030358	-0.146519	-1.39005
O	-2.63551	-1.219883	-1.368567
O	-2.535478	0.964217	-1.269815
C	-0.473258	-1.065277	0.977351
H	0.010427	-0.870035	1.936586
H	-1.556712	-1.084213	1.128567
H	-0.151848	-2.056718	0.653701
H	2.750908	0.0	0.0
