15

C	-0.470629	-0.030635	-1.426497
C	0.0	0.0	0.0
Br	0.09235	1.577112	-2.388803
H	1.105768	0.0	0.0
H	-0.349307	0.937412	0.443657
C	0.005995	-1.189772	-2.174134
N	0.399722	-2.113728	-2.785199
N	-2.005409	-0.061335	-1.441244
O	-2.590272	0.951799	-1.079038
O	-2.533521	-1.142968	-1.69848
C	-0.468885	-1.212858	0.793526
H	-1.55267	-1.249388	0.946511
H	-0.154123	-2.140555	0.30874
H	0.020858	-1.180692	1.77054
H	2.759944	0.0	0.0
