15

C	-0.45869	-0.020641	-1.435188
C	0.0	0.0	0.0
Br	0.194098	1.516526	-2.451002
H	1.106334	0.0	0.0
H	-0.302188	-0.963136	0.431079
C	-0.026648	-1.222553	-2.142951
N	0.326274	-2.17663	-2.732985
N	-1.995868	-0.003441	-1.464813
O	-2.57255	1.077318	-1.458969
O	-2.532202	-1.106483	-1.359877
C	-0.521694	1.161696	0.82734
H	-0.273176	2.115411	0.358577
H	-0.014756	1.133033	1.795437
H	-1.602375	1.131388	0.997034
H	2.741594	0.0	0.0
