15

C	-0.49113	-0.226465	-1.405876
C	0.0	0.0	0.0
Br	0.354332	0.973944	-2.694731
H	1.106596	0.0	0.0
H	-0.322802	-0.863217	0.593205
C	-0.271247	-1.594398	-1.862312
N	-0.095204	-2.696018	-2.233564
N	-2.011217	0.016827	-1.435136
O	-2.429377	1.13295	-1.71303
O	-2.691502	-0.928495	-1.035768
C	-0.47259	1.304837	0.621413
H	0.084061	1.44978	1.550787
H	-1.543744	1.321351	0.846926
H	-0.243116	2.150823	-0.029284
H	2.736764	0.0	0.0
