15

C	-0.437744	0.3438	-1.400965
C	0.0	0.0	0.0
Br	0.27253	2.067009	-1.999095
H	1.107043	0.0	0.0
H	-0.308863	-1.037314	0.175665
C	-0.012955	-0.65803	-2.374299
N	0.349054	-1.442492	-3.17102
N	-1.970617	0.417925	-1.453027
O	-2.516721	1.473732	-1.155208
O	-2.541003	-0.651551	-1.673537
C	-0.52154	0.932328	1.079222
H	-0.29912	1.971993	0.833569
H	0.004261	0.697851	2.008315
H	-1.598532	0.845319	1.252642
H	2.731966	0.0	0.0
