15

C	-0.542533	0.064523	-1.413934
C	0.0	0.0	0.0
Br	0.127844	-1.41813	-2.4835
H	1.107354	0.0	0.0
H	-0.322709	-0.966733	0.401826
C	-2.001357	0.014351	-1.471259
N	-3.173989	-0.079484	-1.450498
N	-0.112504	1.393096	-2.066866
O	-0.879768	2.33059	-1.85341
O	0.947172	1.441292	-2.663505
C	-0.47849	1.140492	0.890932
H	-0.05521	2.093534	0.568939
H	-1.567506	1.238282	0.938997
H	-0.097321	0.948686	1.897374
H	2.827024	0.0	0.0
