16

C	0.0	0.0	0.0
C	-0.593001	0.12016	-1.405663
Cl	1.786627	0.0	0.0
H	-1.694926	0.225401	-1.236007
C	-0.403254	1.116427	0.864141
N	-0.612304	1.953657	1.661757
C	-0.458575	-1.313236	0.640714
H	-0.070728	-2.155981	0.066914
H	-0.067843	-1.361895	1.657707
H	-1.551224	-1.326645	0.658229
C	-0.308004	-1.054066	-2.215477
N	-0.121395	-2.025782	-2.84859
N	-0.106996	1.355341	-2.11608
O	0.443918	1.21929	-3.205564
O	-0.317395	2.416858	-1.541868
Br	-3.689627	0.0	0.0
