16

C	0.0	0.0	0.0
C	-0.602937	-0.03828	-1.401578
Cl	1.792051	0.0	0.0
H	-1.713924	0.014251	-1.236304
C	-0.412338	1.189262	0.754291
N	-0.620655	2.086407	1.483222
C	-0.451865	-1.245657	0.76866
H	-0.064947	-2.141406	0.279917
H	-1.543949	-1.260316	0.795122
H	-0.055008	-1.195313	1.783197
C	-0.246356	-1.257202	-2.111514
N	0.067015	-2.255119	-2.647212
N	-0.244051	1.142989	-2.268977
O	0.115833	2.17116	-1.70869
O	-0.405007	0.995456	-3.476065
Br	-3.68194	0.0	0.0
