18

C	-0.237715	-0.132223	-1.50881
C	0.0	0.0	0.0
Br	0.202705	1.539939	-2.425948
H	1.095155	0.0	0.0
C	0.656302	-1.218342	-2.063761
H	1.657506	-0.965744	-1.694407
H	0.612779	-1.262499	-3.152263
H	0.355308	-2.183105	-1.653184
N	-1.713567	-0.386695	-1.803249
O	-2.515663	0.493617	-1.502082
O	-2.018383	-1.49133	-2.25305
C	-0.461042	-1.226488	0.632379
N	-0.838628	-2.202947	1.170418
C	-0.543999	1.219319	0.73218
H	-1.635233	1.277374	0.714505
H	-0.204007	1.167724	1.769902
H	-0.128448	2.126097	0.291915
F	2.58047	0.0	0.0
