18

C	-0.244795	-0.080063	-1.508745
C	0.0	0.0	0.0
Br	0.307701	1.581348	-2.380639
H	1.096339	0.0	0.0
C	0.573636	-1.208764	-2.095875
H	0.209549	-2.160958	-1.708688
H	0.524123	-1.222675	-3.185419
H	1.591173	-1.028885	-1.731705
N	-1.733858	-0.23037	-1.799056
O	-2.116248	-1.324049	-2.215859
O	-2.469685	0.714125	-1.529457
C	-0.470531	-1.236478	0.603359
N	-0.851861	-2.22245	1.120232
C	-0.526063	1.208787	0.764587
H	-1.61554	1.2878	0.749377
H	-0.187785	1.125219	1.800723
H	-0.093893	2.118059	0.34768
F	2.568098	0.0	0.0
