18

C	-0.179587	0.086765	-1.49797
C	0.0	0.0	0.0
Br	-2.083713	0.18049	-2.078869
H	1.097666	0.0	0.0
C	0.604831	1.248814	-2.062674
H	0.155483	2.190964	-1.750529
H	0.629932	1.206115	-3.14933
H	1.609008	1.137832	-1.628655
N	0.335922	-1.19516	-2.175309
O	0.399205	-2.212662	-1.500799
O	0.627594	-1.11769	-3.365252
C	-0.641752	-1.120696	0.654392
N	-1.18331	-1.943989	1.296911
C	-0.389006	1.299219	0.715766
H	-1.402164	1.63365	0.470279
H	0.333814	2.077349	0.470681
H	-0.330824	1.133005	1.793103
F	2.561762	0.0	0.0
