18

C	-0.274442	0.079771	-1.480273
C	0.0	0.0	0.0
Br	-2.205073	0.26944	-1.910391
H	1.091036	0.0	0.0
C	0.529433	1.192033	-2.117909
H	1.547168	1.05456	-1.72872
H	0.486556	1.117982	-3.203093
H	0.137341	2.161315	-1.810684
N	0.149217	-1.219672	-2.182047
O	0.597585	-2.125913	-1.49042
O	0.038147	-1.2466	-3.405096
C	-0.610787	-1.133482	0.666281
N	-1.12788	-1.959589	1.324816
C	-0.361475	1.287723	0.748108
H	-0.150848	1.132066	1.807972
H	-1.411804	1.572316	0.634829
H	0.287075	2.096568	0.411047
F	2.567706	0.0	0.0
