18

C	-0.522729	0.037748	-1.435483
C	0.0	0.0	0.0
Br	0.260518	-1.435551	-2.451142
H	1.097052	0.0	0.0
C	-2.030483	-0.0322	-1.596606
H	-2.376884	-0.99504	-1.221486
H	-2.503524	0.768237	-1.029265
H	-2.314272	0.063492	-2.645972
N	-0.019234	1.344938	-2.049718
O	1.098938	1.391381	-2.536548
O	-0.791669	2.301652	-1.94205
C	-0.536909	-1.173381	0.654809
N	-0.981435	-2.12168	1.191774
C	-0.31555	1.265641	0.808395
H	-1.374129	1.54236	0.83889
H	0.267372	2.096123	0.409987
H	0.038078	1.092677	1.826804
F	2.513198	0.0	0.0
