18

C	-0.526195	-0.021951	-1.435465
C	0.0	0.0	0.0
Br	0.442078	-1.363354	-2.478704
H	1.093757	0.0	0.0
C	-2.010272	-0.288168	-1.592267
H	-2.217469	-1.302497	-1.251007
H	-2.313658	-0.192139	-2.635728
H	-2.584369	0.418411	-0.990871
N	-0.19228	1.343612	-2.030128
O	-1.130848	2.141188	-2.104647
O	0.969175	1.590264	-2.314484
C	-0.495836	-1.170594	0.693954
N	-0.908682	-2.113347	1.26583
C	-0.365115	1.281701	0.758096
H	-1.434974	1.516688	0.776905
H	-0.007087	1.16728	1.783082
H	0.187294	2.117917	0.324413
F	2.514241	0.0	0.0
