18

C	-0.226016	-0.13901	-1.512735
C	0.0	0.0	0.0
Br	0.127116	1.555996	-2.425406
H	1.096031	0.0	0.0
C	0.723813	-1.176094	-2.068387
H	1.710686	-0.879319	-1.691831
H	0.47062	-2.155451	-1.658691
H	0.682494	-1.221454	-3.156845
N	-1.683878	-0.463242	-1.824109
O	-1.924184	-1.54214	-2.364556
O	-2.533524	0.348303	-1.464286
C	-0.463499	-1.228719	0.626366
N	-0.843753	-2.210616	1.152709
C	-0.542572	1.221629	0.729003
H	-0.250128	1.144655	1.779126
H	-1.629023	1.309605	0.664315
H	-0.081054	2.121875	0.322708
F	2.588889	0.0	0.0
