18
Coordinates from ORCA-job run
  C   -0.68845643266455     -0.38576090698013      0.23416148950576
  C   0.62793236925342      0.40937305306642      0.31777451540703
  Cl  -0.84026432102407     -1.45460423210521      1.67761859960314
  H   0.49941026610631      1.15834331028692      1.10750127555791
  N   -0.61587404819297     -1.25301099120693     -0.93280005516717
  H   -0.75157320919860     -0.66354940966868     -1.74834467535183
  H   -1.37762986280182     -1.92163136914263     -0.90420785144710
  C   -1.89487520471809      0.54250616760951      0.24143191934869
  H   -2.81546773154746     -0.03767101517728      0.14677404960126
  H   -1.94478774758209      1.11876787922565      1.16819780215235
  H   -1.80853934199763      1.22926406056990     -0.60238952862348
  N   0.74313294297353      1.11872811658225     -0.96623425601314
  H   1.22356113164162      1.99925656403034     -0.83189543106943
  H   1.31254252482384      0.56226538814823     -1.59451115075896
  C   1.85096747108957     -0.44817223900085      0.62261877273996
  H   1.83676980869387     -0.84804894997208      1.63625213866482
  H   2.75356076169571      0.15791487357974      0.50702610685138
  H   1.88959062344942     -1.28497029984518     -0.07797372100118
