18
Coordinates from ORCA-job run
  C   -0.73290561250394     -0.28241567780576      0.32715224068575
  C   0.71102872601119      0.22208204747627      0.46196365087117
  Cl  -1.63901448644131      0.40114310920819      1.82221737861441
  H   1.09568750298867     -0.21576723341692      1.39989906048441
  N   -0.75108427241585     -1.70055720773729      0.34615146591309
  H   -1.69566892218457     -2.05472114373180      0.26007765463636
  H   -0.34715868775000     -2.06168793547294      1.20242249799772
  C   -1.46396057023831      0.25455166824213     -0.88383389017516
  H   -1.38461566183555      1.33888452083223     -0.91594023356713
  H   -2.51822426276534     -0.02818811039073     -0.84430052843202
  H   -1.02318997473104     -0.17107408539804     -1.78744132673679
  N   0.73579892826744      1.67978703947567      0.47295208851419
  H   0.33511543876475      2.02945513219608      1.33470245289538
  H   1.69692002661046      1.99599517544616      0.42766796532043
  C   1.57738126710929     -0.26806383450625     -0.69202242255970
  H   1.49093504519282     -1.34568491943524     -0.82129302219160
  H   2.62533624315945     -0.02439312189523     -0.49283582380522
  H   1.28861927276184      0.23165457691347     -1.61853920846529
