18
Coordinates from ORCA-job run
  C   -0.71259681962679     -0.32160767145628      0.21207291124578
  C   0.61970803286328      0.42787498350364      0.36510282842522
  Cl  -0.94032481538324     -1.31366766078726      1.76938801138184
  H   0.56224142654931      0.97294096074115      1.31291825932935
  N   -0.67570142303879     -1.15591221550891     -0.94153712251282
  H   -0.02801327637182     -1.92472130433636     -0.82375183322011
  H   -1.59167263084703     -1.53908747484357     -1.14058363958237
  C   -1.90152078148884      0.61727961417490      0.14542191416925
  H   -1.83985254664256      1.21200888248912     -0.76404147419457
  H   -2.83173752266383      0.04401473064301      0.15857976025727
  H   -1.89989949661665      1.28804234652478      1.00473836521857
  N   0.67427200743191      1.42114746406192     -0.70811514637121
  H   0.73655463848009      0.93002192531432     -1.59377941118881
  H   1.51210437117299      1.98193385856290     -0.60407502485926
  C   1.83767008401685     -0.49615963705152      0.40109774501284
  H   2.73422266508318      0.09663788492228      0.60078630157218
  H   1.98109006813744     -0.97992010272526     -0.56934314014570
  H   1.76145601894449     -1.26082658422885      1.17612069546255
