18
Coordinates from ORCA-job run
  C   -0.77347121094173     -0.20721880105852      0.13219152646401
  C   0.75465820428543     -0.07023381972790      0.19186951468757
  Cl  -1.48007349938031      1.49305448847640      0.53905944093932
  H   1.11246597691758     -1.08691405163106     -0.01306097573480
  N   -1.16863208559814     -1.17179990066939      1.08077642026531
  H   -2.17352969632125     -1.21622738479742      1.18548334359739
  H   -0.71762170957603     -0.98040067331061      1.96802211765240
  C   -1.31224888670379     -0.54574027624484     -1.24260123681664
  H   -0.84551488656551     -1.47316634664146     -1.58532561282472
  H   -1.12351958730196      0.25032491733671     -1.96063812925119
  H   -2.39184203462448     -0.70167668710616     -1.18849819905691
  N   1.13154458182047      0.22922351795661      1.57374335775836
  H   0.98115682172174      1.21566886983204      1.75562052123200
  H   2.11625659402073      0.03573403562389      1.70844250181913
  C   1.34929245412395      0.87766199003773     -0.84388678265220
  H   2.43511200007119      0.90730578359253     -0.72037473106698
  H   1.14297488002509      0.55484450206624     -1.86670337610287
  H   0.96299208402702      1.89055983626522     -0.71411970090919
