18
Coordinates from ORCA-job run
  C   -0.67207496499565     -0.39911579242762      0.32247158158512
  C   0.66086592631982      0.37183002238823      0.30104185796017
  Cl  -0.82694657604137     -1.20501233377563      1.93855528569563
  H   0.64624631540270      1.04770751456514      1.16825750778063
  N   -0.62881716658380     -1.42407007077345     -0.68780327556399
  H   -0.36416113227452     -0.96569394327146     -1.55505757263593
  H   -1.54310147830995     -1.84610382762133     -0.80238498689675
  C   -1.86210124983044      0.54775474621821      0.20965632570145
  H   -1.83851532786971      1.31681095285307      0.98637494440737
  H   -2.79466925639912     -0.01092763652090      0.31539913087754
  H   -1.85471964954215      1.01999584712560     -0.77540328323075
  N   0.71535626572546      1.09562300894858     -0.97708485196440
  H   0.25840882698529      1.99567673506591     -0.89761293637590
  H   1.68046082410326      1.27050390218770     -1.22885186203159
  C   1.87598595116351     -0.53683011357190      0.40249723439387
  H   1.94423520933337     -1.17548905754210     -0.47856341349266
  H   2.78334481365360      0.07049051538929      0.47494524449061
  H   1.82120266915970     -1.17515046923734      1.28256306929958
