18
Coordinates from ORCA-job run
  C   -0.84117502278841     -0.10066047489561      0.13211693055502
  C   0.69601265506792     -0.03365097834513      0.23327257130401
  Cl  -1.47179337707361      1.59098814533347      0.45999571800248
  H   1.01289646483946     -1.06901287698628      0.04492070241579
  N   -1.41016098645857     -0.97044204399283      1.11747349641547
  H   -1.47846162319941     -1.91407246705127      0.75842249114815
  H   -0.82391184306808     -0.95107341370628      1.94503750082644
  C   -1.33243695330614     -0.49383721199625     -1.24766606137765
  H   -1.08859112211869      0.25900503881126     -1.99486012996692
  H   -0.87857847097263     -1.44610767500981     -1.54301232592010
  H   -2.41683644188526     -0.61069727913289     -1.21718542988226
  N   1.04888610268363      0.25143604864808      1.62379425951342
  H   0.88612949136692      1.23395998071824      1.81638008155634
  H   2.03389578350936      0.06832464286618      1.77175620233030
  C   1.37700553119956      0.87415378989527     -0.78621592498076
  H   1.16503781719999      0.57559923361962     -1.81532907400103
  H   2.46052989812398      0.82760398774005     -0.64595835621155
  H   1.06055209687996      1.91048355348418     -0.65394265172714
