18

C	0.0	0.0	0.0
C	-0.54362	0.325714	-1.444081
Br	2.070584	0.0	0.0
H	0.319622	0.459629	-2.101631
N	-0.379864	0.984698	0.917035
H	-0.344879	1.910635	0.5163
H	0.079936	0.903002	1.810724
C	-0.405264	-1.357733	0.533388
H	-0.04571	-2.180165	-0.086543
H	-0.008697	-1.492622	1.543908
H	-1.49976	-1.302926	0.559285
N	-1.280114	1.582559	-1.351544
H	-2.119867	1.297651	-0.80797
H	-1.592375	1.779088	-2.296709
N	-1.419395	-0.692521	-2.011117
H	-0.973805	-1.602852	-1.983233
H	-2.236103	-0.686327	-1.369049
F	-3.082116	0.0	0.0
