18

C	0.0	0.0	0.0
C	-0.477913	0.164169	-1.447575
Br	1.986943	0.0	0.0
H	-1.568134	0.069085	-1.311991
N	-0.523536	1.079432	0.784826
H	-0.404627	0.818799	1.761171
H	-1.546262	0.969138	0.58284
C	-0.411456	-1.369028	0.531562
H	-1.50743	-1.327919	0.498623
H	-0.023181	-2.183197	-0.078281
H	-0.063845	-1.479137	1.56427
N	-0.004319	-0.950014	-2.275065
H	-0.559058	-0.965462	-3.123407
H	0.960741	-0.773952	-2.537629
N	-0.180307	1.503475	-1.948517
H	0.821405	1.662862	-1.892518
H	-0.449325	1.539621	-2.925581
F	-2.917737	0.0	0.0
