18

C	0.0	0.0	0.0
C	-0.482573	-0.048685	-1.456966
Br	1.968846	0.0	0.0
H	-1.565341	-0.1809	-1.310636
N	-0.558054	1.195499	0.586824
H	-0.351908	1.182979	1.581722
H	-1.583426	0.979992	0.476244
C	-0.423091	-1.269285	0.729768
H	-1.518217	-1.235823	0.701029
H	-0.037692	-2.158991	0.232376
H	-0.063362	-1.240139	1.764072
N	0.051448	-1.20246	-2.167226
H	0.954573	-0.920043	-2.537391
H	-0.552712	-1.377977	-2.962554
N	-0.15852	1.216625	-2.13786
H	-0.14957	1.931691	-1.413913
H	-0.940603	1.439733	-2.746224
F	-2.935912	0.0	0.0
