18

C	0.0	0.0	0.0
C	-0.391096	-0.338271	-1.438803
Br	2.109606	0.0	0.0
H	-1.48742	-0.353928	-1.315134
N	-0.51717	1.242367	0.430718
H	-0.424231	1.883105	-0.352068
H	-1.538561	0.991704	0.473062
C	-0.38643	-1.093456	0.969968
H	-0.07112	-0.806603	1.974414
H	0.042585	-2.052303	0.689305
H	-1.481208	-1.11614	0.906398
N	0.071233	-1.661146	-1.84409
H	-0.354941	-1.893345	-2.734258
H	1.077774	-1.631334	-1.972942
N	-0.041501	0.777168	-2.323566
H	0.952986	0.736658	-2.523074
H	-0.547925	0.674988	-3.194935
F	-2.876182	0.0	0.0
