18

C	0.0	0.0	0.0
C	-0.407876	0.018581	-1.476041
Br	2.072483	0.0	0.0
H	-1.503499	-0.018922	-1.354228
N	-0.516668	1.108954	0.719077
H	-0.413204	1.918277	0.112615
H	-1.538735	0.864245	0.692535
C	-0.40684	-1.287689	0.68231
H	0.010249	-2.158653	0.181793
H	-0.090722	-1.253014	1.726855
H	-1.501786	-1.27556	0.612423
N	0.040942	-1.171755	-2.189825
H	1.046304	-1.118185	-2.322823
H	-0.39985	-1.18751	-3.102577
N	-0.053471	1.309686	-2.073138
H	-0.58143	1.431466	-2.928676
H	0.934771	1.305813	-2.304186
F	-2.889199	0.0	0.0
