18

C	0.0	0.0	0.0
C	-0.383155	0.036548	-1.480809
Br	2.112498	0.0	0.0
H	-1.480157	-0.008176	-1.374003
N	-0.522592	1.090834	0.728552
H	-1.544686	0.832	0.699333
H	-0.433466	1.90727	0.128611
C	-0.386414	-1.303053	0.660762
H	-0.068323	-1.283178	1.704725
H	0.039767	-2.159422	0.143869
H	-1.481723	-1.304251	0.594764
N	0.079884	-1.141008	-2.205707
H	-0.346293	-1.142681	-3.125402
H	1.087122	-1.079288	-2.322699
N	-0.029083	1.339169	-2.051011
H	0.969099	1.354083	-2.239251
H	-0.522824	1.45987	-2.927208
F	-2.873224	0.0	0.0
