18

C	0.0	0.0	0.0
C	-0.247762	-0.16373	-1.557837
Br	1.978059	0.0	0.0
H	0.406665	0.598317	-2.020115
N	-0.54813	1.211872	0.531177
H	-0.376707	1.967193	-0.127811
H	-1.566894	1.016128	0.521551
C	-0.508309	-1.168115	0.814096
H	-0.232389	-1.027633	1.8622
H	-1.600251	-1.133051	0.71098
H	-0.11842	-2.109701	0.434886
N	-1.587477	0.087919	-2.031454
H	-1.686481	1.086377	-2.169267
H	-2.29692	-0.137403	-1.292211
N	0.110918	-1.52104	-1.979929
H	1.117607	-1.620623	-2.02987
H	-0.285345	-1.625628	-2.905636
F	-3.144217	0.0	0.0
