14
Coordinates from ORCA-job run
  C   -0.45760516745231     -0.69437383013170     -0.23823419197285
  C   0.84899530053126      0.08432527940213     -0.10854271005911
  H   -0.64718892770230     -0.90094343788341     -1.29563049749379
  H   1.66774312438334     -0.57291323136909     -0.42413851726179
  N   -1.64166153285557      0.15069369294356      0.21593323184805
  O   -2.68158846204290     -0.45416154855047      0.42394284661921
  O   -1.45178928801227      1.35900850354283      0.27180088161658
  C   -0.41203975701521     -1.93087301713241      0.52849013376771
  N   -0.34229762495309     -2.94413101366694      1.11857170672445
  C   1.09596246076614      0.56023109845249      1.24436273134942
  N   1.30930440628613      0.87645338904452      2.35524924850324
  N   0.88030914385922      1.23186875164250     -1.11463162441554
  O   0.38891103442207      0.97766969499680     -2.20611310364833
  O   1.44294528978548      2.25714566870920     -0.77206013557724
