14
Coordinates from ORCA-job run
  C   -0.57640789162951     -0.56860853849036      0.27944179556739
  C   0.80704090212543     -0.19515667163075     -0.24911525998244
  H   -0.55688064622251     -1.62783551676597      0.56119608158015
  H   0.97580003827359     -0.71683084812456     -1.19594236814089
  N   -1.60759644113710     -0.49948537735177     -0.84407414762377
  O   -1.21977431205750     -0.91824115486183     -1.92649637487438
  O   -2.72399108790349     -0.10646403939428     -0.55387445028675
  C   -0.98209849970243      0.23657926370965      1.42172668125235
  N   -1.25828692325727      0.85745558152385      2.37970749638596
  C   1.84454824714272     -0.52180303943582      0.71760904979855
  N   2.65144637910695     -0.82646271519704      1.51527940901124
  N   0.86899745660439      1.28619029792151     -0.59905603376706
  O   1.98395971681036      1.77731037486054     -0.67861078602486
  O   -0.20675693815363      1.82435238323684     -0.82879109289548
