14
Coordinates from ORCA-job run
  C   -0.62087010950026     -0.06577183489780      0.44547379148083
  C   0.62079368818983      0.06573673144296     -0.44533472611183
  H   -0.33662149538845     -0.11012676062969      1.49757771240517
  H   0.33642331827566      0.11027028638237     -1.49743823657204
  N   -1.28714295615656     -1.38582861246913      0.10687008318136
  O   -1.54912540016376     -1.56076725025028     -1.07704089963050
  O   -1.49169376242842     -2.14740341913654      1.04228304461789
  C   -1.55666071547810      1.02178582968162      0.19102367413566
  N   -2.29267292277992      1.91222674583879     -0.02259227750830
  C   1.55674730758487     -1.02187139172084     -0.19153853691881
  N   2.29375396629756     -1.91188648244697      0.02052492621610
  N   1.28695594407313      1.38570560841590     -0.10627470718186
  O   1.48940072194299      2.14863661740102     -1.04103285766155
  O   1.55071241553141      1.55929393238861      1.07749900954790
