14
Coordinates from ORCA-job run
  C   0.76595299939997      0.20759227659713      0.34690699553746
  C   -0.51912317387853     -0.61634694525233      0.29480954570611
  H   0.81196203653660      0.73363392118740      1.30534297227858
  H   -0.43820356881894     -1.41673982635598      1.03938532844809
  N   0.74583506722136      1.30843289857023     -0.70639369600223
  O   1.82583789162099      1.80012513340755     -0.99300057547575
  O   -0.36052684976577      1.63369982862236     -1.11811001225596
  C   1.93793625605754     -0.63547271228657      0.16252642364081
  N   2.85603235509451     -1.35898366984190      0.04559505630043
  C   -0.77088809605737     -1.18866545959844     -1.01922037394605
  N   -0.91724932038400     -1.68907428005542     -2.07168084105540
  N   -1.70166185365169      0.22243694603783      0.77221209592227
  O   -2.77006966164729      0.05252622521452      0.21176322662603
  O   -1.46583408172740      0.94683566375362      1.72986385427560
