12

C	0.0	0.0	0.0
C	-0.45657	0.284651	-1.425635
Cl	1.791408	0.0	0.0
H	-0.107662	-0.540081	-2.06783
H	-0.366452	0.788375	0.649457
H	-1.55285	0.261835	-1.292964
C	-0.456562	-1.297469	0.494754
N	-0.667423	-2.34696	0.9849
N	0.023399	1.601921	-1.844724
H	0.93941	1.53148	-2.267492
H	-0.613257	1.964683	-2.544746
F	-2.608696	0.0	0.0
