12

C	0.0	0.0	0.0
C	-0.453268	-0.293772	-1.457567
Cl	1.786177	0.0	0.0
H	0.441728	-0.442456	-2.070201
H	-0.35616	0.981061	0.29655
H	-1.031297	-1.22441	-1.443208
C	-0.454613	-1.017839	0.94447
N	-0.60488	-1.903027	1.701812
N	-1.21238	0.846885	-1.957731
H	-1.510686	0.620299	-2.902949
H	-2.041591	0.767374	-1.331361
F	-2.576213	0.0	0.0
