18

C	0.0	0.0	0.0
C	-0.247594	-0.040136	-1.555548
Br	1.949313	0.0	0.0
H	0.253036	-0.965613	-1.868153
N	-0.656733	1.155194	0.614744
O	-0.691451	2.200122	-0.08687
O	-0.66986	1.170751	1.871431
C	-0.273666	-1.291933	0.78549
H	0.071859	-2.147833	0.198051
H	0.288362	-1.257113	1.719188
H	-1.333148	-1.398006	1.006133
C	0.467913	1.036794	-2.263932
N	0.964217	1.81023	-2.99677
C	-1.660208	-0.061004	-2.161986
H	-1.546503	-0.084956	-3.256425
H	-2.223634	-0.935958	-1.84352
H	-2.201629	0.8395	-1.878383
H	-2.007072	0.0	0.0
