18

C	0.0	0.0	0.0
C	-0.241347	-0.016869	-1.556346
Br	1.94951	0.0	0.0
H	0.277579	-0.928339	-1.880757
N	-0.647569	1.146824	0.637951
O	-0.684539	2.203659	-0.044911
O	-0.655898	1.138489	1.894456
C	-0.273342	-1.309018	0.756735
H	0.114405	-2.146919	0.170549
H	-1.337565	-1.440845	0.93665
H	0.253982	-1.273362	1.710368
C	0.461607	1.082224	-2.242596
N	0.957565	1.876248	-2.953289
C	-1.647628	-0.058994	-2.174702
H	-2.206372	0.833717	-1.90099
H	-2.201127	-0.940613	-1.858143
H	-1.521001	-0.087188	-3.267678
H	-2.025012	0.0	0.0
