18

C	0.0	0.0	0.0
C	-0.235446	-0.05587	-1.554859
Br	1.956287	0.0	0.0
H	0.308219	-0.96051	-1.854355
N	-0.628176	1.165024	0.618626
O	-0.667156	2.208363	-0.081526
O	-0.633885	1.177296	1.874408
C	-0.268701	-1.290932	0.788745
H	0.085749	-2.14421	0.203602
H	0.290325	-1.251636	1.723752
H	-1.327583	-1.404918	1.004918
C	0.442427	1.042797	-2.266132
N	0.906369	1.834957	-3.000205
C	-1.63601	-0.157095	-2.176624
H	-2.167681	-1.038145	-1.821668
H	-2.221009	0.730306	-1.945751
H	-1.503313	-0.231236	-3.266962
H	-2.008069	0.0	0.0
