18

C	0.0	0.0	0.0
C	-0.232988	0.191056	-1.543622
Br	1.962896	0.0	0.0
H	0.30951	-0.656283	-1.981445
N	-0.617741	1.055209	0.797407
O	-0.65748	2.195384	0.270672
O	-0.625875	0.868648	2.038665
C	-0.262614	-1.399582	0.577096
H	0.11377	-2.14801	-0.126185
H	-1.322904	-1.558999	0.756665
H	0.282977	-1.495809	1.515983
C	0.447883	1.387033	-2.071309
N	0.913502	2.285002	-2.669987
C	-1.633788	0.192788	-2.174205
H	-2.217067	1.033178	-1.804066
H	-1.50127	0.293421	-3.262222
H	-2.167457	-0.732432	-1.963676
H	-2.000486	0.0	0.0
