14

C	-0.439437	-0.038402	-1.438914
C	0.0	0.0	0.0
F	-1.83835	-0.125761	-1.538077
H	1.093537	0.0	0.0
H	-0.128287	0.86306	-1.964159
C	0.10424	-1.231244	-2.107219
N	0.470186	-2.184136	-2.686561
N	-0.422123	-1.099888	0.791447
H	-1.20643	-1.603961	0.405341
H	0.368054	-1.70909	0.964299
N	-0.402377	1.310875	0.582542
O	-0.623851	1.38352	1.789149
O	-0.364431	2.291002	-0.175957
H	2.571259	0.0	0.0
