14

C	-0.503682	0.086698	-1.43574
C	0.0	0.0	0.0
F	-0.293898	-1.139826	-2.048514
H	1.09811	0.0	0.0
H	-1.58018	0.286789	-1.452503
C	0.172583	1.1002	-2.26762
N	0.631453	1.83266	-3.062218
N	-0.398008	-1.236766	0.632254
H	-0.748242	-0.989402	1.551493
H	0.465971	-1.755177	0.787847
N	-0.419367	1.151389	0.730634
O	-0.43328	1.096213	1.97812
O	-0.62904	2.20258	0.084526
H	2.420942	0.0	0.0
