14

C	-0.559587	0.000229	-1.419474
C	0.0	0.0	0.0
F	-0.161465	-1.155548	-2.067575
H	1.090008	0.0	0.0
H	-1.656977	-0.013933	-1.377622
C	-0.143938	1.163899	-2.216318
N	0.151527	2.064774	-2.907196
N	-0.404554	-1.138931	0.753432
H	0.392042	-1.762338	0.807022
H	-1.210111	-1.618491	0.38506
N	-0.574776	1.245707	0.621036
O	-1.767673	1.19764	0.937458
O	0.143104	2.233692	0.74249
H	2.739464	0.0	0.0
