14

C	-0.524443	-0.01174	-1.421808
C	0.0	0.0	0.0
F	0.001318	0.96452	-2.239825
H	1.096371	0.0	0.0
H	-0.227112	-0.981681	-1.827128
C	-1.999013	0.073686	-1.454636
N	-3.172868	0.108182	-1.458673
N	-0.352739	-1.234655	0.645263
H	-1.131754	-1.098296	1.276774
H	0.452462	-1.517436	1.19801
N	-0.435209	1.185953	0.741183
O	-0.4777	1.10479	1.977199
O	-0.636931	2.228837	0.104795
H	2.532188	0.0	0.0
