18

C	-0.535481	-0.026801	-1.439573
C	0.0	0.0	0.0
F	0.193419	0.818829	-2.254429
H	1.095503	0.0	0.0
C	-0.373437	-1.390135	-1.987292
N	-0.32963	-2.462854	-2.460442
C	-2.000346	0.378085	-1.559664
H	-2.639543	-0.255232	-0.943149
H	-2.309353	0.287698	-2.601475
H	-2.107112	1.419208	-1.253235
C	-0.452101	-1.178104	0.842252
H	-0.071021	-1.049716	1.854546
H	-1.539105	-1.284149	0.894065
H	-0.00948	-2.088639	0.43416
N	-0.42952	1.293923	0.624381
O	-1.075142	1.256946	1.675281
O	-0.1208	2.326733	0.035257
Br	3.427982	0.0	0.0
