18

C	-0.546618	-0.02696	-1.434907
C	0.0	0.0	0.0
F	0.189837	0.804978	-2.25671
H	1.095078	0.0	0.0
C	-0.419527	-1.395934	-1.974102
N	-0.401434	-2.474526	-2.435739
C	-2.002621	0.41185	-1.537586
H	-2.075514	1.461888	-1.252152
H	-2.338607	0.307892	-2.56969
H	-2.643464	-0.186341	-0.888838
C	-0.452364	-1.173543	0.849884
H	0.020018	-2.080215	0.470629
H	-0.101779	-1.019938	1.869572
H	-1.535682	-1.302091	0.87369
N	-0.440591	1.3052	0.601162
O	-1.247517	1.268629	1.536688
O	-0.013881	2.337794	0.091018
Br	3.446229	0.0	0.0
