18

C	-0.423221	-0.038888	-1.46641
C	0.0	0.0	0.0
F	-1.821547	-0.152325	-1.544917
H	1.092003	0.0	0.0
C	-0.077526	1.186789	-2.212779
N	0.133262	2.093385	-2.928748
C	0.207067	-1.229585	-2.169156
H	-0.197732	-2.152961	-1.754146
H	-0.025141	-1.19127	-3.234666
H	1.289551	-1.200345	-2.019338
C	-0.491852	-1.196172	0.790568
H	-0.267983	-1.039461	1.845449
H	0.055598	-2.083299	0.470611
H	-1.564592	-1.350836	0.679111
N	-0.488763	1.272222	0.618796
O	-1.423778	1.209397	1.41997
O	0.069328	2.31041	0.27204
Br	3.438658	0.0	0.0
