18

C	-0.426063	0.003153	-1.474419
C	0.0	0.0	0.0
F	0.095931	-1.16349	-2.03013
H	1.091345	0.0	0.0
C	-1.894751	-0.094024	-1.631162
N	-3.052953	-0.181404	-1.807563
C	0.137595	1.185434	-2.238131
H	-0.040719	1.035303	-3.304517
H	-0.338818	2.116459	-1.925414
H	1.210332	1.240681	-2.036219
C	-0.533541	-1.179002	0.782992
H	-0.135914	-1.146007	1.799317
H	-0.166892	-2.090589	0.308397
H	-1.624073	-1.191015	0.820601
N	-0.470759	1.287433	0.594423
O	0.319914	2.22628	0.630503
O	-1.644438	1.338552	0.978175
Br	3.526762	0.0	0.0
