18

C	-0.475677	-0.002238	-1.459505
C	0.0	0.0	0.0
F	0.245794	0.896507	-2.224149
H	1.095483	0.0	0.0
C	-0.209578	-1.341622	-2.033029
N	-0.085475	-2.398057	-2.533443
C	-1.954721	0.308463	-1.648737
H	-2.155015	1.318241	-1.293475
H	-2.191385	0.254603	-2.713061
H	-2.578311	-0.409029	-1.112706
C	-0.490885	-1.181772	0.814514
H	-0.166353	-2.109692	0.344149
H	-1.578921	-1.188804	0.924731
H	-0.043897	-1.135634	1.805113
N	-0.380787	1.283625	0.681006
O	-0.564106	1.246272	1.896841
O	-0.425303	2.31042	0.004887
Br	3.406837	0.0	0.0
