18

C	-0.509061	-0.007858	-1.448249
C	0.0	0.0	0.0
F	0.097493	1.008282	-2.165609
H	1.091429	0.0	0.0
C	-0.124812	-1.287273	-2.076728
N	0.130245	-2.315976	-2.580375
C	-2.012487	0.184151	-1.586978
H	-2.560356	-0.611897	-1.083767
H	-2.30034	1.143872	-1.15797
H	-2.270672	0.17981	-2.64741
C	-0.464458	-1.193695	0.812111
H	-1.549492	-1.291259	0.856688
H	-0.086001	-1.089436	1.829623
H	-0.022786	-2.098004	0.38912
N	-0.47352	1.276423	0.619494
O	0.110586	2.306959	0.307273
O	-1.453192	1.226005	1.369978
Br	3.454968	0.0	0.0
