11

C	0.0	0.0	0.0
C	-0.450671	-0.064155	-1.465607
Br	1.947578	0.0	0.0
H	-0.095663	0.815019	-2.010143
H	-0.347803	-0.884916	0.530696
H	-1.561256	-0.050541	-1.344033
C	-0.497606	1.192431	0.687855
N	-0.569431	2.207837	1.284352
C	-0.008051	-1.276844	-2.131617
N	0.30065	-2.266927	-2.685577
H	-2.593101	0.0	0.0
