11

C	0.0	0.0	0.0
C	-0.27727	0.050931	-1.508018
Br	1.949779	0.0	0.0
H	0.33825	-0.725579	-1.97651
H	-0.305715	-0.923287	0.469178
H	0.089932	1.015096	-1.871042
C	-0.504663	1.124804	0.754517
N	-0.689237	1.994719	1.535649
C	-1.665799	-0.108778	-1.957998
N	-2.53825	-0.030409	-2.755594
H	-2.077128	0.0	0.0
