11

C	0.0	0.0	0.0
C	-0.270132	0.052553	-1.530306
Br	1.949756	0.0	0.0
H	0.091124	1.022127	-1.895279
H	-0.326231	-0.928879	0.450973
H	0.378685	-0.700889	-1.994255
C	-0.511539	1.12053	0.770372
N	-0.688874	1.938174	1.609692
C	-1.634347	-0.137018	-2.0387
N	-2.599296	-0.108504	-2.711733
H	-2.077246	0.0	0.0
