11

C	0.0	0.0	0.0
C	-0.462036	0.004247	-1.461386
Br	1.947613	0.0	0.0
H	-1.573566	-0.000555	-1.323859
H	-0.366723	-0.90694	0.478571
H	-0.12687	-0.915987	-1.947814
C	-0.462101	1.163676	0.758488
N	-0.548353	2.141523	1.41018
C	-0.005759	1.15402	-2.222142
N	0.321782	2.07417	-2.876579
H	-2.623507	0.0	0.0
