13

C	-0.564229	0.002769	-1.425495
C	0.0	0.0	0.0
Cl	0.17652	1.403218	-2.333658
H	1.091278	0.0	0.0
H	-0.338388	-0.920679	0.485864
C	-0.15425	-1.216974	-2.131002
N	0.162509	-2.193836	-2.700079
N	-1.994532	0.049583	-1.406657
H	-2.297017	0.875859	-0.903526
H	-2.357889	0.096871	-2.350041
C	-0.525156	1.140619	0.741283
N	-1.017003	2.049699	1.297824
Br	3.454135	0.0	0.0
