13

C	-0.338786	-0.077946	-1.48839
C	0.0	0.0	0.0
Cl	-2.084349	-0.534134	-1.720802
H	1.095388	0.0	0.0
H	-0.326052	-0.935675	0.46047
C	-0.196003	1.236179	-2.144693
N	-0.036405	2.266005	-2.688785
N	0.488396	-1.105655	-2.049229
H	1.452239	-0.966223	-1.734896
H	0.453869	-1.087289	-3.060909
C	-0.584951	1.137021	0.685862
N	-1.079143	2.038628	1.252565
Br	3.430892	0.0	0.0
