13

C	-0.302644	-0.065386	-1.508557
C	0.0	0.0	0.0
Cl	-2.068432	-0.339283	-1.794292
H	1.095097	0.0	0.0
H	-0.388113	0.906897	0.467984
C	0.016903	1.240753	-2.105052
N	0.250334	2.290845	-2.57606
N	0.436876	-1.093394	-2.201492
H	0.190125	-1.990846	-1.793022
H	1.426134	-0.931365	-1.999029
C	-0.482688	-1.188984	0.684799
N	-0.868962	-2.158493	1.223165
Br	3.418098	0.0	0.0
