13

C	-0.58702	0.004098	-1.421933
C	0.0	0.0	0.0
Cl	0.010849	1.487682	-2.227662
H	1.093018	0.0	0.0
H	-0.321372	0.92324	0.49451
C	-0.119355	-1.162762	-2.182629
N	0.231271	-2.105414	-2.788212
N	-2.038305	0.021984	-1.496619
H	-2.393072	-0.832008	-1.076554
H	-2.375468	0.808968	-0.951954
C	-0.534254	-1.141376	0.734335
N	-1.040063	-2.061556	1.260766
Br	3.447139	0.0	0.0
