13

C	-0.319478	0.053072	-1.501882
C	0.0	0.0	0.0
Cl	-0.057521	-1.682937	-2.135103
H	1.094384	0.0	0.0
H	-0.382682	-0.910715	0.458935
C	-1.730978	0.329938	-1.797889
N	-2.864937	0.546781	-2.021323
N	0.520452	1.00832	-2.098444
H	0.458601	1.014513	-3.107666
H	1.485524	0.881197	-1.788896
C	-0.505625	1.177789	0.693124
N	-0.914511	2.11121	1.276892
Br	3.44861	0.0	0.0
