13

C	-0.55351	-0.029105	-1.424315
C	0.0	0.0	0.0
Cl	0.198257	1.398506	-2.296183
H	1.091825	0.0	0.0
H	-0.311357	0.944742	0.459871
C	-0.138448	-1.228088	-2.161846
N	0.116066	-2.191311	-2.783472
N	-1.979775	0.022708	-1.419181
H	-2.346292	0.050318	-2.363092
H	-2.292406	0.844801	-0.916264
C	-0.522226	-1.113034	0.785124
N	-0.93543	-2.008019	1.422558
Br	3.458703	0.0	0.0
