12

C	0.0	0.0	0.0
C	-0.275122	0.045626	-1.534287
Br	1.943082	0.0	0.0
H	0.364213	-0.745071	-1.961507
H	-0.389438	0.869911	0.525702
C	-0.387639	-1.253016	0.652504
N	-0.641813	-2.226317	1.254979
C	0.216151	1.324574	-2.065727
N	0.580815	2.341165	-2.527458
C	-1.608445	-0.203829	-2.119977
N	-2.24353	-0.414292	-3.099906
Cl	-2.967286	0.0	0.0
