12

C	0.0	0.0	0.0
C	-0.437325	0.050988	-1.509141
Br	1.94305	0.0	0.0
H	0.486001	0.049399	-2.102153
H	-0.354779	0.878778	0.532477
C	-0.402789	-1.218728	0.693667
N	-0.500804	-2.234493	1.278532
C	-1.093716	1.317299	-1.842333
N	-1.408383	2.384732	-2.217338
C	-1.177102	-1.123002	-1.979016
N	-1.557474	-2.095922	-2.517436
Cl	-2.928028	0.0	0.0
