12

C	0.0	0.0	0.0
C	-0.508757	-0.156417	-1.446415
Br	1.940051	0.0	0.0
H	-1.623651	-0.151073	-1.313314
H	-0.368262	0.942592	0.40463
C	-0.412663	-1.116183	0.847561
N	-0.577411	-2.020115	1.580035
C	-0.062421	-1.408824	-2.050431
N	0.293222	-2.411271	-2.549559
C	-0.093657	0.97643	-2.270281
N	0.227599	1.883944	-2.943653
Cl	-3.220454	0.0	0.0
