12

C	0.0	0.0	0.0
C	-0.574283	0.174085	-1.412717
Br	1.948331	0.0	0.0
H	-1.686601	0.145465	-1.214597
H	-0.346359	0.834622	0.612541
C	-0.411001	-1.264697	0.606349
N	-0.588871	-2.306736	1.121654
C	-0.201014	-0.903681	-2.320136
N	0.061352	-1.765452	-3.075242
C	-0.217327	1.473779	-1.970333
N	0.046727	2.53066	-2.412522
Cl	-3.293036	0.0	0.0
