12

C	0.0	0.0	0.0
C	-0.435573	0.269947	-1.486086
Br	1.942775	0.0	0.0
H	0.485123	0.304535	-2.082269
H	-0.362806	0.782004	0.660928
C	-0.390152	-1.318412	0.491242
N	-0.477533	-2.421317	0.890657
C	-1.032692	1.596442	-1.633771
N	-1.302739	2.719522	-1.84668
C	-1.226052	-0.794216	-2.108232
N	-1.606262	-1.686884	-2.771872
Cl	-2.929127	0.0	0.0
