12

C	0.0	0.0	0.0
C	-0.438547	-0.250016	-1.488457
Br	1.943625	0.0	0.0
H	0.483215	-0.373727	-2.070198
H	-0.352703	0.96735	0.34721
C	-0.399227	-1.056879	0.923553
N	-0.493482	-1.937525	1.697302
C	-1.088791	0.928588	-2.064524
N	-1.388999	1.905731	-2.643375
C	-1.18132	-1.492166	-1.714667
N	-1.543619	-2.55984	-2.047082
Cl	-2.930171	0.0	0.0
