15

C	0.0	0.0	0.0
C	-0.280107	0.060258	-1.534542
Cl	1.827	0.0	0.0
H	0.124036	-0.882192	-1.907894
C	-0.382498	1.199388	0.759038
N	-0.538812	2.11211	1.483926
N	-0.475172	-1.249155	0.500902
H	-1.505158	-1.16899	0.456063
H	-0.223372	-1.313927	1.482513
N	0.561302	1.14044	-2.188581
O	0.426076	2.281531	-1.764841
O	1.281652	0.786641	-3.115967
C	-1.60384	0.268455	-2.13402
N	-2.302249	0.458033	-3.067267
Cl	-3.270713	0.0	0.0
