15

C	0.0	0.0	0.0
C	-0.492957	-0.082584	-1.482106
Cl	1.791774	0.0	0.0
H	-1.594053	-0.182467	-1.386021
C	-0.393509	1.328219	0.503636
N	-0.589914	2.414187	0.906521
N	-0.480906	-0.998958	0.892959
H	-0.293121	-1.913701	0.499087
H	-1.499888	-0.872425	0.933114
N	0.041379	-1.317451	-2.147348
O	0.735922	-1.190555	-3.151602
O	-0.265204	-2.38844	-1.626854
C	-0.130591	1.087261	-2.263983
N	0.121429	2.05191	-2.885695
Cl	-3.370493	0.0	0.0
