15

C	0.0	0.0	0.0
C	-0.545767	-0.185979	-1.434374
Cl	1.778808	0.0	0.0
H	-1.648336	-0.153731	-1.327981
C	-0.370039	1.366894	0.436317
N	-0.59699	2.46337	0.795238
N	-0.497266	-1.064436	0.81046
H	-1.523931	-1.014466	0.74828
H	-0.225861	-0.904095	1.774399
N	-0.176429	-1.551509	-1.950101
O	-0.981554	-2.449419	-1.739827
O	0.899768	-1.662181	-2.535428
C	-0.05812	0.829764	-2.35244
N	0.295236	1.656871	-3.107888
Cl	-3.433853	0.0	0.0
