15

C	0.0	0.0	0.0
C	-0.316766	-0.487118	-1.491754
Cl	1.791539	0.0	0.0
H	0.553035	-0.237042	-2.102142
C	-0.394758	1.40146	0.205609
N	-0.54486	2.537837	0.461252
N	-0.476939	-0.787331	1.077789
H	-0.244504	-1.764019	0.933166
H	-1.503566	-0.677391	1.064254
N	-1.422056	0.175675	-2.303543
O	-2.141257	-0.556384	-2.963898
O	-1.356532	1.394266	-2.358492
C	-0.479753	-1.931487	-1.491842
N	-0.524112	-3.103863	-1.439102
Cl	-3.259404	0.0	0.0
