15

C	0.0	0.0	0.0
C	-0.495183	-0.126659	-1.477569
Cl	1.791351	0.0	0.0
H	-1.595873	-0.225351	-1.37531
C	-0.393983	1.342375	0.466111
N	-0.589353	2.435527	0.84977
N	-0.479339	-0.972274	0.922953
H	-1.498845	-0.848358	0.958674
H	-0.2875	-1.898415	0.559022
N	0.040391	-1.379255	-2.107468
O	0.735075	-1.280366	-3.115008
O	-0.264231	-2.435173	-1.55626
C	-0.137143	1.020612	-2.293647
N	0.107759	1.964857	-2.948614
Cl	-3.368346	0.0	0.0
