12

C	-0.400409	-0.03266	-1.43683
C	0.0	0.0	0.0
F	-1.784584	-0.166928	-1.627724
H	1.092127	0.0	0.0
H	0.069163	-0.927166	-1.857518
H	-0.346857	-0.897372	0.511367
C	0.050693	1.108461	-2.250756
N	0.391374	1.933754	-3.011807
N	-0.539959	1.139876	0.739132
O	-0.75233	2.193989	0.135031
O	-0.713643	0.991924	1.951061
F	2.508159	0.0	0.0
