12

C	-0.453765	0.124468	-1.427317
C	0.0	0.0	0.0
F	0.098499	-0.830768	-2.25743
H	1.088968	0.0	0.0
H	-0.09381	1.097711	-1.776681
H	-0.314449	0.876341	0.570402
C	-1.920318	0.096822	-1.605421
N	-3.0857	0.155145	-1.730792
N	-0.551665	-1.168514	0.682629
O	-0.557951	-1.149418	1.913209
O	-0.943143	-2.121239	0.002531
F	2.513008	0.0	0.0
