14
Coordinates from ORCA-job run
  C   -0.52905195981322     -0.07306233111903     -0.56744166504163
  C   0.97030514114796      0.18202419833361     -0.44623547123402
  Cl  -0.88824466329002      0.09994858124575     -2.30905169582253
  H   1.52548779752749     -0.51220405454919     -1.07529418401214
  H   1.21754865930828      1.20857749157339     -0.71511538794251
  N   -1.27291428036944      1.07435812469019      0.14948075686736
  O   -0.85756578874289      2.19887070570921     -0.09347935920352
  O   -2.20280825180689      0.77471364865348      0.87950348218677
  N   -1.04969728891359     -1.29745143645265     -0.10320357939465
  H   -0.58159018794715     -2.09062048415755     -0.51877248946657
  H   -1.06216869502647     -1.34476953118210      0.90628494166288
  N   1.45411874699121     -0.02986778200733      0.95026521320477
  O   0.64864600904714      0.16353740748883      1.85980045847489
  O   2.62793476188760     -0.35505453822660      1.08225897972090
