14
Coordinates from ORCA-job run
  C   -0.48099394172093     -0.11252611130674     -0.57306723429714
  C   1.01411732554071      0.12972682066714     -0.50029776930778
  Cl  -0.98621984307130      0.24831908906628     -2.24080580603293
  H   1.52711318827389     -0.64092686479458     -1.07611559846255
  H   1.27566279583057      1.11570951363782     -0.87295585534183
  N   -1.19224182430076      0.98205848062459      0.28646113961219
  O   -0.62389420853297      2.06071974947231      0.39779317910965
  O   -2.27762664270696      0.67052348328501      0.75509033234751
  N   -0.86665142454244     -1.41961258795743     -0.24114062475342
  H   -1.86316941453502     -1.54453870957835     -0.36647408626684
  H   -0.61588829675667     -1.61422652659627      0.72081419551635
  N   1.55472684260299      0.06063838319015      0.89457987471721
  O   2.72076246270100      0.40431045215539      1.02701617259539
  O   0.81330298121789     -0.34017517186534      1.79110208056417
