14
Coordinates from ORCA-job run
  C   -0.41108496645171     -0.28865284212116     -0.30018634418280
  C   0.83982940415618     -0.19325552987962      0.54593616387857
  Cl  0.03584880205394     -0.46788292107257     -2.03187841546409
  H   0.56834524060896      0.07317470320195      1.56636972301582
  H   1.36715717085159     -1.14623739801560      0.53305389164472
  N   -1.28561167232954      0.96671841372576     -0.14981336517600
  O   -1.08633293744972      1.65723966858874      0.83871773188260
  O   -2.17838415277725      1.09936059831250     -0.97373622148485
  N   -1.23135964017771     -1.33185574039388      0.19669269513255
  H   -2.08239136528661     -1.40153514762442     -0.35088778613749
  H   -0.74883032761781     -2.22140619173067      0.17048126800593
  N   1.82449157750952      0.82997294837390      0.08096914006824
  O   1.40032998714295      1.80958500486306     -0.52008237427842
  O   2.99099287976721      0.61477443377201      0.39436389309521
