18

C	0.0	0.0	0.0
C	-0.557755	0.112204	-1.424226
Br	1.958965	0.0	0.0
H	-1.652883	-0.019477	-1.349716
N	-0.437745	1.223443	0.642707
H	-1.459276	1.175992	0.724993
H	-0.042389	1.259789	1.576302
C	-0.426811	-1.271547	0.731254
H	0.044261	-2.163227	0.326848
H	-1.515687	-1.351381	0.677463
H	-0.132985	-1.154897	1.778149
N	-0.046654	-0.893193	-2.411039
O	0.072753	-0.527751	-3.576054
O	0.142134	-2.033466	-2.000368
N	-0.318064	1.484311	-1.995419
O	-1.311159	2.181622	-2.161858
O	0.840189	1.801313	-2.240965
Br	-3.790559	0.0	0.0
