11
Coordinates from ORCA-job run
  C   0.70910036829042     -0.41583027492287      0.63560271245159
  C   -0.40777023906635     -0.62435759025044     -0.37542039330335
  H   1.30367001541367     -1.33108251864901      0.70419876169012
  H   -0.04072462533491     -0.76133119294569     -1.39054758115372
  H   0.28513060897095     -0.21263077222155      1.61983868885180
  H   -1.03431702063910     -1.47201038459078     -0.09025855110814
  C   1.58164152431740      0.69239945320143      0.24885274573187
  N   2.27495737773310      1.57805711728677     -0.08440879535729
  N   -1.32072037986015      0.56443256636082     -0.41526125144819
  O   -1.78257725346281      0.87042758824472     -1.50904762652544
  O   -1.56839037636224      1.11192600848660      0.65545129017074
