19

C	0.0	0.0	0.0
C	-0.408138	0.274164	-1.456735
F	1.398223	0.0	0.0
H	0.179841	-0.462182	-2.02383
C	-0.382365	1.120377	0.887456
N	-0.607902	2.026319	1.599151
C	-0.513709	-1.311385	0.551287
H	-0.067108	-1.495317	1.531405
H	-0.241081	-2.12136	-0.129492
H	-1.601072	-1.269505	0.648868
C	0.033353	1.67222	-1.886321
H	-0.589544	2.431891	-1.408408
H	-0.081319	1.779876	-2.967544
H	1.077984	1.864186	-1.632773
C	-1.891802	0.058267	-1.714315
H	-2.184747	-0.989835	-1.639825
H	-2.532294	0.592219	-1.008626
H	-2.157855	0.406898	-2.71673
Br	-4.993273	0.0	0.0
