19

C	0.0	0.0	0.0
C	-0.41692	-0.398407	-1.426507
F	1.398805	0.0	0.0
H	0.283491	0.159529	-2.062361
C	-0.357091	1.414443	0.253844
N	-0.556452	2.552292	0.464389
C	-0.536482	-0.875142	1.110335
H	-1.630326	-0.862109	1.089235
H	-0.195951	-0.497694	2.076393
H	-0.178746	-1.897569	0.984888
C	-1.839261	0.013831	-1.782889
H	-1.963539	1.098342	-1.763705
H	-2.073214	-0.331943	-2.794424
H	-2.601868	-0.39089	-1.113698
C	-0.188661	-1.89019	-1.662183
H	0.796954	-2.210979	-1.313988
H	-0.956972	-2.485748	-1.163266
H	-0.254996	-2.10265	-2.732507
Br	-4.975108	0.0	0.0
