19

C	0.0	0.0	0.0
C	-0.512523	0.151568	-1.43519
F	1.39887	0.0	0.0
H	-1.599395	0.273013	-1.338104
C	-0.360277	1.200572	0.789159
N	-0.543954	2.172044	1.42302
C	-0.490688	-1.243704	0.709295
H	-1.58486	-1.249344	0.685529
H	-0.093477	-2.128895	0.20962
H	-0.142955	-1.239786	1.744368
C	-0.232057	-1.102772	-2.260061
H	0.827558	-1.376465	-2.216853
H	-0.833373	-1.948682	-1.921655
H	-0.492148	-0.918602	-3.306624
C	0.086309	1.388407	-2.100697
H	1.170806	1.291967	-2.206806
H	-0.346664	1.517559	-3.096103
H	-0.125759	2.293917	-1.527496
Br	-3.951838	0.0	0.0
