19

C	0.0	0.0	0.0
C	-0.393396	0.463161	-1.416555
F	1.398532	0.0	0.0
H	0.209577	-0.192951	-2.060876
C	-0.384096	0.989196	1.028272
N	-0.621891	1.789343	1.853236
C	-0.514171	-1.375421	0.359675
H	-1.601293	-1.347521	0.481113
H	-0.056339	-1.708781	1.294686
H	-0.252991	-2.074659	-0.438433
C	0.054686	1.904958	-1.653351
H	-0.570451	2.599292	-1.086302
H	-0.045226	2.155425	-2.71237
H	1.09791	2.053202	-1.365881
C	-1.868103	0.277855	-1.741214
H	-2.532258	0.737336	-1.005386
H	-2.100366	0.732367	-2.709735
H	-2.164388	-0.770645	-1.788056
Br	-5.009841	0.0	0.0
