19

C	0.0	0.0	0.0
C	-0.40957	-0.295504	-1.454988
F	1.398969	0.0	0.0
H	0.323968	0.271949	-2.042808
C	-0.351203	1.395827	0.34884
N	-0.544499	2.516802	0.639588
C	-0.548358	-0.94258	1.046192
H	-0.208152	-0.63423	2.036635
H	-1.642247	-0.915166	1.019923
H	-0.201018	-1.958202	0.8547
C	-1.80715	0.193354	-1.812244
H	-2.597774	-0.232442	-1.1906
H	-2.026086	-0.070179	-2.85157
H	-1.891866	1.277388	-1.717468
C	-0.235053	-1.777801	-1.778408
H	0.731754	-2.158153	-1.438225
H	-1.033131	-2.369992	-1.3251
H	-0.294221	-1.923688	-2.860147
Br	-4.920693	0.0	0.0
