17

C	0.0	0.0	0.0
C	-0.408665	-0.118134	-1.507023
Cl	1.793215	0.0	0.0
H	0.16911	-0.943729	-1.923
C	-0.580913	1.163884	0.780091
H	-0.273729	1.084331	1.824442
H	-0.233556	2.109174	0.369762
H	-1.674559	1.119065	0.72962
C	-0.397948	-1.274841	0.607983
N	-0.668217	-2.316706	1.079672
N	0.126217	1.09053	-2.249794
O	0.993889	0.893904	-3.099296
O	-0.375689	2.180352	-1.984655
N	-1.774667	-0.259472	-1.830389
H	-2.441341	0.246153	-1.241031
H	-2.059259	-1.227941	-1.78021
Cl	-4.263388	0.0	0.0
