17

C	0.0	0.0	0.0
C	-0.3976	0.044515	-1.516589
Cl	1.793184	0.0	0.0
H	0.210099	-0.713291	-2.01202
C	-0.595474	1.062247	0.901576
H	-1.6885	0.989639	0.848164
H	-0.275892	0.884016	1.929976
H	-0.278353	2.054104	0.584365
C	-0.389051	-1.339999	0.452292
N	-0.643609	-2.432422	0.802779
N	0.092636	1.344547	-2.113143
O	0.99591	1.282993	-2.946123
O	-0.478426	2.370556	-1.754728
N	-1.755274	-0.109784	-1.871461
H	-2.020632	-1.084859	-1.845917
H	-2.433259	0.368118	-1.272141
Cl	-4.238985	0.0	0.0
