17

C	0.0	0.0	0.0
C	-0.457444	0.259558	-1.470545
Cl	1.790414	0.0	0.0
H	0.373047	0.010321	-2.136585
C	-0.597434	0.936994	1.037948
H	-1.688723	0.892398	0.947081
H	-0.308174	0.604744	2.035999
H	-0.245984	1.954846	0.879684
C	-0.356372	-1.382691	0.357553
N	-0.536702	-2.464376	0.78169
N	-0.554228	1.809863	-1.70076
O	0.375862	2.506201	-1.298519
O	-1.508313	2.211944	-2.355209
N	-1.606803	-0.452404	-1.812748
H	-2.416651	-0.294251	-1.191672
H	-1.889464	-0.263204	-2.764145
Cl	-4.124772	0.0	0.0
