17

C	0.0	0.0	0.0
C	-0.463193	-0.2793	-1.464198
Cl	1.787095	0.0	0.0
H	0.360314	-0.76283	-1.998346
C	-0.639263	1.204634	0.670674
H	-0.417297	1.18864	1.737749
H	-1.727457	1.107888	0.547717
H	-0.284571	2.131773	0.228613
C	-0.337706	-1.199745	0.787879
N	-0.503601	-2.114816	1.505759
N	-0.561587	1.061205	-2.271044
O	0.20734	1.981981	-1.998578
O	-1.331969	1.042981	-3.225597
N	-1.618999	-1.064533	-1.520346
H	-2.425315	-0.671003	-1.011166
H	-1.889684	-1.242834	-2.477841
Cl	-4.16471	0.0	0.0
