17

C	0.0	0.0	0.0
C	-0.611919	-0.042064	-1.427382
Cl	1.793409	0.0	0.0
H	-1.622235	-0.442622	-1.287368
C	-0.495283	1.218432	0.765629
H	-0.112615	1.182956	1.786832
H	-1.588522	1.190343	0.774888
H	-0.135948	2.129288	0.284898
C	-0.359235	-1.21658	0.743443
N	-0.549938	-2.167389	1.406921
N	0.163997	-1.05114	-2.236728
O	0.957579	-0.634312	-3.075563
O	-0.029671	-2.233785	-1.960138
N	-0.698887	1.179913	-2.141455
H	-1.527582	1.673402	-1.834918
H	0.129206	1.753333	-2.06009
Cl	-3.627853	0.0	0.0
