14

C	-0.364139	-0.019152	-1.487968
C	0.0	0.0	0.0
Cl	0.170481	1.600715	-2.201031
H	1.097867	0.0	0.0
N	0.302246	-1.129349	-2.047292
H	0.206486	-1.167879	-3.053566
H	1.280203	-1.077667	-1.757295
C	-1.815356	-0.057119	-1.718661
N	-2.981552	-0.065388	-1.867889
C	-0.472021	-1.213269	0.650602
N	-0.836432	-2.181119	1.210141
C	-0.495051	1.173766	0.69833
N	-0.863084	2.119801	1.291393
F	2.46935	0.0	0.0
