14

C	-0.1031	-0.047327	-1.552124
C	0.0	0.0	0.0
Cl	0.153849	1.702896	-2.154628
H	1.097938	0.0	0.0
N	0.900077	-0.935404	-1.970384
H	1.771762	-0.708128	-1.448859
H	1.019713	-0.946841	-2.971913
C	-1.431923	-0.396256	-2.064267
N	-2.509519	-0.671243	-2.446622
C	-0.472409	-1.251255	0.568637
N	-0.843966	-2.258891	1.045808
C	-0.619801	1.140185	0.640042
N	-1.12583	2.040578	1.200941
F	2.535519	0.0	0.0
