17

C	-0.370174	0.050926	-1.503002
C	0.0	0.0	0.0
Cl	-0.082339	1.80801	-2.047181
H	1.094663	0.0	0.0
N	0.515099	-0.863076	-2.111041
H	1.485671	-0.688085	-1.845879
H	0.414986	-0.873445	-3.117656
C	-1.814265	-0.255615	-1.84259
H	-1.952175	-0.179879	-2.924055
H	-2.047479	-1.273327	-1.522796
H	-2.487809	0.444014	-1.352102
C	-0.502826	-1.230199	0.596224
N	-0.916984	-2.216454	1.081729
N	-0.55603	1.154881	0.773112
O	0.230983	1.9911	1.196657
O	-1.780959	1.176654	0.916539
Cl	3.247369	0.0	0.0
