17

C	-0.304802	0.038878	-1.506478
C	0.0	0.0	0.0
Cl	-2.098959	0.147109	-1.78916
H	1.093832	0.0	0.0
N	0.310764	1.22006	-2.044372
H	0.38308	1.127809	-3.050389
H	1.248077	1.311484	-1.654759
C	0.179786	-1.266159	-2.126696
H	-0.357625	-2.132654	-1.738334
H	1.24821	-1.365064	-1.911644
H	0.028475	-1.219297	-3.208413
C	-0.540511	-1.177504	0.654492
N	-0.938756	-2.156459	1.166647
N	-0.477444	1.235373	0.700854
O	-1.534101	1.164402	1.328123
O	0.223102	2.233709	0.584815
Cl	3.207281	0.0	0.0
