17

C	-0.34582	0.058526	-1.493955
C	0.0	0.0	0.0
Cl	-2.126616	0.423012	-1.696561
H	1.095648	0.0	0.0
N	0.421022	1.094584	-2.119676
H	1.37013	1.070936	-1.756857
H	0.445718	0.941237	-3.117855
C	-0.108698	-1.31978	-2.106237
H	0.936084	-1.59499	-1.929443
H	-0.284911	-1.254171	-3.183216
H	-0.767224	-2.083729	-1.692461
C	-0.517538	-1.192362	0.650218
N	-0.918988	-2.188397	1.125806
N	-0.404404	1.199555	0.821169
O	-0.42021	2.293572	0.278187
O	-0.628395	0.985754	2.010744
Cl	3.171433	0.0	0.0
