17

C	-0.346329	0.036649	-1.506808
C	0.0	0.0	0.0
Cl	0.007632	1.779083	-2.056165
H	1.093049	0.0	0.0
N	0.532877	-0.90791	-2.082281
H	1.501822	-0.745642	-1.804749
H	0.451013	-0.93261	-3.090024
C	-1.785424	-0.248863	-1.88688
H	-2.052728	-1.250994	-1.543578
H	-1.880046	-0.209498	-2.975858
H	-2.45759	0.482936	-1.44692
C	-0.530502	-1.208918	0.613612
N	-1.003488	-2.156552	1.124126
N	-0.53572	1.164463	0.783402
O	0.244269	1.753037	1.522146
O	-1.734645	1.412295	0.658056
Cl	3.24531	0.0	0.0
