17

C	-0.398198	-0.163953	-1.486035
C	0.0	0.0	0.0
Cl	-0.05648	1.464517	-2.308424
H	1.08998	0.0	0.0
N	0.435764	-1.201928	-1.958136
H	0.309373	-1.359417	-2.94945
H	1.417221	-1.016422	-1.747981
C	-1.863601	-0.456002	-1.739169
H	-2.132072	-1.395618	-1.252814
H	-2.491035	0.345136	-1.352838
H	-2.032659	-0.54783	-2.815117
C	-0.4976	-1.129821	0.774467
N	-0.859034	-2.057643	1.39769
N	-0.541731	1.258838	0.603102
O	0.236982	2.183956	0.788442
O	-1.749969	1.271401	0.854298
Cl	3.237326	0.0	0.0
