17

C	-0.488501	0.068654	-1.462548
C	0.0	0.0	0.0
Cl	-0.042954	-1.579784	-2.173472
H	1.090484	0.0	0.0
N	-1.888287	0.308254	-1.493077
H	-2.220173	0.353125	-2.448495
H	-2.399586	-0.414542	-0.999177
C	0.279998	1.088494	-2.280006
H	0.005084	2.093475	-1.961599
H	1.35148	0.942611	-2.132256
H	0.033116	0.958834	-3.336891
C	-0.550877	-1.147513	0.708297
N	-1.005714	-2.085064	1.25002
N	-0.450868	1.254822	0.707015
O	0.128828	2.288765	0.395966
O	-1.367084	1.167896	1.521885
Cl	3.219571	0.0	0.0
