17

C	-0.32593	0.030627	-1.49913
C	0.0	0.0	0.0
Cl	-2.117861	0.04052	-1.745802
H	1.093832	0.0	0.0
N	0.202557	1.261263	-2.02653
H	0.139628	1.241605	-3.038391
H	1.182483	1.339884	-1.752895
C	0.231374	-1.240077	-2.132184
H	0.0455	-1.209089	-3.208116
H	-0.232635	-2.140636	-1.724916
H	1.309272	-1.268062	-1.944396
C	-0.526278	-1.181513	0.660148
N	-0.914018	-2.158375	1.184323
N	-0.493111	1.229422	0.702933
O	-1.590724	1.160521	1.258479
O	0.231143	2.217587	0.658105
Cl	3.240692	0.0	0.0
