18

C	0.0	0.0	0.0
C	-0.554027	-0.024871	-1.409255
Cl	1.900229	0.0	0.0
H	-1.649129	-0.019336	-1.162729
N	-0.375817	1.214891	0.606883
H	0.074143	1.346615	1.500214
H	-0.215689	1.986537	-0.025431
C	-0.488025	-1.171908	0.810658
H	-0.154419	-1.07838	1.849285
H	-0.144862	-2.116669	0.392318
H	-1.585716	-1.050352	0.732803
N	-0.179712	-1.264593	-2.076388
H	0.810513	-1.23809	-2.304711
H	-0.704398	-1.34278	-2.939387
N	-0.198095	1.219825	-2.101172
H	-0.853576	1.371411	-2.858033
H	0.733225	1.12805	-2.496192
F	-3.02084	0.0	0.0
