18

C	0.0	0.0	0.0
C	-0.255943	-0.182268	-1.550898
Cl	1.808249	0.0	0.0
H	0.396692	0.578903	-2.017996
N	-0.545356	1.223283	0.515001
H	-0.369046	1.966601	-0.156206
H	-1.563446	1.033056	0.502806
C	-0.513872	-1.153328	0.830701
H	-0.230784	-0.996123	1.874854
H	-1.605041	-1.120532	0.731584
H	-0.122698	-2.099848	0.464882
N	-1.593662	0.050258	-2.035644
H	-1.699434	1.044919	-2.192397
H	-2.303406	-0.163603	-1.293915
N	0.122096	-1.539637	-1.958569
H	-0.249184	-1.649861	-2.894026
H	1.130513	-1.630749	-1.987406
F	-3.149492	0.0	0.0
