18

C	0.0	0.0	0.0
C	-0.568141	-0.070908	-1.401157
Cl	1.900466	0.0	0.0
H	-1.661051	-0.05523	-1.140407
N	-0.370967	1.23635	0.56767
H	0.076598	1.393547	1.458431
H	-0.207139	1.986325	-0.088941
C	-0.486402	-1.141933	0.853489
H	-0.147338	-2.101122	0.466026
H	-1.583657	-1.023448	0.777647
H	-0.146636	-1.014413	1.886508
N	-0.205807	-1.332915	-2.030834
H	-0.754392	-1.44656	-2.874468
H	0.777688	-1.313179	-2.286954
N	-0.221617	1.149801	-2.138752
H	0.697746	1.040492	-2.556936
H	-0.897317	1.286001	-2.880842
F	-3.02874	0.0	0.0
