18

C	0.0	0.0	0.0
C	-0.542626	-0.03366	-1.464694
Cl	1.854985	0.0	0.0
H	0.316064	0.037406	-2.140444
N	-0.390064	1.214547	0.64141
H	-0.446528	1.966278	-0.032423
H	0.2229	1.434317	1.412602
C	-0.444397	-1.161842	0.863579
H	-1.535336	-1.066146	0.887094
H	-0.039263	-1.034536	1.872064
H	-0.1316	-2.119579	0.452183
N	-1.394854	1.137822	-1.670721
H	-2.221207	0.924422	-1.057349
H	-1.701029	1.109132	-2.638334
N	-1.199343	-1.321597	-1.701113
H	-1.418827	-1.357432	-2.692252
H	-2.089133	-1.216575	-1.19342
F	-3.104082	0.0	0.0
