18

C	0.0	0.0	0.0
C	-0.46373	-0.036551	-1.526784
Cl	1.801717	0.0	0.0
H	0.437777	-0.045632	-2.148146
N	-0.483428	1.122845	0.766306
H	-0.299314	1.980016	0.255767
H	-1.503694	0.961268	0.741437
C	-0.393394	-1.250531	0.782248
H	-1.481552	-1.255192	0.847778
H	0.042209	-1.172649	1.780564
H	-0.040921	-2.150036	0.282661
N	-1.277078	1.103492	-1.946715
H	-0.79075	1.980015	-1.786007
H	-2.101958	1.052093	-1.337383
N	-1.20848	-1.263455	-1.775078
H	-1.512301	-1.191901	-2.742244
H	-2.053137	-1.134912	-1.202257
F	-2.925361	0.0	0.0
