18

C	0.0	0.0	0.0
C	-0.465219	-0.074403	-1.469548
Cl	1.806695	0.0	0.0
H	-1.555859	-0.13139	-1.349273
N	-0.551848	1.217913	0.539522
H	-1.578157	0.996814	0.445559
H	-0.345386	1.238392	1.534292
C	-0.439427	-1.238276	0.767267
H	-0.044363	-2.15096	0.322392
H	-0.108118	-1.16177	1.809246
H	-1.533251	-1.202847	0.707813
N	0.017288	-1.285458	-2.115226
H	-0.383805	-1.28471	-3.046433
H	1.024326	-1.208994	-2.232062
N	-0.142151	1.122213	-2.252555
H	0.86656	1.255932	-2.192592
H	-0.543907	1.909024	-1.749214
F	-2.919808	0.0	0.0
