14

C	0.0	0.0	0.0
C	-0.23215	0.04231	-1.520558
F	1.381405	0.0	0.0
H	0.332169	0.923159	-1.851174
H	-0.32371	-0.953867	0.424004
C	-0.736636	1.081872	0.677888
N	-0.725509	2.109711	1.284834
C	-1.60033	0.232772	-1.993192
N	-2.44991	0.465086	-2.784748
C	0.394555	-1.199688	-2.174345
H	1.456675	-1.271794	-1.93885
H	0.266889	-1.154063	-3.257804
H	-0.121613	-2.095216	-1.821298
H	-2.15289	0.0	0.0
