14

C	0.0	0.0	0.0
C	-0.524719	-0.041097	-1.426271
F	1.378618	0.0	0.0
H	-1.63875	-0.102468	-1.206152
H	-0.365095	-0.874537	0.542682
C	-0.432971	1.206041	0.731584
N	-0.521471	2.188141	1.371931
C	-0.044208	-1.249308	-2.076418
N	0.323858	-2.222034	-2.626562
C	-0.155044	1.206436	-2.221595
H	0.923167	1.390507	-2.195369
H	-0.461274	1.101888	-3.264832
H	-0.671798	2.069863	-1.795746
H	-2.78988	0.0	0.0
