14

C	0.0	0.0	0.0
C	-0.555597	-0.042119	-1.411212
F	1.378948	0.0	0.0
H	-1.672576	-0.103537	-1.14477
H	-0.365873	-0.864201	0.559265
C	-0.418578	1.225732	0.720894
N	-0.511733	2.195219	1.377745
C	-0.098643	-1.248138	-2.079627
N	0.250927	-2.218819	-2.646167
C	-0.228969	1.213552	-2.21359
H	-0.755661	2.063817	-1.775053
H	0.843548	1.425903	-2.212981
H	-0.556565	1.105435	-3.250338
H	-2.810045	0.0	0.0
