15

C	0.0	0.0	0.0
C	-0.517644	0.25004	-1.398624
F	1.400096	0.0	0.0
H	-1.61223	0.271685	-1.238564
H	-0.245482	-0.630339	-2.005162
C	-0.384525	1.118886	0.889521
N	-0.540768	1.987788	1.662228
C	-0.516797	-1.308234	0.554204
H	-1.614442	-1.194357	0.515272
H	-0.164474	-2.128794	-0.079822
H	-0.149084	-1.460434	1.572761
N	0.001889	1.510225	-1.926019
H	-0.60078	1.833937	-2.67029
H	0.929699	1.374633	-2.305873
F	-2.89056	0.0	0.0
