15

C	0.0	0.0	0.0
C	-0.517056	0.338407	-1.387171
F	1.399866	0.0	0.0
H	-1.612408	0.275065	-1.242562
H	-0.222463	1.372851	-1.624624
C	-0.395435	1.072177	0.938491
N	-0.558096	1.930999	1.722225
C	-0.50281	-1.339231	0.487578
H	-0.099611	-1.549635	1.482542
H	-0.174593	-2.10284	-0.218801
H	-1.598655	-1.226041	0.488822
N	-0.021963	-0.640651	-2.358036
H	0.89871	-0.370863	-2.683263
H	-0.645174	-0.652195	-3.155228
F	-2.881354	0.0	0.0
