15

C	0.0	0.0	0.0
C	-0.508438	0.309019	-1.396769
F	1.399827	0.0	0.0
H	-1.601541	0.204769	-1.272929
H	-0.259135	1.355656	-1.630136
C	-0.39629	1.087202	0.920775
N	-0.55065	1.953931	1.697147
C	-0.492386	-1.334911	0.512662
H	-0.171114	-2.105035	-0.190036
H	-0.070678	-1.533398	1.501613
H	-1.587641	-1.230031	0.529482
N	0.05147	-0.649083	-2.350693
H	-0.511067	-0.639683	-3.190828
H	0.992267	-0.370763	-2.600403
F	-2.866114	0.0	0.0
