15

C	0.0	0.0	0.0
C	-0.541289	-0.035599	-1.421327
F	1.388322	0.0	0.0
H	0.129204	-0.692812	-1.989343
H	-1.553989	-0.438938	-1.316317
C	-0.406598	1.236253	0.701006
N	-0.579142	2.237016	1.29007
C	-0.484489	-1.209496	0.778938
H	-0.187221	-2.115271	0.2395
H	-0.03342	-1.223497	1.775546
H	-1.578976	-1.100987	0.80183
N	-0.541529	1.307069	-2.02189
H	-0.698866	1.204686	-3.017915
H	-1.381479	1.750229	-1.653874
F	-2.838138	0.0	0.0
