15

C	0.0	0.0	0.0
C	-0.273904	0.078459	-1.527757
F	1.39425	0.0	0.0
H	0.084063	-0.893448	-1.894482
H	0.461068	0.821297	-1.871422
C	-0.399899	1.249805	0.677622
N	-0.616817	2.249049	1.253821
C	-0.605132	-1.195701	0.683701
H	-1.700124	-1.051285	0.584712
H	-0.308931	-1.233569	1.735697
H	-0.275561	-2.107691	0.176865
N	-1.602789	0.417945	-1.985259
H	-2.297513	0.344822	-1.187336
H	-1.90477	-0.275052	-2.654296
F	-3.138077	0.0	0.0
