15

C	0.0	0.0	0.0
C	-0.518336	0.047032	-1.419725
F	1.400348	0.0	0.0
H	-1.612596	0.096746	-1.264897
H	-0.254563	-0.914329	-1.891537
C	-0.385014	1.235157	0.71932
N	-0.556644	2.207139	1.354297
C	-0.517395	-1.214046	0.738092
H	-0.174669	-2.116966	0.222341
H	-0.141703	-1.223598	1.764516
H	-1.614972	-1.101004	0.688873
N	0.009074	1.2126	-2.126107
H	-0.597602	1.435889	-2.903799
H	0.931374	1.013157	-2.491025
F	-2.894421	0.0	0.0
