14
Coordinates from ORCA-job run
  C   -0.56308009797544      0.29990680981431     -0.08526302998566
  C   0.52107012015951     -0.73037254765528     -0.39608170497713
  H   -0.74326350547564      0.93212032880094     -0.95286804424076
  H   0.66539749559635     -1.41177893181108      0.44063642375488
  H   0.31263625498179     -1.27186935350817     -1.32037349768106
  N   -0.34876089292789      1.09656457032910      1.07410609507779
  H   0.12471215497324      1.96120568823967      0.86227859338867
  H   0.11607431249926      0.60056319864045      1.82118636697011
  N   -1.82746054170270     -0.50684290798442      0.10545792605989
  O   -1.88549051829463     -1.16988458346249      1.13688230381551
  O   -2.67343761129107     -0.45912900379287     -0.78247302078341
  N   1.79082351063861      0.01985625666025     -0.59069571138483
  O   2.69084356446126     -0.16092355958525      0.22578902147409
  O   1.82093575435733      0.80058403531484     -1.53958172148808
