14
Coordinates from ORCA-job run
  C   -0.49288193741811      0.44059958377419     -0.10545759450120
  C   0.96546016609882      0.08337174611079      0.08423086332889
  H   -0.70251749165080      0.73689953957927     -1.13078008785349
  H   1.59087427676583      0.94808734243291     -0.14738569059940
  H   1.16610677820880     -0.26647307552502      1.09480210878574
  N   -0.96643487832461      1.41963491547384      0.82017891562386
  H   -1.07649542860027      2.33341459395329      0.41241616814648
  H   -0.44234965103214      1.45843424190812      1.68142991258440
  N   -1.32348277828000     -0.81610879499325      0.09781761777937
  O   -0.94551314002350     -1.58787509986713      0.97741494629048
  O   -2.33456007241422     -0.92629717601153     -0.58240723095751
  N   1.40327772245413     -1.01237884554675     -0.83410306465890
  O   2.35980396573926     -1.68640773272439     -0.47101424501661
  O   0.79771246847680     -1.12390123856433     -1.89814261895213
