14
Coordinates from ORCA-job run
  C   -0.49904961869657      0.26937835632862      0.00841329009354
  C   0.55050898826224     -0.70719793484888     -0.48670786113019
  H   -0.74819574717193      0.99195891060084     -0.77954095786809
  H   0.27443900300963     -1.17383206060749     -1.43134766013459
  H   0.75003086402732     -1.46661767777104      0.26781827295083
  N   -0.10396715902470      0.83797211267423      1.26920802787260
  H   0.52195285186736      1.61313107903840      1.09187162509671
  H   -0.92111484241788      1.18124288725298      1.75829707584038
  N   -1.78318038905739     -0.51207818401810      0.20235552957704
  O   -2.50013899063646     -0.20231028746981      1.14676025483248
  O   -2.04076456212026     -1.36138628092928     -0.64535639487382
  N   1.84346276146322      0.00412928831765     -0.72577517218453
  O   2.84887117939508     -0.69364664189678     -0.76261927164984
  O   1.80514566110033      1.22025643332865     -0.91437675842253
