14
Coordinates from ORCA-job run
  C   -0.52154036876581      0.37898945391724     -0.12336063107846
  C   0.91774175500975      0.00043724236759      0.20979959885838
  H   -0.62148131695117      0.46031661879480     -1.20700129117745
  H   1.53442091698069      0.90017254493594      0.16283295426150
  H   1.01285079760100     -0.46892233352819      1.18838377751295
  N   -1.01808744884579      1.54690351954030      0.50482017448045
  H   -0.68865384546121      1.68846462655138      1.44772369955478
  H   -0.90795442140494      2.37684912118272     -0.05451842831172
  N   -1.39333953560999     -0.83270302737858      0.24440158543433
  O   -2.45999141001740     -0.65192102321997      0.80922413068701
  O   -0.92031057293107     -1.91744498763361     -0.08968538123157
  N   1.52459117832696     -0.94138170073104     -0.78305783496471
  O   1.30260176387252     -0.70660761672927     -1.96676451703583
  O   2.24015250819645     -1.83215243806931     -0.34279783698967
