14
Coordinates from ORCA-job run
  C   -0.57280458481291      0.29020070289099     -0.05552472209062
  C   0.53447678799996     -0.68399112830243     -0.45521544552774
  H   -0.78628042726176      0.97533922213849     -0.87412982223821
  H   0.70991237398024     -1.42046839593996      0.32727996457072
  H   0.32540388153705     -1.16056851730538     -1.41435059152908
  N   -0.36436025963511      1.01024239700313      1.15402955146211
  H   0.11848253351268      0.47292342240248      1.86020717137783
  H   0.09475943670599      1.89438593987292      0.99695018315344
  N   -1.80883480278860     -0.56764785016349      0.09403328107163
  O   -2.65105238108414     -0.51070047145061     -0.79707950654599
  O   -1.84596186584818     -1.28094046323524      1.09211174404987
  N   1.77952914953201      0.11454769649551     -0.60986356452319
  O   1.78188855340931      0.94858149018197     -1.51283124445865
  O   2.68584160475345     -0.08090404458837      0.19638300122786
