14
Coordinates from ORCA-job run
  C   -0.74387840626546      0.32284531473460     -0.11550250333465
  C   0.42886650943142     -0.13636830820778     -0.99290766544157
  H   -1.59965693195315      0.49088730498516     -0.77106279866949
  H   0.77281792004408      0.69541582381344     -1.60738430715834
  H   0.15151102266330     -0.99737479918896     -1.59862344152123
  N   -0.55730526926111      1.43321016639135      0.74701064594891
  H   0.37140882169466      1.46741204432634      1.14370366470955
  H   -0.77949505334768      2.30293468475854      0.28651648602099
  N   -1.12883381266167     -0.90334447669298      0.70041797715245
  O   -0.66366937549743     -0.98937019997853      1.82966272573374
  O   -1.82418419436618     -1.73599581066730      0.12495752412176
  N   1.57658996481241     -0.55017244051894     -0.13830121850493
  O   1.80269318896563     -1.75213314301446     -0.03372065870581
  O   2.19413561574117      0.35405383925951      0.42623356964861
