18

C	0.0	0.0	0.0
C	-0.743829	-0.090518	-1.321087
Br	1.933098	0.0	0.0
H	-1.86427	-0.144202	-0.906698
N	-0.326522	1.425244	0.564613
O	0.293271	2.377504	0.10569
O	-1.162745	1.487556	1.456715
C	-0.475401	-1.003288	1.03579
H	-0.091417	-0.726178	2.018108
H	-0.120271	-1.995866	0.775368
H	-1.567824	-0.958541	1.010065
N	-0.376291	-1.406702	-1.993115
O	-0.665803	-2.462886	-1.431803
O	0.155224	-1.349086	-3.108979
N	-0.556902	1.018733	-2.175585
H	0.348544	1.006017	-2.627282
H	-1.2816	1.028869	-2.878372
F	-2.973475	0.0	0.0
