18

C	0.0	0.0	0.0
C	-0.297188	-0.011905	-1.527429
Br	1.936075	0.0	0.0
H	0.516631	-0.612391	-1.958363
N	-0.485084	1.194257	0.765573
O	-1.241945	1.984681	0.228596
O	-0.047765	1.303111	1.917095
C	-0.510363	-1.256255	0.698178
H	-1.60893	-1.161304	0.678686
H	-0.115915	-1.268941	1.71591
H	-0.174617	-2.138409	0.151369
N	0.130432	1.372432	-2.206839
O	0.608165	2.32605	-1.582971
O	0.074157	1.327276	-3.431773
N	-1.544622	-0.497591	-1.937303
H	-1.698285	-0.263225	-2.893688
H	-2.30599	-0.243366	-1.212503
F	-3.033887	0.0	0.0
