18

C	0.0	0.0	0.0
C	-0.280464	-0.011816	-1.555082
Br	1.946165	0.0	0.0
H	0.132486	0.919626	-1.938055
N	-0.446058	1.28692	0.642577
O	-0.592115	1.278646	1.857228
O	-0.525152	2.271593	-0.081389
C	-0.418492	-1.222379	0.783487
H	-0.018332	-1.168849	1.795545
H	-0.017304	-2.110206	0.289876
H	-1.51402	-1.181217	0.76165
N	-1.721309	0.019064	-2.065205
O	-2.132362	1.112815	-2.426732
O	-2.249409	-1.056879	-2.309515
N	0.280629	-1.135641	-2.274326
H	1.235593	-1.303232	-1.996524
H	-0.290202	-1.949704	-2.083685
F	-2.517998	0.0	0.0
