18

C	0.0	0.0	0.0
C	-0.31329	-0.050564	-1.524964
Br	1.951345	0.0	0.0
H	0.125378	0.856266	-1.955359
N	-0.31621	1.331644	0.623825
O	0.030757	1.426653	1.842268
O	-0.88201	2.169482	-0.031283
C	-0.335252	-1.181773	0.910673
H	0.009482	-2.083502	0.406525
H	0.202678	-1.033896	1.845945
H	-1.416075	-1.181186	1.048351
N	-1.733279	0.00797	-2.033995
O	-2.247585	-1.094884	-2.380748
O	-2.104201	1.131876	-2.4222
N	0.219799	-1.292327	-2.053783
H	1.215969	-1.20611	-2.165427
H	-0.215688	-1.500342	-2.943669
F	-2.388371	0.0	0.0
