19

C	-0.226507	-0.044989	-1.493997
C	0.0	0.0	0.0
Br	-2.240209	-0.316803	-1.920157
H	1.101705	0.0	0.0
C	0.146027	1.262649	-2.161277
H	0.034121	1.182632	-3.247092
H	1.200772	1.435898	-1.912075
H	-0.448836	2.089188	-1.781794
N	0.479405	-1.183561	-2.005808
H	0.598881	-1.088959	-3.006776
H	1.408591	-1.156246	-1.568532
C	-0.463594	-1.244716	0.740108
H	-1.554633	-1.253576	0.844418
H	-0.161016	-2.151206	0.214038
H	-0.010756	-1.251596	1.737091
N	-0.457397	1.250392	0.591909
H	-1.380417	1.120125	0.989793
H	0.180048	1.48504	1.343515
H	2.861292	0.0	0.0
