19

C	-0.512036	-0.018013	-1.434885
C	0.0	0.0	0.0
Br	0.27623	1.682412	-2.346519
H	1.095411	0.0	0.0
C	0.050686	-1.158503	-2.254677
H	-0.406871	-2.091759	-1.915335
H	1.133417	-1.201938	-2.115037
H	-0.177479	-1.027673	-3.315505
N	-1.923825	0.060071	-1.466166
H	-2.264108	0.257829	-2.399015
H	-2.193698	0.806503	-0.831433
C	-0.452259	-1.246859	0.750938
H	-0.064481	-2.152447	0.283053
H	-0.026443	-1.210272	1.759033
H	-1.541895	-1.310441	0.81523
N	-0.552315	1.1923	0.676445
H	0.115998	1.94445	0.523839
H	-0.54467	1.008437	1.675446
H	3.008199	0.0	0.0
