19

C	-0.310762	0.084832	-1.500522
C	0.0	0.0	0.0
Br	-0.150266	-1.871361	-2.317347
H	1.104453	0.0	0.0
C	-1.721732	0.47928	-1.887129
H	-1.926825	1.466021	-1.467981
H	-1.829297	0.50673	-2.974858
H	-2.443846	-0.232957	-1.48657
N	0.663633	0.916955	-2.053635
H	0.639937	0.962655	-3.063404
H	1.600963	0.692205	-1.69276
C	-0.594648	-1.14753	0.780695
H	-0.35968	-1.00816	1.841872
H	-0.165826	-2.097733	0.467774
H	-1.684413	-1.186973	0.678183
N	-0.480764	1.281598	0.582569
H	-0.109363	1.29846	1.530086
H	0.036639	2.008727	0.092495
H	2.986846	0.0	0.0
