19

C	-0.513496	-0.040944	-1.431956
C	0.0	0.0	0.0
Br	0.153335	1.733806	-2.340212
H	1.09881	0.0	0.0
C	0.141491	-1.117205	-2.269184
H	-0.109413	-0.998654	-3.326332
H	1.224414	-1.061836	-2.13596
H	-0.221918	-2.092552	-1.934368
N	-1.922543	-0.067821	-1.463473
H	-2.262295	0.637297	-0.816004
H	-2.283722	0.101477	-2.393482
C	-0.427642	-1.252526	0.759311
H	0.037761	-1.221537	1.750459
H	-0.059671	-2.156367	0.272222
H	-1.513799	-1.314022	0.86668
N	-0.581394	1.173169	0.681472
H	-0.400805	1.05486	1.673587
H	-0.025032	1.975002	0.396949
H	3.013332	0.0	0.0
