19

C	-0.218934	-0.020209	-1.503991
C	0.0	0.0	0.0
Br	-2.197588	-0.27795	-1.926596
H	1.100604	0.0	0.0
C	0.210776	1.285227	-2.133266
H	-0.367909	2.117053	-1.740673
H	0.118367	1.214746	-3.218147
H	1.263588	1.428657	-1.857715
N	0.493202	-1.098297	-2.159248
H	1.471067	-0.958481	-1.874925
H	0.20577	-1.98157	-1.752651
C	-0.455892	-1.242411	0.750395
H	-0.062161	-1.192205	1.770186
H	-1.549058	-1.303797	0.79361
H	-0.074165	-2.166113	0.308206
N	-0.463444	1.240763	0.612209
H	0.194246	1.488456	1.344492
H	-1.37364	1.096895	1.037384
H	2.882486	0.0	0.0
