19

C	-0.611026	-0.01392	-1.406841
C	0.0	0.0	0.0
Br	-0.040122	-1.72454	-2.338754
H	1.094352	0.0	0.0
C	-2.133096	-0.075283	-1.390686
H	-2.508393	-0.98232	-0.91569
H	-2.49776	0.80336	-0.849541
H	-2.521151	-0.044047	-2.412054
N	-0.104275	1.08004	-2.162485
H	-0.772555	1.396179	-2.851275
H	0.11461	1.826848	-1.515604
C	-0.449017	-1.137747	0.902006
H	-0.2966	-2.110844	0.433477
H	0.163114	-1.10645	1.806245
H	-1.503092	-1.048702	1.193391
N	-0.314202	1.321534	0.594094
H	0.545284	1.633525	1.036223
H	-1.018834	1.234657	1.315208
H	2.893307	0.0	0.0
