19

C	-0.450344	-0.006245	-1.465197
C	0.0	0.0	0.0
Br	0.094707	1.705714	-2.317597
H	1.095815	0.0	0.0
C	0.24555	-1.098897	-2.262409
H	0.039571	-0.994434	-3.331459
H	-0.126967	-2.074171	-1.93469
H	1.322424	-1.052703	-2.078173
N	-1.910929	-0.005659	-1.552216
H	-2.184625	0.101873	-2.52302
H	-2.233342	-0.918038	-1.244123
C	-0.446612	-1.275259	0.718407
H	-1.535827	-1.324854	0.834765
H	-0.01064	-1.235538	1.717754
H	-0.084695	-2.184734	0.233238
N	-0.483371	1.147337	0.763459
H	0.177969	1.903592	0.623936
H	-1.373949	1.438634	0.372578
H	3.033419	0.0	0.0
