16

C	-0.457112	0.098444	-1.452411
C	0.0	0.0	0.0
F	-0.231302	-1.129531	-2.083523
H	1.096497	0.0	0.0
H	-1.543135	0.263957	-1.509926
C	0.312843	1.158705	-2.210811
H	1.380328	1.014995	-2.026042
H	0.097938	1.070634	-3.278906
H	0.026358	2.161273	-1.883519
C	-0.531056	-1.207516	0.615192
N	-0.990376	-2.156997	1.134876
C	-0.420876	1.232233	0.806133
H	-1.496572	1.431045	0.736615
H	-0.160918	1.089941	1.856601
H	0.13412	2.103244	0.452983
H	2.851806	0.0	0.0
