16

C	-0.446398	-0.009229	-1.462231
C	0.0	0.0	0.0
F	-0.124356	1.231836	-2.024666
H	1.096131	0.0	0.0
H	0.155973	-0.752996	-1.995503
C	-1.926449	-0.234173	-1.700054
H	-2.512786	0.538411	-1.19683
H	-2.141005	-0.18327	-2.770938
H	-2.235717	-1.211237	-1.323879
C	-0.452163	-1.226853	0.63849
N	-0.831078	-2.21734	1.148032
C	-0.459195	1.232009	0.777406
H	-0.09371	2.121446	0.263308
H	-0.0066	1.21164	1.771379
H	-1.546465	1.296759	0.886371
H	2.805353	0.0	0.0
