16

C	-0.444102	-0.002543	-1.463288
C	0.0	0.0	0.0
F	-0.131837	1.244923	-2.016348
H	1.096061	0.0	0.0
H	0.165652	-0.737681	-2.00037
C	-1.921589	-0.23862	-1.705958
H	-2.134013	-0.180366	-2.776965
H	-2.515933	0.524111	-1.197469
H	-2.222757	-1.221444	-1.338895
C	-0.450869	-1.230991	0.631455
N	-0.828726	-2.224579	1.135681
C	-0.462471	1.227003	0.782985
H	-1.550309	1.291356	0.886152
H	-0.015869	1.199632	1.779384
H	-0.093985	2.119737	0.277088
H	2.805352	0.0	0.0
