16

C	-0.391617	0.027648	-1.478429
C	0.0	0.0	0.0
F	-1.797704	0.1082	-1.534336
H	1.097626	0.0	0.0
N	0.144404	1.134474	-2.211502
H	1.143201	0.972003	-2.342631
H	0.061909	1.924908	-1.576057
C	-0.036191	-1.245412	-2.144689
N	0.192162	-2.261478	-2.686545
N	-0.486015	-1.172639	0.713458
H	-1.338212	-1.522739	0.288339
H	0.215281	-1.90476	0.68002
N	-0.439109	1.269071	0.567127
H	0.186136	1.485457	1.333564
H	-1.367168	1.145532	0.954938
Br	3.523266	0.0	0.0
