16

C	-0.524451	0.00949	-1.441942
C	0.0	0.0	0.0
F	0.040479	-1.088519	-2.117365
H	1.098501	0.0	0.0
N	-1.942281	-0.065312	-1.421853
H	-2.312463	-0.208577	-2.352546
H	-2.174676	-0.840527	-0.80681
C	-0.108947	1.217298	-2.181862
N	0.198254	2.165544	-2.801315
N	-0.541419	-1.224913	0.612106
H	-0.506788	-1.054923	1.61066
H	0.109735	-1.977851	0.4108
N	-0.45787	1.149658	0.750364
H	-1.345657	1.482939	0.39506
H	0.234827	1.88426	0.688372
Br	3.583819	0.0	0.0
