16

C	-0.567989	0.009982	-1.423733
C	0.0	0.0	0.0
F	-0.169066	-1.107004	-2.114827
H	1.098303	0.0	0.0
N	-2.004535	0.020743	-1.35104
H	-2.405096	0.257613	-2.251571
H	-2.254588	0.730317	-0.668106
C	-0.053302	1.185238	-2.181524
N	0.25955	2.162042	-2.754245
N	-0.434119	-1.196293	0.665827
H	-1.36306	-1.092535	1.047615
H	0.230053	-1.446492	1.384857
N	-0.511181	1.232851	0.653278
H	-0.274924	1.143358	1.636737
H	0.046159	2.01518	0.316426
Br	3.566717	0.0	0.0
