16

C	-0.520793	0.049757	-1.443934
C	0.0	0.0	0.0
F	-0.09187	-1.071728	-2.131606
H	1.099092	0.0	0.0
N	-1.95698	0.034547	-1.411802
H	-2.227488	0.728008	-0.718914
H	-2.342155	0.281379	-2.315088
C	0.006182	1.229483	-2.175251
N	0.307905	2.207274	-2.752477
N	-0.452462	-1.200478	0.673225
H	0.268945	-1.903369	0.578157
H	-1.301807	-1.542267	0.239287
N	-0.557123	1.180305	0.682429
H	-0.587934	0.92603	1.662936
H	0.111826	1.940163	0.59475
Br	3.575984	0.0	0.0
