13

C	0.0	0.0	0.0
C	-0.596666	-0.086226	-1.37426
Cl	1.782066	0.0	0.0
H	-1.71368	-0.125551	-1.066871
H	-0.348689	0.927048	0.450854
H	-0.336598	-0.835394	0.60574
N	-0.277916	-1.401007	-2.002551
O	-0.178129	-2.368167	-1.237033
O	-0.225759	-1.491767	-3.22999
N	-0.318607	0.993638	-2.260982
H	-1.063126	1.67517	-2.208976
H	0.568938	1.432211	-2.050108
H	-2.887817	0.0	0.0
