13

C	0.0	0.0	0.0
C	-0.449668	0.020327	-1.453458
Cl	1.775843	0.0	0.0
H	0.273042	-0.505575	-2.085575
H	-0.364158	0.870172	0.537093
H	-0.349346	-0.917578	0.465255
N	-0.211779	1.488583	-1.973597
O	0.083007	1.582827	-3.168779
O	-0.403205	2.447111	-1.228865
N	-1.745886	-0.455157	-1.628174
H	-2.061855	-0.384221	-2.587498
H	-2.519139	-0.170323	-0.913985
H	-3.599218	0.0	0.0
