13

C	0.0	0.0	0.0
C	-0.524521	-0.028257	-1.407721
Cl	1.782084	0.0	0.0
H	-1.645004	-0.115799	-1.180119
H	-0.355843	-0.87066	0.54542
H	-0.370375	0.907989	0.470468
N	-0.050271	-1.294043	-2.071767
O	-0.271203	-2.35358	-1.481493
O	0.500621	-1.228793	-3.18039
N	-0.192818	1.140215	-2.150393
H	-0.713516	1.149397	-3.017085
H	0.794211	1.130615	-2.385061
H	-2.84637	0.0	0.0
