15

C	0.0	0.0	0.0
C	-0.367449	0.140842	-1.514107
Br	1.962423	0.0	0.0
H	0.531379	-0.071759	-2.101876
C	-0.456509	1.136706	0.79315
N	-0.506297	2.07097	1.515717
C	-0.411689	-1.230215	0.671754
N	-0.502761	-2.211599	1.320473
N	-0.821661	1.444642	-1.812073
H	-0.992062	1.52375	-2.806623
H	-1.698103	1.577207	-1.312681
N	-1.296566	-0.976721	-2.007432
O	-2.237313	-0.659845	-2.732408
O	-0.91683	-2.125622	-1.798099
H	-2.00855	0.0	0.0
