15

C	0.0	0.0	0.0
C	-0.214648	0.046282	-1.606549
Br	1.95659	0.0	0.0
H	0.532427	0.752466	-1.96055
C	-0.58149	1.229392	0.527863
N	-0.63182	2.348801	0.917911
C	-0.448992	-1.164552	0.740004
N	-0.546372	-2.124729	1.421267
N	-1.464578	0.359836	-2.217637
H	-1.587161	1.365081	-2.159079
H	-2.187674	-0.041642	-1.614397
N	0.203264	-1.280076	-2.186958
O	1.107262	-1.277044	-3.01956
O	-0.450312	-2.260947	-1.844349
H	-2.043163	0.0	0.0
