15

C	0.0	0.0	0.0
C	-0.366154	-0.215775	-1.50537
Br	1.963592	0.0	0.0
H	0.528946	-0.577635	-2.021849
C	-0.456732	1.290475	0.505646
N	-0.508243	2.379858	0.961612
C	-0.417426	-1.041877	0.935135
N	-0.492055	-1.863417	1.779457
N	-0.793326	0.990893	-2.104119
H	-0.973172	0.834847	-3.087785
H	-1.661461	1.265341	-1.649323
N	-1.318864	-1.398646	-1.727526
O	-2.25499	-1.239455	-2.508674
O	-0.961238	-2.475958	-1.259288
H	-2.00291	0.0	0.0
