15

C	0.0	0.0	0.0
C	-0.293616	0.066194	-1.56187
Br	1.966113	0.0	0.0
H	0.580415	-0.3556	-2.057268
C	-0.546747	1.166794	0.672711
N	-0.603652	2.213544	1.227777
C	-0.393835	-1.225634	0.681088
N	-0.47182	-2.229523	1.296661
N	-0.537155	1.376172	-2.064189
H	0.24897	1.961673	-1.809795
H	-1.361638	1.744256	-1.60128
N	-1.392214	-0.861586	-2.02067
O	-1.135248	-2.058481	-1.890809
O	-2.383279	-0.399282	-2.571153
H	-1.927707	0.0	0.0
