15

C	0.0	0.0	0.0
C	-0.316975	0.310401	-1.530774
Br	1.958924	0.0	0.0
H	-1.362661	0.604405	-1.560976
C	-0.47518	1.013735	0.940358
N	-0.533024	1.831845	1.791052
C	-0.590996	-1.297919	0.31984
N	-0.61749	-2.458097	0.569911
N	-0.085206	-0.770797	-2.424777
H	-0.804768	-1.467165	-2.263826
H	0.822038	-1.191949	-2.257825
N	0.444187	1.531123	-1.98003
O	0.110046	2.584595	-1.436044
O	1.29939	1.421884	-2.852143
H	-2.096536	0.0	0.0
