14

C	-0.564266	-0.041164	-1.427368
C	0.0	0.0	0.0
Br	0.059656	-1.64279	-2.345902
H	1.089892	0.0	0.0
H	-1.651983	-0.122863	-1.378056
C	-0.228346	1.137186	-2.215051
N	0.022288	2.083083	-2.865451
N	-0.444977	-1.063683	0.842151
H	0.294321	-1.744498	0.945281
H	-1.299248	-1.502195	0.528056
N	-0.53406	1.287974	0.591367
O	-1.755664	1.448261	0.492744
O	0.23938	2.050429	1.151901
Br	3.451979	0.0	0.0
