14

C	-0.548704	0.030976	-1.421665
C	0.0	0.0	0.0
Br	0.246644	1.38515	-2.570129
H	1.098407	0.0	0.0
H	-0.246657	-0.918852	-1.86629
C	-2.004321	0.117149	-1.461575
N	-3.177448	0.15812	-1.517638
N	-0.501662	-1.216938	0.634853
H	-0.41599	-1.068708	1.636396
H	0.182697	-1.930067	0.412658
N	-0.473208	1.160591	0.811263
O	-0.352357	1.070608	2.027368
O	-0.917719	2.139903	0.221572
Br	3.388416	0.0	0.0
