14

C	-0.537068	0.007556	-1.441461
C	0.0	0.0	0.0
Br	-0.044527	-1.658056	-2.328625
H	1.089923	0.0	0.0
H	-1.629277	0.028637	-1.429398
C	-0.044681	1.139415	-2.215185
N	0.350345	2.051909	-2.841837
N	-0.51387	-1.021105	0.854441
H	0.059519	-1.849894	0.77771
H	-1.489567	-1.224616	0.676182
N	-0.477706	1.318542	0.574611
O	0.343167	2.14449	0.948325
O	-1.704924	1.449172	0.64682
Br	3.295947	0.0	0.0
