14

C	-0.420309	0.053674	-1.471737
C	0.0	0.0	0.0
Cl	-0.034624	-1.518173	-2.263872
H	1.093685	0.0	0.0
H	-0.305064	0.941663	0.471729
C	-1.862718	0.264244	-1.632019
N	-3.01251	0.485298	-1.739464
C	0.381472	1.154506	-2.158858
H	1.439527	0.968028	-1.948277
H	0.186099	1.164279	-3.232578
H	0.102379	2.122559	-1.732758
C	-0.573649	-1.107869	0.740009
N	-1.023422	-1.998372	1.361404
H	2.759185	0.0	0.0
