14

C	-0.361456	-0.064732	-1.478015
C	0.0	0.0	0.0
Cl	-2.166572	-0.193612	-1.742199
H	1.094572	0.0	0.0
H	-0.361312	0.920917	0.463632
C	0.036782	1.188777	-2.124752
N	0.320632	2.187085	-2.674283
C	0.332386	-1.245392	-2.13581
H	1.40199	-1.148426	-1.911658
H	-0.041729	-2.172226	-1.698042
H	0.155973	-1.254735	-3.212896
C	-0.48785	-1.155733	0.728267
N	-0.85332	-2.099441	1.326453
H	2.704356	0.0	0.0
