17
Coordinates from ORCA-job run
  C   0.99591661600565     -0.18246066588398     -0.25511282676457
  C   -0.46837183018840     -0.42940785201186      0.11253047946233
  F   1.32725751724888     -1.07374611965337     -1.30042753578077
  H   -0.49213224758683     -1.46316472704345      0.48565233081179
  N   1.85458822871655     -0.34846497126661      0.85849376901473
  H   1.73364336825955     -1.27121843175709      1.25836807524333
  H   2.82424912015156     -0.21578667574892      0.59875137233130
  C   1.18220481061253      1.17412246234473     -0.81286748200211
  N   1.30517690039602      2.25298496321538     -1.25835926758689
  C   -1.36935384162686     -0.33431196460920     -1.11524361459045
  H   -1.04078430736573     -1.00666930268878     -1.90750841466271
  H   -2.39372898379230     -0.59810067886798     -0.84246194532919
  H   -1.38142483120773      0.68601495635783     -1.50887346085207
  C   -0.92535918471820      0.51951856118490      1.21681299573743
  H   -1.95660985176560      0.29176017727020      1.49696684529969
  H   -0.89568655686793      1.55592132624858      0.86889737199728
  H   -0.29658492627119      0.44200894290961      2.10338130767089
