15
Coordinates from ORCA-job run
  C   -0.74274550117947     -0.52127973871857      0.30366906300052
  C   0.56637963562447     -0.13171251339709     -0.40721834646479
  Br  -1.35384554816431     -2.15608115855101     -0.64729980756785
  H   1.27631873693671     -0.96252832883018     -0.28057426228883
  N   -0.63531257062864     -0.86785581421981      1.68801587719880
  H   -0.46413075146409     -0.03762124943360      2.24186150594958
  H   0.08966642786151     -1.55859735680499      1.84079677383473
  C   -1.77457052339866      0.49845803915979      0.11751567896045
  N   -2.62245993432410      1.30044700081898     -0.01687901834370
  N   1.23329509341019      1.03081139723989      0.30556270508218
  O   0.61348836729186      1.65885988463022      1.15840996372764
  O   2.37558246716077      1.26433940725095     -0.07564085790353
  N   0.36071695753258      0.33534942356794     -1.74694508617816
  H   -0.17634566014054     -0.33719451605095     -2.27835240414780
  H   1.25296280348172      0.48260552333843     -2.20292178485924
