15
Coordinates from ORCA-job run
  C   -0.64856355871560     -0.58508798070566      0.46042299320312
  C   0.37405676807328     -0.16261829715784     -0.63087968099038
  Br  -0.05516327950916     -2.32010880878324      1.19477345637814
  H   0.38143094403442     -0.89317441459917     -1.43975926735510
  N   -0.86769286283273      0.32798619155900      1.53436306751825
  H   -1.46634160751974      1.09457714835607      1.25578686637461
  H   0.00467245667422      0.65630026377748      1.92857763892646
  C   -1.91314727938578     -0.82508849843545     -0.23741061925461
  N   -2.92312222161566     -1.00205497849283     -0.81074015598830
  N   1.77877409907618     -0.20755244227120     -0.05312608681436
  O   2.00918923631131      0.58110166782218      0.86594543316342
  O   2.58350275925045     -0.98217383444022     -0.55670929155727
  N   0.02166601614128      1.13087548509534     -1.10277328425352
  H   0.25481147600032      1.84186233562417     -0.42122264749441
  H   0.46492705401723      1.34515616265136     -1.98624842185611
