15
Coordinates from ORCA-job run
  C   -0.56048116745642     -0.40380379070338      0.52881689809136
  C   0.21420096616875      0.31047865125410     -0.59749930556971
  Br  0.74117857953980     -0.61921128611222      2.09218215614022
  H   -0.43299259561396      0.29858127337383     -1.47764896992450
  N   -1.68561034225476      0.37976560426816      0.82668144748611
  H   -1.42119024220414      1.34304299658589      0.99372163591615
  H   -2.25311282614589     -0.00175205459949      1.57132855539726
  C   -0.97008789706827     -1.76765450404341      0.20610655188912
  N   -1.38008370794557     -2.84748933998012     -0.01162995262528
  N   1.43047764405556     -0.52320524271768     -1.00773966081110
  O   2.54015812119939     -0.06025753373239     -0.76936674589814
  O   1.18404610017945     -1.58824577371381     -1.56409920063273
  N   0.52461274021372      1.63606877156570     -0.21063354295584
  H   0.76051853675796      2.20344450838325     -1.01354885655565
  H   1.30636609057436      1.64123772017155      0.43432899005277
