15
Coordinates from ORCA-job run
  C   -0.68109975695278     -0.47974657708040      0.36997756467160
  C   0.54608615794056     -0.23566812829503     -0.53525854111281
  Br  -1.50937723093639     -2.19017278816398     -0.31724009853840
  H   1.17199959060632     -1.12885693047745     -0.53269376593791
  N   -0.30970073098682     -0.52760488930169      1.72881488742678
  H   0.39898400598348     -1.22741156949433      1.91289121828396
  H   -1.10280901925324     -0.65840821659493      2.34278315062907
  C   -1.69542347843728      0.55219060802767      0.16086862648780
  N   -2.50131979383001      1.39083873779761     -0.00810677806862
  N   1.39287622346997      0.82165257663541      0.18596191937598
  O   1.05508820291633      1.99040872514761      0.02927433759625
  O   2.33514818022784      0.41276833322848      0.85724706309677
  N   0.17410814191545      0.13373843865232     -1.84358841559225
  H   -0.22741642923488      1.06381133521052     -1.86569416703484
  H   0.95185593657153      0.07946034470826     -2.48623700128343
