15
Coordinates from ORCA-job run
  C   -0.64728661296093     -0.41489053482726      0.40563294904615
  C   0.30127690268588      0.38061454259257     -0.51440367934097
  Br  0.47910814774948     -1.06860873614718      1.98401231007759
  H   -0.26216997095210      0.60761134418589     -1.42255073169580
  N   -1.69666132964642      0.44201555558511      0.76931968232040
  H   -1.33892212133789      1.31787171647792      1.13089230154562
  H   -2.36777036600112      0.01081314111141      1.39051738874231
  C   -1.18070088709572     -1.63643234555229     -0.19072628268944
  N   -1.69788602226749     -2.59843195805229     -0.62509974256923
  N   1.44535035609523     -0.51772285035271     -0.99065925525990
  O   2.57605911716093     -0.24781282616591     -0.60218559853933
  O   1.12747206518776     -1.43007111771854     -1.74632654827073
  N   0.72613529226058      1.56605303573569      0.13174906100550
  H   1.44458403104857      1.35699968359133      0.81528237575905
  H   1.09341139807323      2.23199134953625     -0.53445423013125
