15
Coordinates from ORCA-job run
  C   -0.55212587844811     -0.21067686542695      0.51039523848435
  C   0.46103824068045      0.21453928660510     -0.59734495805369
  Br  0.14077720223811      0.23301503944382      2.27976062184163
  H   -0.01190249620188     -0.04854986180869     -1.54859500964882
  N   -1.73678971376652      0.59922884359415      0.28571204431130
  H   -2.22402064676548      0.25050501835254     -0.53616663462814
  H   -2.36683075584342      0.52190108062588      1.07663633647221
  C   -0.82196368153133     -1.65227949920356      0.49867020074778
  N   -1.13288593752208     -2.78672710427695      0.46405434480344
  N   1.68079678685155     -0.65790982270962     -0.51961908750781
  O   2.63338532313756     -0.23282232717930      0.12571924577626
  O   1.60931096939946     -1.74363598899962     -1.09027933082785
  N   0.85922883533355      1.57904990203838     -0.59738244662169
  H   0.02989843863000      2.16009022728097     -0.56588091993437
  H   1.43408331380816      1.77127207166383      0.21432035478541
