15
Coordinates from ORCA-job run
  C   -0.64916278216343     -0.40745179526239      0.34709263745724
  C   0.63095131294903     -0.19144432525691     -0.50795118456617
  Br  -1.56034075565150     -2.00261078790530     -0.55649920501193
  H   1.20454023349393     -1.11901690174546     -0.49624056569307
  N   -0.33715923858507     -0.60878566386153      1.69652057740762
  H   0.34333211960884     -1.34300112290238      1.84606813060983
  H   -1.14656979738660     -0.73206167061796      2.28981867218094
  C   -1.59569048231047      0.69152283704363      0.18417270977189
  N   -2.35106794133075      1.57999143572730      0.03647181416308
  N   1.46435226131965      0.81264422100363      0.25042423489123
  O   2.39674410192942      0.37435032342921      0.91591342550418
  O   1.12031184284200      1.98470121027490      0.14747028467547
  N   0.47609148379635      0.28362611850722     -1.83653960423583
  H   0.10764818420032     -0.43536584607054     -2.44266813277213
  H   -0.10398054271174      1.11290196763656     -1.87405379438235
