15
Coordinates from ORCA-job run
  C   -0.65278680461831     -0.57884603290170      0.34641418674067
  C   0.56521285794386     -0.26045660673410     -0.53475313311393
  Br  -1.38058504614589     -2.27040219962828     -0.31762626705794
  H   1.21122313675890     -1.13758478585478     -0.55269707894122
  N   -0.22545771636582     -0.79414823664692      1.70966580906993
  H   -0.07214118049578      0.10404943732326      2.15680452889572
  H   -0.93954972113415     -1.29525736058159      2.22392826296648
  C   -1.71198748201496      0.42579566741929      0.17069354877336
  N   -2.55058041680441      1.24135662551517      0.04860198917634
  N   1.41085640123258      0.80551485344429      0.16490819524412
  O   2.61802561607885      0.75565279753720     -0.04574282375323
  O   0.82176700154376      1.68189138810375      0.79927712523939
  N   0.20080765400400      0.13635367470849     -1.84417613878304
  H   0.99680119751468      0.16197414282455     -2.46657247824756
  H   -0.29060549749732      1.02210663547136     -1.86072572620910
