15
Coordinates from ORCA-job run
  C   -0.64698758564926     -0.51646613453053      0.34068963635627
  C   0.59914694601751     -0.15189798385650     -0.47430334329862
  Br  -1.38273964191167     -2.13554224981412     -0.51278778292670
  H   1.29472170754003     -0.99725506357690     -0.39361720185510
  N   -0.27005768558066     -0.89621928405816      1.68073173394698
  H   -1.04181260338068     -1.36643211689598      2.13889551705016
  H   -0.04509854061106     -0.05552086331014      2.20238794745024
  C   -1.68902572897701      0.51394741064453      0.24249321750031
  N   -2.54786349361846      1.31721527637124      0.24249629944138
  N   1.34005828549319      1.00508104928216      0.16793965858443
  O   0.82745597073276      1.61093461287213      1.10480870119552
  O   2.42250035598966      1.25909032558526     -0.34755857852994
  N   0.27598374879288      0.31211978221864     -1.79420746247632
  H   -0.26677454038911     -0.38435953282337     -2.28825226643846
  H   1.13049280555189      0.48530477189174     -2.30971607600019
