15
Coordinates from ORCA-job run
  C   -0.66679635106163     -0.46477217204839      0.39848891653507
  C   0.40401841777036     -0.15693435037168     -0.66551866760484
  Br  -0.16938004051715     -2.24986061917125      1.21796011895504
  H   0.44297584525931     -0.96533588021253     -1.39539581084004
  N   -0.81425209166522      0.58466704241650      1.32822102093909
  H   0.03507757858262      0.74028073418694      1.85681248872259
  H   -1.60901825256798      0.44815991715309      1.93858183191093
  C   -1.93281831140522     -0.70709435612679     -0.29173044709589
  N   -2.95960374964163     -0.90493782008927     -0.82734853231503
  N   1.79166310928849     -0.19000945421009     -0.01653913625411
  O   2.63117145138562     -0.91804278342112     -0.53399668979614
  O   1.98395502231073      0.57404089459847      0.93003006592053
  N   0.10049680998639      1.07796084910840     -1.27909547100285
  H   0.04938575041701      1.83331904735124     -0.60926135584472
  H   0.71212481185822      1.29655895083649     -2.05320833222962
