15
Coordinates from ORCA-job run
  C   -0.64301769975014     -0.54792792910180      0.32589564550874
  C   0.38879306172401     -0.02551629245293     -0.69165952333401
  Br  -0.07531080748459     -2.43122056082439      0.81009268149983
  H   0.42976301021440     -0.69267388830928     -1.55248184071173
  N   -0.79289724529909      0.31890901580577      1.42791629717882
  H   -1.56571737887449      0.05233729937813      2.02332283400722
  H   0.06639753021003      0.40665360763716      1.95602248797395
  C   -1.92032878089173     -0.70641928452346     -0.36771082151534
  N   -2.95183326300769     -0.83693360401999     -0.91479572277689
  N   1.79464849240071     -0.12886700477338     -0.08962721911651
  O   2.63816045476315     -0.73066156288971     -0.74443397982081
  O   1.99286268804814      0.46464926614951      0.97113999449173
  N   0.03616574922626      1.28774020379288     -1.07131086036250
  H   0.62298753955434      1.65931045452263     -1.80531908871139
  H   -0.01967335083329      1.91062027960883     -0.27705088431108
