15
Coordinates from ORCA-job run
  C   -0.61457015054937     -0.45065615698414      0.39519230774466
  C   0.50437314536550     -0.13853551202410     -0.62902980367410
  Br  -0.19953395953171     -2.25482203732916      1.20343770426240
  H   0.53747268490339     -0.93133679499986     -1.37519368705910
  N   -0.79335405546364      0.59241867346213      1.32834764360056
  H   -1.60091753292436      0.44762339182218      1.91988338060632
  H   0.04411379024776      0.74738301978746      1.87654512375168
  C   -1.84511202608184     -0.64822233526922     -0.37173268868260
  N   -2.81854408484540     -0.77662104315536     -1.01757618339724
  N   1.85382320449853     -0.20902112792631      0.05778995828087
  O   2.70864206480222     -0.91335592170886     -0.46249606757748
  O   2.00306566211414      0.49310898108762      1.05652544660578
  N   0.37918495314225      1.14268032697271     -1.23060675564720
  H   -0.08729238139496      1.79901058708193     -0.61867541180250
  H   -0.07035131428252      1.10034594918295     -2.13241096701206
