15
Coordinates from ORCA-job run
  C   -0.61484264373445     -0.50431896369971      0.32119798050853
  C   0.54794039139516     -0.06899418540834     -0.60410641697132
  Br  -0.16381225189353     -2.34508966761623      1.02235002930251
  H   0.66427339096473     -0.80153380068169     -1.40176595194067
  N   -0.89877219226522      0.45701674614636      1.31385202133614
  H   -0.10521555755362      0.60461500669791      1.92561451420741
  H   -1.73480337966113      0.23600272507441      1.83844636785505
  C   -1.78635684338764     -0.69791780375843     -0.53388846172207
  N   -2.71341012776321     -0.82296114375007     -1.24534379630058
  N   1.85455741199528     -0.13201166405011      0.16153679995856
  O   1.90818582285587      0.49908743583279      1.21579141661619
  O   2.77196170209009     -0.75859948492449     -0.35132042676790
  N   0.39844379622224      1.24716812234950     -1.11898825680794
  H   0.00813128748372      1.25235962627429     -2.04894523940801
  H   -0.13728080674827      1.83417705151373     -0.49343057986592
