15
Coordinates from ORCA-job run
  C   -0.75728459721929     -0.30636721791613      0.29835096136612
  C   0.42093652285815      0.38350240881180     -0.41885525281791
  Br  0.05696023761546     -1.51637320118342      1.73353461186234
  H   -0.00232178649498      0.91709345027305     -1.27316635765431
  N   -1.58841630820959      0.70281239772031      0.80713316597412
  H   -1.05459073290958      1.37240976369528      1.34792402126038
  H   -2.38786642826274      0.34535276049841      1.31240425569509
  C   -1.52883320111653     -1.21359501900771     -0.54657368658977
  N   -2.22647154835052     -1.91422308486564     -1.18217181486268
  N   1.34175087729838     -0.66684376021220     -1.04489034460288
  O   0.86717075723839     -1.30239472175733     -1.98047593213188
  O   2.47161084413081     -0.77637463809823     -0.58249792819372
  N   1.07533078635353      1.27424346098923      0.46512221554212
  H   1.64305026931319      1.93909814602378     -0.04267434682996
  H   1.66797430775531      0.76165925502873      1.10783643198293
