15
Coordinates from ORCA-job run
  C   -0.68115638886076     -0.40260375704836      0.36022132826489
  C   0.49272400875617      0.31018422819836     -0.39210712205750
  Br  0.02951437965732     -1.21548640317945      2.00660920664739
  H   0.06362824410173      0.69702579177609     -1.31981665811204
  N   -1.72737610497857      0.50468670342040      0.74439472022241
  H   -2.26226556476543      0.80874813503688     -0.06148506269044
  H   -1.35112199974440      1.29853164924864      1.24754524661452
  C   -1.27215176960501     -1.46775740237145     -0.44831936089638
  N   -1.80769151847198     -2.28062750338083     -1.10731265103576
  N   1.50906808089062     -0.71926312424613     -0.83689461078991
  O   1.23187241166974     -1.33702595102058     -1.86326562129547
  O   2.50074877675755     -0.87158409321794     -0.13482732354607
  N   1.15805145604083      1.34828578937602      0.30211766976420
  H   0.67564422584352      2.23181475524562      0.26441080502684
  H   1.43951176270869      1.09607118216273      1.23872943388336
