15
Coordinates from ORCA-job run
  C   -0.66035099496837     -0.58411477543065      0.44539633175017
  C   0.38285623004029     -0.16064059696332     -0.62583509515175
  Br  -0.09191140364792     -2.32855929750119      1.17622673345404
  H   0.39807723752436     -0.88471887876763     -1.44043780334754
  N   -0.89059575034459      0.32243809026771      1.52278704153836
  H   -0.02229379569336      0.63987004049547      1.93456923669351
  H   -1.47681975157477      1.09680866686378      1.23921107343259
  C   -1.91517719143143     -0.80919130071930     -0.27477158777448
  N   -2.91705941182763     -0.97433264212160     -0.86556054742364
  N   1.77780439075645     -0.22110986888744     -0.02576458796637
  O   2.58528001693270     -0.99654534056352     -0.52354554493411
  O   2.00003462874018      0.56093474457307      0.90096130340564
  N   0.04807175512685      1.13902445330759     -1.09286462566128
  H   0.27528930149639      1.84322394661189     -0.40239217500262
  H   0.50579473887084      1.35691275883509     -1.96797975301252
