14
Coordinates from ORCA-job run
  C   -0.16745369263906     -0.04302414980418     -0.17355787298042
  C   0.76048892367837      0.19583898205375      0.78914796959652
  C   0.06946683605071     -1.03960673653616     -1.26477006140900
  H   -0.71730043806279     -1.80062596626743     -1.24768367492920
  H   0.00853338273669     -0.54409190294137     -2.23914231219167
  H   1.03646038360007     -1.53622855503242     -1.18562141041858
  C   -1.47884757241803      0.67815590309577     -0.19916425711378
  H   -2.29907707569990     -0.04466516895466     -0.14332644272928
  H   -1.58776818373209      1.39311685257292      0.61597559593850
  H   -1.59018219194954      1.20952599484791     -1.14970580362999
  C   2.01973034207656     -0.49138421578259      0.81965113420882
  N   3.05075419268940     -1.05664934169396      0.84040951106347
  C   0.53981100814131      1.14902613454842      1.83892503047011
  N   0.35438408552832      1.93061216989400      2.69786259412451
