14
Coordinates from ORCA-job run
  C   -0.17119205233635     -0.03770013450197     -0.17115287455142
  C   0.77820819468636      0.17052740973339      0.77763571825950
  C   -0.13424907833307     -1.23178728893823     -1.07299346418209
  H   -0.10168434144130     -0.90556569443449     -2.11741364800235
  H   0.71885882796173     -1.88275278582421     -0.88319590367238
  H   -1.05324273062728     -1.81431864914596     -0.95242859945162
  C   -1.30722651893509      0.91613856724647     -0.37012469794877
  H   -1.28313568170729      1.75776169021806      0.32204346302589
  H   -2.25862905736295      0.38877380898753     -0.24694126342172
  H   -1.29113959126880      1.30368755429941     -1.39394063485297
  C   1.86950074811178     -0.74023697245001      0.97481532942055
  N   2.76174663410209     -1.48971989739424      1.13356298199825
  C   0.74930503946571      1.31301113936085      1.64528383932330
  N   0.72187960768446      2.25118125284340      2.35384975405583
