14
Coordinates from ORCA-job run
  C   -0.15601739464772     -0.02925117565785     -0.18634698548096
  C   0.70978855548354      0.13310673326122      0.84744233145521
  C   0.09748707450096     -1.02219987040976     -1.27728895298046
  H   -0.75071583996447     -1.70898542616865     -1.35821300815889
  H   0.17533029844927     -0.50180442335273     -2.23725696753457
  H   1.00622446719064     -1.60339508585506     -1.12174746131895
  C   -1.41330509949909      0.77582910342627     -0.29397221518942
  H   -2.28131192662813      0.10889881816717     -0.26961841683021
  H   -1.43997962129433      1.29480287461571     -1.25721923279090
  H   -1.51716830837972      1.51161435169985      0.50330401610928
  C   1.91434803931934     -0.63841632015647      0.95978182297123
  N   2.90068809759552     -1.27301979045353      1.04767047453103
  C   0.47435946151606      1.08574431284527      1.89430472097347
  N   0.27827219635815      1.86807589803857      2.75015987424413
