14
Coordinates from ORCA-job run
  C   -0.16804577272307     -0.03923790222848     -0.17312834878304
  C   0.75917920519874      0.17391951774105      0.79637047328590
  C   -0.04497033808405     -1.17141014671138     -1.14451737601871
  H   0.01964135219497     -0.77699450481410     -2.16388270383355
  H   0.82535153656699     -1.80010136411931     -0.95828655799111
  H   -0.94429511748174     -1.79392693255043     -1.10354021845384
  C   -1.36502806973128      0.84623551075385     -0.32620012383045
  H   -1.39329110482509      1.25805868179311     -1.33985238616954
  H   -1.37848049998866      1.67012088441091      0.38683017130257
  H   -2.27938799591765      0.25808194510865     -0.19840861150380
  C   0.65001140285727      1.25886322302209      1.72897317071921
  N   0.55748268742231      2.15066785156610      2.49009907267727
  C   1.91019398850409     -0.67013743531069      0.94512084772437
  N   2.85263872600715     -1.36413932866139      1.05942259087472
