14
Coordinates from ORCA-job run
  C   -0.16853497639714     -0.03928112444239     -0.17292400312076
  C   0.76197394775401      0.16916187838871      0.79441646695555
  C   0.00385489625142     -1.09886675421707     -1.21593414626577
  H   -0.81653621892594     -1.82063847971491     -1.14974074270838
  H   -0.05042272837116     -0.64925511146632     -2.21234713867642
  H   0.94793940504977     -1.63547260002169     -1.12503919690093
  C   -1.41879524165333      0.77999826120957     -0.25182199254036
  H   -2.29416174730617      0.12342011455055     -0.22766992523627
  H   -1.45024239164907      1.31297872870940     -1.20774798525699
  H   -1.50345852659060      1.50708550008505      0.55538756581360
  C   0.60318262974763      1.18595945590848      1.79450199507856
  N   0.46798472566793      2.02291936177239      2.60944927200372
  C   1.96476533467536     -0.60911332156128      0.87420192412881
  N   2.95045089174729     -1.24789590920047      0.93426790672565
