14
Coordinates from ORCA-job run
  C   -0.16358503871410     -0.03753212136275     -0.17859025619953
  C   0.74195375573575      0.16862961657402      0.81245154747288
  C   -1.37019623528421      0.83403635578477     -0.33603267081237
  H   -1.36924111295026      1.29025618273991     -1.33112922379026
  H   -2.27749269861044      0.22530604195740     -0.26823440013353
  H   -1.42406424591724      1.62573998010594      0.41094089636179
  C   -0.00617759018361     -1.14762192184405     -1.17019863558678
  H   0.04285278192081     -0.73473963802005     -2.18289839847107
  H   0.88475292164193     -1.75057292882804     -0.99588377388775
  H   -0.88417440075677     -1.80055892521512     -1.13717305415944
  C   1.90171359559075     -0.66152821544888      0.96893296401625
  N   2.85179052594068     -1.34335631075566      1.09387143972743
  C   0.59714035944902      1.23053201454392      1.76659418394463
  N   0.47472738213768      2.10140986976858      2.54734938151774
