14
Coordinates from ORCA-job run
  C   -0.16209292975965     -0.03145306435189     -0.18072959642212
  C   0.73669342144017      0.14217488493464      0.82274523034372
  C   -1.36970204708148      0.84255121114431     -0.31577364647436
  H   -2.27576255417615      0.22934349940106     -0.27869890018559
  H   -1.36180016065857      1.33633434217297     -1.29269657662580
  H   -1.43209364520479      1.60506831479193      0.46033305824495
  C   0.00407780354702     -1.10641637783424     -1.20903698715664
  H   -0.86892925786064     -1.76678152179010     -1.19829413728636
  H   0.89936651198861     -1.70831409836770     -1.05465498689030
  H   0.05007507524713     -0.65926954478417     -2.20721761471998
  C   1.89613538429687     -0.69220821836356      0.95865572810055
  N   2.84506922036772     -1.37842820301873      1.06661489612339
  C   0.58434675331680      1.17109079587319      1.81110929336983
  N   0.45561642453696      2.01630798019230      2.61864423957871
