17

C	0.0	0.0	0.0
C	-0.482661	0.206252	-1.451786
Cl	1.790842	0.0	0.0
H	-1.579435	0.23952	-1.307379
N	-0.472328	1.139494	0.753016
H	-0.203156	1.009586	1.72425
H	-1.497992	1.003031	0.681133
N	-0.481619	-1.2987	0.423792
H	-1.507939	-1.135504	0.392314
H	-0.212216	-1.42245	1.396184
C	-0.103495	-0.927114	-2.401952
H	-0.458289	-1.869301	-1.987082
H	0.979402	-0.985948	-2.534291
H	-0.565821	-0.762243	-3.379001
C	-0.027888	1.487984	-1.983665
N	0.315212	2.479109	-2.513627
F	-2.832025	0.0	0.0
