17

C	0.0	0.0	0.0
C	-0.408903	0.078906	-1.526323
Cl	1.794623	0.0	0.0
H	0.52307	0.048585	-2.098243
N	-0.454457	1.190353	0.679715
H	-0.173511	1.10528	1.653213
H	-1.482204	1.038099	0.628007
N	-0.447722	-1.264804	0.531311
H	-1.477399	-1.135587	0.477932
H	-0.182282	-1.299787	1.512303
C	-1.165928	1.345229	-1.938616
H	-1.275212	1.357524	-3.027896
H	-2.14256	1.309528	-1.459613
H	-0.61264	2.228287	-1.618995
C	-1.14811	-1.101724	-1.986014
N	-1.667886	-2.00691	-2.524126
F	-2.744618	0.0	0.0
