17

C	0.0	0.0	0.0
C	-0.476976	0.2325	-1.4559
Cl	1.801368	0.0	0.0
H	-1.570918	0.300881	-1.297868
N	-0.476621	1.121481	0.761846
H	-1.502275	1.008784	0.661679
H	-0.24759	0.922213	1.731836
N	-0.476267	-1.237737	0.564431
H	-1.502971	-1.108501	0.48284
H	-0.182378	-2.025607	-0.002001
C	-0.164665	-0.91084	-2.418243
H	-0.509334	-0.657146	-3.423884
H	-0.693846	-1.813271	-2.105716
H	0.908568	-1.115631	-2.461705
C	0.024038	1.491567	-1.996649
N	0.394702	2.476036	-2.51958
F	-2.829454	0.0	0.0
