17

C	0.0	0.0	0.0
C	-0.19347	0.184	-1.571719
Cl	1.821901	0.0	0.0
H	0.394586	1.080141	-1.810394
N	-0.524001	1.069114	0.785862
H	-0.273309	1.963987	0.375492
H	-1.5493	0.913075	0.681052
N	-0.536393	-1.262792	0.384515
H	-0.364162	-1.375275	1.381963
H	-1.561593	-1.077582	0.277904
C	-1.586646	0.384915	-2.182045
H	-1.441369	0.660852	-3.235048
H	-2.187955	-0.516802	-2.110312
H	-2.142131	1.151528	-1.653765
C	0.440267	-0.920611	-2.300118
N	0.883471	-1.762186	-2.990648
F	-2.896056	0.0	0.0
