17
Coordinates from ORCA-job run
  C   0.62674430651290      0.46477409966097     -0.37213539606453
  C   -0.90093497774128      0.34420209035034     -0.22916275250799
  Cl  1.01910262270430      2.03855817413574     -1.09664191666587
  H   -1.32478591123221      0.59482160742075     -1.20625544004937
  C   1.40771461266887      0.28278711305772      0.90539037925979
  H   2.47483204376764      0.36958287544364      0.70682747347058
  H   1.11371512111038      1.06019303432015      1.61175081922483
  H   1.21943706735995     -0.69821192373265      1.34074154096489
  N   1.01894781552271     -0.59866559503156     -1.40181027216786
  O   0.42578652385943     -0.56066409962759     -2.47305291769132
  O   1.86152364018685     -1.42562406191103     -1.06939355490095
  C   -1.36848933943932      1.33078418782603      0.74351276564680
  N   -1.75408053181429      2.08950607312333      1.55258418549508
  C   -1.35812251017233     -1.06259366483677      0.17495757355712
  H   -0.97091567877304     -1.34594552861870      1.15409043441370
  H   -1.04267264463665     -1.79976932965291     -0.56492842920287
  H   -2.44780215988390     -1.08373505192748      0.22452550721798
