17
Coordinates from ORCA-job run
  C   0.61180896467267     -0.07748504653485     -0.38491583982851
  C   -0.73062042469296     -0.31843002385809      0.32819628507603
  Cl  0.39572639772046     -0.05810402934663     -2.13269158672691
  H   -0.49122385909337     -0.39469970238836      1.39374352213574
  C   1.32247763186218      1.18293506345408      0.07162770122602
  H   0.77382686579482      2.06340266143456     -0.26028816199874
  H   1.41171521642364      1.18816959840764      1.15876513117283
  H   2.32026470141854      1.21842379566632     -0.36956587728618
  N   1.51996350449986     -1.25987868323772      0.00432999114623
  O   2.01198083873503     -1.96331543671127     -0.86207819926157
  O   1.68148342929511     -1.37114625385476      1.21705257745597
  C   -1.28885112124739     -1.60897996183072     -0.08323884581605
  N   -1.76206375648849     -2.63402089534105     -0.40618780398618
  C   -1.74941756802676      0.80299270614735      0.11442258533093
  H   -1.37456498519713      1.74599200465915      0.51369590404978
  H   -2.67237131443956      0.55678322893155      0.64160312567201
  H   -1.98013452123666      0.92636097440280     -0.94347050836139
