17
Coordinates from ORCA-job run
  C   0.67610136841060      0.40139607460049     -0.35968539467276
  C   -0.85770147358760      0.43575216699766     -0.23839169243690
  Cl  1.23704900301800      1.93214276923717     -1.06494387139422
  H   -1.24053671991674      0.73562252949622     -1.21852869525322
  C   1.41610610563845      0.13071885369536      0.92643213383154
  H   1.19271975783948      0.92853197971275      1.63588780781538
  H   1.12256932964803     -0.82928506793624      1.35008904094125
  H   2.48923123506102      0.10987588479881      0.74313821496329
  N   0.97232940355646     -0.68892111965131     -1.39354154104985
  O   0.40133215929957     -0.58290309521512     -2.47216755917788
  O   1.72046123799777     -1.60069416379443     -1.05695311239517
  C   -1.23636283739655      1.45842161294374      0.73614477987637
  N   -1.55486618658735      2.24778945461214      1.54501165351623
  C   -1.46132467459818     -0.91966515160235      0.14808325757026
  H   -2.54830674840144     -0.83083529309278      0.17923520655967
  H   -1.12163433619724     -1.24564635331461      1.13157589850408
  H   -1.20916662378428     -1.68130108148752     -0.59138612719807
