17
Coordinates from ORCA-job run
  C   0.63782095888816     -0.08926657466482     -0.33680388406295
  C   -0.74726405575758     -0.31593647195012      0.29438401803820
  Cl  0.54402464542519     -0.17167535394377     -2.09387396764572
  H   -0.58158034637908     -0.33358224782951      1.37643141323814
  C   1.29469577095226      1.20882711402652      0.09403581749535
  H   1.30671579874794      1.27779955836271      1.18257923066835
  H   2.32031593770826      1.23860273459568     -0.27826874335724
  H   0.75701044497751      2.05778841167229     -0.32613576747421
  N   1.53582290514714     -1.22900966312087      0.18061515479427
  O   2.10189892005376     -1.96735385138453     -0.60821917431289
  O   1.61404040495197     -1.26934290127749      1.40611536100691
  C   -1.25969066652861     -1.63414524703666     -0.08756656948419
  N   -1.69809179761032     -2.67996735009898     -0.39234474408413
  C   -1.76260315255098      0.77719244333235     -0.04634954004746
  H   -1.43208342065466      1.74305732465744      0.33743668354254
  H   -2.71945963666348      0.53817502945610      0.42031071408080
  H   -1.91357271070747      0.84983704520365     -1.12334600239577
