17
Coordinates from ORCA-job run
  C   0.66610999487922      0.22862810010986     -0.30982796662838
  C   -0.79963242847106      0.29936097352905      0.17347542465087
  Cl  0.82560947225268      1.05305227156612     -1.87801151620403
  H   -0.93396999946234      1.35355533832589      0.44616514607143
  C   1.61801512740826      0.85740975792142      0.68444406104887
  H   1.58573832426547      0.31687165457433      1.63210450670066
  H   1.32282111469765      1.89524660441559      0.84702863310043
  H   2.63613218801633      0.83261404850677      0.30306139030208
  N   1.08222716988118     -1.22473579877367     -0.55444062980936
  O   0.23769929756998     -1.96994230198449     -1.03706753173035
  O   2.23643044556629     -1.52821290641786     -0.27807217691130
  C   -0.90214929119745     -0.47685005178495      1.41284136071953
  N   -0.98526637470899     -1.10837624372436      2.39959157526894
  C   -1.93307687164721     -0.07455916742768     -0.78964292751414
  H   -2.87929257322138      0.22220839145094     -0.33242811477268
  H   -1.95422558161922     -1.14158908657437     -0.98857851551308
  H   -1.82317001420942      0.46331841628743     -1.73064271877948
