17
Coordinates from ORCA-job run
  C   0.61996893856639     -0.15684521480685     -0.34543502434645
  C   -0.74657872475452     -0.24036702668499      0.35726164362118
  Cl  0.45268843166752     -0.45414687691535     -2.07323565713160
  H   -0.53837608113899     -0.12469013489934      1.42590270007293
  C   1.34602319852381      1.15328401826009     -0.10462726393502
  H   2.35527012798259      1.09136595682041     -0.51581239531581
  H   0.82534277393202      1.96783233486582     -0.60638578201141
  H   1.40731485810329      1.35446651436049      0.96568098903214
  N   1.49033655937511     -1.26357457617228      0.28126280481575
  O   1.61625755991296     -1.15301016568175      1.49827447792417
  O   1.98984855757071     -2.12252272060120     -0.42595477040238
  C   -1.32177084155069     -1.57502765941561      0.17171191485735
  N   -1.80613955375748     -2.63499299654089      0.02668799634611
  C   -1.73354615312442      0.84046180587102     -0.08868472971656
  H   -1.35007842183817      1.83377991363275      0.14725288541596
  H   -2.67715024051850      0.70823104011853      0.44292722116532
  H   -1.92941098895163      0.77475578778915     -1.15882701039168
