17
Coordinates from ORCA-job run
  C   0.61777519913467     -0.07060496900539     -0.37593718861744
  C   -0.74609534311745     -0.31852326098811      0.29221182628290
  Cl  0.44212124547106      0.06045056720138     -2.12357670587235
  H   -0.53340440418461     -0.46673350669842      1.35594251588255
  C   1.34991025456260      1.14049041957465      0.17147078171829
  H   0.83316371726360      2.05394278516083     -0.12001173891474
  H   1.41243812023872      1.07900975609365      1.25875931665130
  H   2.35881291863131      1.17381524446155     -0.24389193335602
  N   1.48737175324618     -1.29766300052373     -0.04052283985248
  O   1.98225374158270     -1.95947064814498     -0.93774373399427
  O   1.61865907860346     -1.48560328510842      1.16638720340987
  C   -1.32828298688262     -1.56556275387605     -0.21008470072241
  N   -1.81887924365905     -2.55591477966037     -0.60677097284505
  C   -1.73032108253964      0.84147558299589      0.12726931775881
  H   -1.33975356572610      1.74725409641485      0.59169449000343
  H   -1.93413084279347      1.03586570705391     -0.92533153295595
  H   -2.67063855983136      0.58877204504877      0.61913589542356
