17
Coordinates from ORCA-job run
  C   0.63682244864321      0.34579600687147     -0.34203669509792
  C   -0.79702607585725      0.38703109392980      0.23370986678278
  Cl  0.70837963605228      1.43712495211654     -1.73215456605043
  H   -1.03735976692838      1.45196652277305      0.32924018721757
  C   1.71734247777624      0.71377390739644      0.65263268428652
  H   1.71267961821579      0.01923485191484      1.49120153105011
  H   2.69341166614097      0.68910760906759      0.16521488645966
  H   1.53733941095276      1.72632862811579      1.01816281731900
  N   0.87329311167093     -1.09138111213039     -0.81632053736237
  O   0.99232879645938     -1.89743045475328      0.10275504498489
  O   0.86994961397636     -1.34779653833182     -2.01082049324721
  C   -0.84958682199227     -0.18398254830724      1.58139883796765
  N   -0.93806077271854     -0.61618987983549      2.66982096067739
  C   -1.83423030489475     -0.28453373127847     -0.67217633157169
  H   -1.68322396042691     -1.36494690973531     -0.69796186842918
  H   -1.76838898204671      0.10893630390890     -1.68671422376498
  H   -2.83567009502310     -0.09203870172244     -0.28495210122177
