17
Coordinates from ORCA-job run
  C   0.64176574192691      0.34869246887135     -0.33021759258274
  C   -0.80883266039921      0.37930142700094      0.20239016997639
  Cl  0.73824747399077      1.41307421313075     -1.73960261977243
  H   -1.06741347819019      1.44213527176374      0.26960871829759
  C   1.68670777895177      0.75311187986220      0.68808256222463
  H   1.66724960525465      0.07539609906265      1.54011531635671
  H   1.48074391519082      1.76984871817853      1.02733103321799
  H   2.67714339448496      0.73367577800040      0.23033120597447
  N   0.91356419653947     -1.09389025121314     -0.76802931558389
  O   0.94964843594025     -1.37394849087335     -1.95665183630187
  O   1.01749760586754     -1.87947006962468      0.17037320471398
  C   -0.89311308884161     -0.16615168365984      1.55906045256323
  N   -1.00965302802215     -0.58143422020739      2.65142133159583
  C   -1.80898924324262     -0.32568150285896     -0.71967571015522
  H   -1.64083022833180     -1.40384840136951     -0.72012316338805
  H   -1.71972973405849      0.04969867251584     -1.73927007181817
  H   -2.82400668706109     -0.14150990857951     -0.36514368531842
