17
Coordinates from ORCA-job run
  C   0.64086093534335     -0.08476272304484     -0.33214650586224
  C   -0.75836422480492     -0.31302932063009      0.26621208348395
  Cl  0.57303248554218     -0.07167242433759     -2.09196474914493
  H   -0.60995794851280     -0.38923866366698      1.34823935190750
  C   1.31977588270664      1.17283675476369      0.17763702545637
  H   0.81027425041147      2.05539539878660     -0.20687219667814
  H   1.31297618945049      1.18477436581245      1.26837842406008
  H   2.35284646012717      1.19696721340580     -0.17413463785449
  N   1.50512685510472     -1.27110075241967      0.13683939018761
  O   1.56442151562682     -1.37670515891523      1.35941664275692
  O   2.06359994849081     -1.98219116671214     -0.68191181490773
  C   -1.29138602831569     -1.59945908858208     -0.18902643779538
  N   -1.74491208461690     -2.62062690349760     -0.55025686444832
  C   -1.74516252150720      0.81747754646136     -0.03350008598881
  H   -1.88181078468677      0.94365303315630     -1.10740353796714
  H   -2.71252989762076      0.57895561376217      0.41113419870773
  H   -1.39779103273860      1.75672627565780      0.39835971408703
