17
Coordinates from ORCA-job run
  C   0.63830635364925     -0.05878589146644     -0.34242808943492
  C   -0.75797132862346     -0.33018186670317      0.24504476930362
  Cl  0.55851873699015      0.10059921703880     -2.09450735649073
  H   -0.60244976966710     -0.49551117179278      1.31608801700714
  C   1.32670121177064      1.14914019240536      0.26515034648030
  H   1.32885121026057      1.06942830875526      1.35304689141699
  H   2.35688265926881      1.19896442584249     -0.09225575549799
  H   0.81805341763242      2.06296057590811     -0.03918211269858
  N   1.49960475247178     -1.28388357972108      0.02036512916399
  O   1.56671238854823     -1.49074478464621      1.22955263878828
  O   2.04804322607845     -1.92748347132297     -0.85863923875213
  C   -1.29921292438081     -1.57326799630267     -0.30999365279919
  N   -1.75765876124312     -2.56094288170686     -0.74966625293341
  C   -1.74215968562657      0.82445863001741      0.04597513298603
  H   -2.70733349163109      0.55371943703548      0.47679461702353
  H   -1.88593040533695      1.03848850419145     -1.01299649421453
  H   -1.38795759016122      1.72404235246789      0.55065141065158
