18

C	0.0	0.0	0.0
C	-0.486923	0.158197	-1.440437
F	1.388837	0.0	0.0
H	-1.579145	0.204917	-1.374051
C	-0.323459	1.219673	0.805112
N	-0.508062	2.185651	1.44772
N	-0.487887	-1.206502	0.58232
H	-1.506534	-1.19737	0.460555
H	-0.305121	-1.19968	1.580023
C	-0.076607	-1.058698	-2.266614
H	-0.44276	-0.94289	-3.290521
H	1.01253	-1.156729	-2.298362
H	-0.491967	-1.976432	-1.85254
C	0.037929	1.449475	-2.060482
H	-0.323276	1.534792	-3.088871
H	1.131419	1.461604	-2.079563
H	-0.310695	2.328405	-1.513346
Br	-3.774977	0.0	0.0
