18

C	0.0	0.0	0.0
C	-0.47412	0.140647	-1.446836
F	1.404692	0.0	0.0
H	-1.56669	0.193638	-1.391371
C	-0.317603	1.227203	0.789487
N	-0.473287	2.201582	1.426904
N	-0.490038	-1.197518	0.593522
H	-1.50784	-1.184183	0.465573
H	-0.315942	-1.176186	1.592102
C	-0.066149	-1.090563	-2.252283
H	-0.426781	-0.987575	-3.280237
H	-0.490203	-1.999622	-1.826496
H	1.022753	-1.19636	-2.27589
C	0.06124	1.420486	-2.081129
H	1.154774	1.423874	-2.100064
H	-0.299547	1.496452	-3.110616
H	-0.280383	2.308661	-1.544222
Br	-3.751976	0.0	0.0
