18

C	0.0	0.0	0.0
C	-0.541557	0.26457	-1.398567
F	1.424105	0.0	0.0
H	-1.621992	0.392138	-1.242252
C	-0.319316	1.123794	0.915295
N	-0.473508	2.017991	1.659487
N	-0.489714	-1.192288	0.555199
H	-0.148391	-1.355302	1.49066
H	-0.344656	-1.990887	-0.041465
C	-0.319478	-0.936971	-2.314993
H	0.725456	-1.26419	-2.300754
H	-0.574038	-0.664	-3.342234
H	-0.972016	-1.769089	-2.041372
C	0.067564	1.533134	-1.986641
H	-0.092666	2.393554	-1.332697
H	-0.406248	1.755321	-2.946191
H	1.142821	1.417256	-2.148261
Br	-4.063117	0.0	0.0
