18

C	0.0	0.0	0.0
C	-0.403558	0.075257	-1.506114
F	1.388216	0.0	0.0
H	0.565883	0.239652	-1.992278
C	-0.310684	1.274701	0.717342
N	-0.481954	2.276386	1.306395
N	-0.509716	-1.147011	0.673801
H	-1.521406	-1.161179	0.525033
H	-0.357796	-1.04829	1.672258
C	-1.29519	1.26295	-1.863228
H	-1.511865	1.250012	-2.937073
H	-2.247442	1.209857	-1.332534
H	-0.806735	2.215172	-1.634265
C	-0.978496	-1.238625	-2.033372
H	-0.353573	-2.090596	-1.757646
H	-1.029711	-1.183909	-3.12482
H	-1.992364	-1.395845	-1.657759
Br	-4.050588	0.0	0.0
