13

C	-0.422188	0.02092	-1.462287
C	0.0	0.0	0.0
Br	-2.374798	0.025791	-1.663988
H	1.095239	0.0	0.0
H	-0.089623	-0.927444	-1.891376
C	0.139103	1.102187	-2.261582
N	0.528669	1.911379	-3.01871
C	-0.482739	-1.198701	0.666704
N	-0.853565	-2.200077	1.156605
N	-0.434302	1.217754	0.756364
O	-0.60891	1.091603	1.963559
O	-0.52089	2.260148	0.116836
Br	3.247063	0.0	0.0
