13

C	-0.438443	0.053288	-1.464122
C	0.0	0.0	0.0
Br	0.089609	-1.593443	-2.356078
H	1.094866	0.0	0.0
H	0.11292	0.856528	-1.952612
C	-1.874976	0.248345	-1.619726
N	-3.035241	0.400528	-1.731563
C	-0.55817	-1.11838	0.737282
N	-1.001161	-2.043454	1.310323
N	-0.374374	1.294356	0.674126
O	-0.444233	2.285613	-0.049723
O	-0.512792	1.278607	1.890244
Br	3.271095	0.0	0.0
