13

C	-0.546715	-0.032692	-1.429538
C	0.0	0.0	0.0
Br	0.15113	1.474096	-2.446325
H	1.091622	0.0	0.0
H	-1.629879	0.095437	-1.408916
C	-0.213398	-1.28097	-2.100548
N	-0.017555	-2.294615	-2.661761
C	-0.528154	-1.129328	0.75646
N	-0.980158	-2.040498	1.345329
N	-0.509942	1.256242	0.673898
O	0.266143	1.854433	1.40359
O	-1.683179	1.55741	0.454822
Br	3.33319	0.0	0.0
