16

C	0.0	0.0	0.0
C	-0.523725	0.02138	-1.435749
Cl	1.805783	0.0	0.0
H	-0.091582	-0.79226	-2.016758
H	-1.619928	-0.026587	-1.306256
N	-0.531761	1.148575	0.677453
H	-1.557976	0.992236	0.554218
H	-0.32382	1.053083	1.666304
C	-0.437729	-1.329041	0.615201
H	-1.532978	-1.292265	0.592768
H	-0.046699	-2.18734	0.060647
H	-0.070271	-1.384473	1.645047
N	-0.186234	1.27306	-2.155139
O	0.872996	1.29939	-2.78891
O	-0.981743	2.208961	-2.096046
F	-2.901247	0.0	0.0
