16

C	0.0	0.0	0.0
C	-0.500441	0.048263	-1.449495
Cl	1.805205	0.0	0.0
H	-1.598623	0.126976	-1.311335
H	-0.20103	-0.833849	-2.012321
N	-0.519523	1.033409	0.848173
H	-0.350989	1.92669	0.396973
H	-1.542379	0.846643	0.767881
C	-0.444934	-1.343705	0.563444
H	-1.53819	-1.327248	0.51193
H	-0.021755	-2.173646	-0.008006
H	-0.106863	-1.407146	1.599095
N	0.011328	1.19859	-2.224133
O	0.601432	0.963968	-3.282142
O	-0.179038	2.335358	-1.78464
F	-2.885335	0.0	0.0
