16

C	0.0	0.0	0.0
C	-0.274745	0.070945	-1.523676
Cl	1.81349	0.0	0.0
H	-0.150488	1.108088	-1.831132
H	0.437091	-0.573453	-2.040612
N	-0.553102	1.161229	0.620832
H	-0.404389	1.069998	1.622532
H	-1.583588	0.951215	0.454646
C	-0.421765	-1.322133	0.623671
H	-0.023172	-2.182215	0.081884
H	-1.515708	-1.296506	0.593838
H	-0.058891	-1.351524	1.65681
N	-1.590637	-0.384992	-2.079268
O	-1.795377	-1.595465	-2.073137
O	-2.266925	0.444932	-2.676614
F	-2.79219	0.0	0.0
