15

C	0.0	0.0	0.0
C	-0.608425	0.068332	-1.384499
F	1.345318	0.0	0.0
H	-1.705774	-0.060071	-1.264517
H	-0.397414	0.801266	0.617937
N	-0.389892	-1.296972	0.66022
O	-0.323148	-2.30686	-0.037676
O	-0.633932	-1.248526	1.860145
N	-0.060756	-0.913183	-2.365363
O	-0.864767	-1.653944	-2.918348
O	1.150889	-0.871543	-2.566203
N	-0.369674	1.422627	-1.982253
O	-0.151686	2.352661	-1.211418
O	-0.473258	1.50587	-3.200481
Cl	-3.402235	0.0	0.0
