17

C	0.0	0.0	0.0
C	-0.433179	-0.112942	-1.481077
Cl	1.741923	0.0	0.0
H	-1.436408	-0.538427	-1.51382
N	-0.73851	1.042884	0.786401
O	-0.615478	2.206433	0.319857
O	-0.767194	0.798632	2.024532
N	-0.349193	-1.358453	0.722497
O	-1.38691	-1.912297	0.379008
O	0.409336	-1.745342	1.597593
N	0.410659	-1.239151	-2.185497
O	0.563245	-2.311882	-1.614597
O	0.756577	-1.012758	-3.345845
N	-0.359865	1.10256	-2.186255
H	-0.35986	0.912143	-3.178993
H	0.462437	1.632837	-1.932358
H	-2.224642	0.0	0.0
