15

C	0.0	0.0	0.0
C	-0.352019	-0.243947	-1.472593
Br	2.040675	0.0	0.0
H	0.009035	-1.251864	-1.711082
H	0.233535	0.45123	-2.078367
C	-0.304192	1.374693	0.402118
N	-0.537028	2.489241	0.694074
N	-0.55009	-0.946653	0.886826
H	-1.152937	-0.541822	1.589014
H	-1.04473	-1.67851	0.397376
C	-1.83854	-0.098101	-1.767769
H	-2.002148	-0.250443	-2.838148
H	-2.213859	0.890592	-1.504618
H	-2.476184	-0.794132	-1.225958
Br	-4.866455	0.0	0.0
