15

C	0.0	0.0	0.0
C	-0.467356	-0.251234	-1.436078
Br	1.970491	0.0	0.0
H	0.035555	0.471951	-2.084505
H	-1.540133	-0.033362	-1.440497
C	-0.309267	1.392655	0.388397
N	-0.519795	2.506997	0.70018
N	-0.523735	-0.992513	0.886621
H	-0.341773	-0.726499	1.848708
H	-1.543908	-0.975158	0.748107
C	-0.226631	-1.679428	-1.907672
H	0.810388	-1.985631	-1.76183
H	-0.868161	-2.374842	-1.367244
H	-0.460992	-1.756657	-2.972496
Br	-3.746598	0.0	0.0
