15

C	0.0	0.0	0.0
C	-0.460841	-0.306641	-1.433754
Br	1.97577	0.0	0.0
H	0.075787	0.351629	-2.122576
H	-1.524554	-0.04463	-1.448695
C	-0.331799	1.399475	0.322556
N	-0.543777	2.525166	0.581134
N	-0.498574	-0.845249	1.044461
H	-0.32908	-1.811623	0.787547
H	-1.517603	-0.699933	1.056669
C	-0.298617	-1.767737	-1.826361
H	-0.515328	-1.888434	-2.889823
H	0.71629	-2.133474	-1.645059
H	-1.012242	-2.389718	-1.283885
Br	-3.72501	0.0	0.0
