15

C	0.0	0.0	0.0
C	-0.369648	-0.313844	-1.471314
Br	1.965794	0.0	0.0
H	0.429548	0.076179	-2.102508
H	-0.331077	-1.406245	-1.543103
C	-0.317813	1.401443	0.336731
N	-0.560011	2.511536	0.640963
N	-0.571893	-0.95881	0.893176
H	-0.475868	-0.654754	1.856412
H	-1.572174	-1.013625	0.686274
C	-1.69605	0.24153	-1.967688
H	-1.822108	-0.050222	-3.015673
H	-1.699209	1.333835	-1.924898
H	-2.567217	-0.09969	-1.409227
Br	-4.616799	0.0	0.0
