15

C	0.0	0.0	0.0
C	-0.494346	0.182191	-1.430035
Br	2.047582	0.0	0.0
H	0.024878	1.036936	-1.870804
H	-1.561979	0.417422	-1.313118
C	-0.284276	1.191982	0.8051
N	-0.471643	2.148582	1.461696
N	-0.526543	-1.12506	0.60628
H	-0.444988	-1.186561	1.606705
H	-0.400985	-1.995501	0.119129
C	-0.343836	-1.063264	-2.291085
H	-1.036693	-1.841489	-1.960794
H	0.679295	-1.448773	-2.282479
H	-0.609788	-0.828893	-3.325017
Br	-3.945707	0.0	0.0
