15
Coordinates from ORCA-job run
  C   0.60574782522361      0.12819316950474     -0.67481798527629
  C   -0.41506611704368     -0.54320978827708      0.24532530338271
  F   0.72752523381089     -0.59150031266993     -1.82879444356834
  H   0.00203617948127     -1.53681737566335      0.45805788584715
  N   1.96186185792496      0.08297130709728      0.02057680134320
  O   2.41778513342999     -1.04415621484110      0.16337217581807
  O   2.45765136672222      1.13939817565619      0.38375542249075
  C   0.25343254609200      1.51336523408644     -0.98180466347986
  N   -0.07693149502063      2.61132576037311     -1.23472483446835
  N   -1.68239392079183     -0.55048547924599     -0.46599159087968
  H   -1.61799470954851     -1.10788386781471     -1.31045966385657
  H   -2.39581150738520     -0.95850126728257      0.12614422960356
  N   -0.44320700015442      0.21048736196986      1.46793814290956
  H   -1.06883507763889      1.00297676804010      1.37726743231098
  H   -0.72580031510177     -0.35516347093297      2.25515578782312
