15
Coordinates from ORCA-job run
  C   0.60649173346854      0.12787318313252     -0.67409195201400
  C   -0.41986130303578     -0.54089429682933      0.24177874700394
  F   0.71998548163712     -0.58222874411736     -1.83467928373174
  H   -0.01065677310257     -1.53852893825621      0.45098143124203
  N   1.96286801622527      0.06247222321790      0.01883162430982
  O   2.40693848582693     -1.07076785372500      0.15101494948252
  O   2.47065028780658      1.11025091873347      0.39043711208383
  C   0.26770010642010      1.51922741491127     -0.96775845810658
  N   -0.05296356520969      2.62297486387966     -1.20766768640422
  N   -1.68672127477402     -0.53514673995870     -0.47052580823637
  H   -2.40317300715812     -0.94186655975941      0.11897489105651
  H   -1.62579588627610     -1.08777561885807     -1.31838543733517
  N   -0.44412452735925      0.20828180056615      1.46744121282189
  H   -0.72645848010127     -0.35890763215010      2.25376721188936
  H   -1.06587929436774      1.00403597921323      1.37988144593819
