15
Coordinates from ORCA-job run
  C   0.62489807306919      0.03448438850677     -0.63072384541570
  C   -0.62548645634910      0.08666009968125      0.26097082048818
  F   0.71367124003337     -1.15873677712361     -1.25478447393733
  H   -0.74975018757766      1.12949956318479      0.57287110743030
  N   1.85653866944934      0.18677669528166      0.26169192282266
  O   2.73538918137704     -0.65104445165603      0.17195820183198
  O   1.81970178744099      1.16385579602018      1.00245313848330
  C   0.65415033338493      1.12458187413394     -1.60865133598927
  N   0.67815380532889      2.00930478616747     -2.38045538958628
  N   -0.40576095354570     -0.83202950877652      1.37140342366803
  H   -1.29222679049916     -1.20726114571081      1.67994355942559
  H   0.03148768406686     -0.36223150381144      2.15519135218867
  N   -1.72235133975711     -0.26242481880880     -0.59905279057301
  H   -2.61070718511088     -0.00919953063908     -0.19048306134836
  H   -1.70870786131102     -1.25223546644976     -0.81133262948878
