17

C	-0.433644	-0.003557	-1.463189
C	0.0	0.0	0.0
Cl	-2.095146	-0.59547	-1.677769
H	1.087853	0.0	0.0
N	-0.34485	1.444118	-1.986984
O	0.715001	1.987435	-1.701105
O	-1.228913	1.893718	-2.693324
N	0.465826	-0.73037	-2.307768
H	0.316054	-1.714351	-2.11574
H	1.405512	-0.517527	-1.950531
N	-0.352438	-1.250699	0.662607
O	0.019965	-2.273935	0.072101
O	-0.922583	-1.238266	1.755608
N	-0.482163	1.132478	0.791617
O	0.107403	1.325208	1.854859
O	-1.390234	1.836507	0.339796
H	2.410798	0.0	0.0
