17

C	-0.266804	-0.018397	-1.490073
C	0.0	0.0	0.0
Cl	0.110987	-1.714494	-2.08435
H	1.089903	0.0	0.0
N	-1.721588	0.248764	-1.908682
O	-2.474784	0.680011	-1.045416
O	-1.981916	0.110431	-3.098021
N	0.518708	0.95348	-2.108694
H	1.448387	0.943333	-1.671788
H	0.57449	0.786073	-3.105398
N	-0.546854	-1.139659	0.752648
O	0.074165	-1.437897	1.771995
O	-1.561889	-1.701271	0.33991
N	-0.390423	1.236336	0.701701
O	-1.13299	1.145813	1.681615
O	0.133419	2.271448	0.293311
H	2.483436	0.0	0.0
