17

C	-0.290532	0.044004	-1.494304
C	0.0	0.0	0.0
Cl	-0.442424	-1.677804	-2.188606
H	1.08992	0.0	0.0
N	-1.686162	0.590455	-1.850779
O	-2.604829	0.255323	-1.12159
O	-1.762974	1.26926	-2.866248
N	0.698179	0.80766	-2.056651
H	0.676091	0.870984	-3.06106
H	1.616367	0.608822	-1.630774
N	-0.505957	-1.15189	0.768572
O	0.165584	-2.179172	0.688287
O	-1.528377	-1.012292	1.439083
N	-0.373413	1.244148	0.694536
O	-0.05924	1.28032	1.884204
O	-0.847939	2.181175	0.050107
H	2.504792	0.0	0.0
