17

C	-0.436528	-0.009384	-1.450366
C	0.0	0.0	0.0
Cl	0.139764	-1.523364	-2.204914
H	1.089567	0.0	0.0
N	-2.013742	-0.024596	-1.552469
O	-2.55021	-0.625877	-2.473109
O	-2.572333	0.728755	-0.763531
N	0.057176	1.079115	-2.176676
H	-0.353999	1.153894	-3.095186
H	0.052079	1.929801	-1.63034
N	-0.458602	-1.194215	0.724563
O	-1.448164	-1.806556	0.305374
O	0.217962	-1.519037	1.700334
N	-0.351002	1.173943	0.763936
O	-0.001432	2.263967	0.272105
O	-0.840883	1.050409	1.892676
H	2.342631	0.0	0.0
