17

C	-0.457104	-0.030485	-1.446513
C	0.0	0.0	0.0
Cl	-2.122059	-0.668936	-1.672045
H	1.0889	0.0	0.0
N	-0.483041	1.461909	-1.958173
O	0.509475	2.101316	-1.632062
O	-1.360211	1.831719	-2.721852
N	0.474341	-0.764381	-2.176654
H	1.420983	-0.620663	-1.810263
H	0.382531	-0.663339	-3.175178
N	-0.371468	-1.222626	0.732754
O	-0.959802	-1.111214	1.811845
O	0.000386	-2.276979	0.225768
N	-0.491549	1.156419	0.767237
O	0.184554	1.468821	1.743398
O	-1.51975	1.727578	0.393414
H	2.480934	0.0	0.0
