17

C	-0.38227	-0.134026	-1.457569
C	0.0	0.0	0.0
Cl	-2.083572	-0.645989	-1.728448
H	1.089643	0.0	0.0
N	-0.231195	1.275122	-2.129759
O	-0.852862	1.487184	-3.163446
O	0.648593	1.982442	-1.655691
N	0.516089	-1.027709	-2.049039
H	0.476405	-1.003408	-3.059154
H	1.459487	-0.878746	-1.66493
N	-0.394006	-1.204281	0.763309
O	-1.293917	-1.103004	1.600585
O	0.234594	-2.228132	0.505022
N	-0.544453	1.171506	0.686985
O	-1.439901	1.82993	0.151637
O	-0.028017	1.417077	1.777795
H	2.479612	0.0	0.0
