17

C	-0.584318	0.037136	-1.404965
C	0.0	0.0	0.0
Cl	0.131988	1.495678	-2.265728
H	1.086969	0.0	0.0
N	-0.050271	-1.114944	-2.289434
O	-0.884434	-1.687896	-2.985136
O	1.15019	-1.313156	-2.282664
N	-1.979737	-0.027051	-1.408571
H	-2.34062	0.766385	-0.89518
H	-2.351953	-0.079542	-2.347059
N	-0.41538	-1.221392	0.685079
O	-0.265004	-2.257921	0.022986
O	-0.826857	-1.182023	1.847806
N	-0.366388	1.159194	0.79955
O	0.277972	1.2879	1.846225
O	-1.201357	1.983601	0.381084
H	2.338464	0.0	0.0
