13

C	-0.432233	-0.166295	-1.439173
C	0.0	0.0	0.0
Br	0.025035	1.541344	-2.449747
H	1.098049	0.0	0.0
H	0.196647	-0.90458	-1.936646
H	-0.436275	0.914774	0.419966
N	-1.811149	-0.494496	-1.606968
H	-2.056395	-0.572518	-2.58537
H	-2.382965	0.229694	-1.192454
N	-0.382277	-1.183965	0.791127
H	0.436139	-1.779635	0.809521
H	-1.139844	-1.684872	0.34429
F	2.692953	0.0	0.0
