13

C	-0.522332	0.099623	-1.4117
C	0.0	0.0	0.0
Br	-0.202134	1.86575	-2.210159
H	1.093104	0.0	0.0
H	0.082862	-0.563088	-2.041269
H	-0.296595	-1.018178	0.32954
N	-1.958384	-0.145701	-1.495323
H	-2.242785	-0.19142	-2.468089
H	-2.12539	-1.057138	-1.078821
N	-0.499684	1.048648	0.878816
H	0.232612	1.247452	1.548655
H	-1.33438	0.768038	1.374428
F	2.710641	0.0	0.0
