13

C	-0.571085	-0.028807	-1.394992
C	0.0	0.0	0.0
Br	0.141468	1.620259	-2.417939
H	1.09591	0.0	0.0
H	-0.139687	-0.830264	-1.992396
H	-0.362637	-0.928125	0.464896
N	-1.983728	-0.048194	-1.394081
H	-2.37218	0.141788	-2.30769
H	-2.285393	0.656975	-0.728198
N	-0.599093	1.142029	0.733032
H	0.025957	1.925216	0.56445
H	-0.508915	0.940012	1.722468
F	2.721168	0.0	0.0
