13

C	-0.08158	-0.045254	-1.515445
C	0.0	0.0	0.0
Br	-1.939707	-0.69507	-2.174191
H	1.098021	0.0	0.0
H	-0.123839	0.969293	-1.930312
H	-0.365598	-0.938402	0.421865
N	0.950779	-0.877777	-2.00695
H	1.169844	-0.67265	-2.972152
H	1.783649	-0.718138	-1.396372
N	-0.604208	1.1469	0.652214
H	-1.526306	1.316384	0.264539
H	-0.029991	1.959351	0.464962
F	2.744502	0.0	0.0
