13

C	-0.467163	0.033348	-1.436107
C	0.0	0.0	0.0
Br	0.060499	1.713395	-2.337151
H	1.092311	0.0	0.0
H	0.082737	-0.721748	-2.007104
H	-0.336648	-0.980904	0.383938
N	-1.915631	-0.052769	-1.545271
H	-2.208845	-0.868617	-1.017723
H	-2.190435	-0.17644	-2.511997
N	-0.521374	1.071502	0.842674
H	0.175434	1.805795	0.838081
H	-1.373028	1.446045	0.439722
F	2.703328	0.0	0.0
