14

C	-0.457605	-0.056268	-1.437462
C	0.0	0.0	0.0
Cl	-2.345207	-0.455109	-1.399411
H	1.092443	0.0	0.0
H	-0.352381	-0.877502	0.543001
H	-0.37992	0.894287	0.500465
N	-0.241881	1.165007	-2.099042
H	-0.594623	1.159855	-3.046105
H	-0.617572	1.951185	-1.58762
C	0.17573	-1.201237	-2.197072
H	-0.068322	-2.153724	-1.726779
H	-0.172415	-1.225309	-3.233312
H	1.258308	-1.051972	-2.166222
Cl	3.609422	0.0	0.0
