15

C	-0.554664	0.023429	-1.422443
C	0.0	0.0	0.0
Cl	0.201534	1.258563	-2.417366
H	1.095077	0.0	0.0
H	-1.63246	0.181258	-1.434679
N	-0.376934	-1.339598	-2.051401
O	-1.380942	-2.054302	-2.018434
O	0.720427	-1.652079	-2.485074
C	-0.452674	-1.241476	0.778074
H	-0.107143	-1.14798	1.808445
H	0.018018	-2.129615	0.354472
H	-1.538333	-1.368066	0.770807
C	-0.480155	1.209747	0.663816
N	-0.904062	2.151236	1.224379
Cl	3.283687	0.0	0.0
