15

C	-0.553666	0.012802	-1.423351
C	0.0	0.0	0.0
Cl	0.208959	1.235182	-2.428395
H	1.095056	0.0	0.0
H	-1.630377	0.175567	-1.437201
N	-0.383002	-1.356045	-2.040173
O	-1.391858	-2.062867	-2.006
O	0.714303	-1.680231	-2.464706
C	-0.454383	-1.234522	0.787684
H	0.014565	-2.126987	0.371069
H	-1.540265	-1.359251	0.782599
H	-0.107538	-1.132825	1.816832
C	-0.478871	1.216004	0.65389
N	-0.9003	2.162921	1.207103
Cl	3.283135	0.0	0.0
