15

C	-0.399154	0.04834	-1.472401
C	0.0	0.0	0.0
Cl	0.22399	-1.32617	-2.373244
H	1.095997	0.0	0.0
H	-0.030483	0.958516	-1.939852
N	-1.903846	0.108038	-1.612178
O	-2.374751	1.233506	-1.771449
O	-2.546168	-0.930475	-1.497941
C	-0.480195	-1.233532	0.764609
H	-0.039919	-1.20683	1.76257
H	-1.567409	-1.273134	0.85172
H	-0.127347	-2.136373	0.266799
C	-0.458299	1.224663	0.652136
N	-0.820964	2.199545	1.198834
Cl	3.269245	0.0	0.0
