15

C	-0.558036	0.028183	-1.421003
C	0.0	0.0	0.0
Cl	0.208451	1.254573	-2.420125
H	1.095069	0.0	0.0
H	-1.634111	0.196631	-1.430909
N	-0.396148	-1.337524	-2.047926
O	-1.407579	-2.043185	-2.008206
O	0.696433	-1.661067	-2.485345
C	-0.453486	-1.24222	0.776444
H	-1.539587	-1.36506	0.773442
H	0.012588	-2.130708	0.348243
H	-0.103203	-1.152644	1.805535
C	-0.476966	1.209305	0.667556
N	-0.896696	2.151395	1.230408
Cl	3.284749	0.0	0.0
