15

C	-0.399625	0.038683	-1.473201
C	0.0	0.0	0.0
Cl	0.24047	-1.330201	-2.369955
H	1.095958	0.0	0.0
H	-0.044947	0.953491	-1.943152
N	-1.906223	0.077809	-1.610284
O	-2.533303	-0.972658	-1.521308
O	-2.393401	1.20037	-1.742418
C	-0.480343	-1.23045	0.769575
H	-1.567485	-1.265113	0.864548
H	-0.033325	-1.203224	1.764596
H	-0.134855	-2.136076	0.271252
C	-0.459073	1.227593	0.646201
N	-0.82069	2.20363	1.191547
Cl	3.271348	0.0	0.0
