15

C	-0.49576	0.002144	-1.44453
C	0.0	0.0	0.0
Cl	0.236714	1.285599	-2.401991
H	1.095073	0.0	0.0
H	-1.578788	0.092103	-1.518968
N	-0.18612	-1.337398	-2.069697
O	0.983238	-1.623076	-2.274363
O	-1.165713	-2.058446	-2.279469
C	-0.492608	-1.237263	0.756732
H	-0.195775	-1.153684	1.802832
H	-1.579538	-1.349249	0.701353
H	-0.015925	-2.130501	0.350488
C	-0.490756	1.220283	0.633065
N	-0.916239	2.191643	1.13916
Cl	3.252826	0.0	0.0
