18

C	0.0	0.0	0.0
C	-0.546799	-0.105905	-1.445253
Br	1.972865	0.0	0.0
H	-1.634906	-0.127306	-1.2146
C	-0.371226	1.308467	0.548074
N	-0.572157	2.378663	0.99094
C	-0.511009	-1.105306	0.912202
H	-0.133288	-2.075084	0.582879
H	-1.609017	-1.013572	0.806
H	-0.189708	-0.933422	1.942551
C	-0.108789	-1.369411	-2.16591
H	-0.629548	-1.399924	-3.12513
H	0.968637	-1.375391	-2.363637
H	-0.366588	-2.270822	-1.606512
N	-0.259841	1.054679	-2.279421
H	0.727679	1.288228	-2.221695
H	-0.78422	1.845665	-1.922436
F	-2.870473	0.0	0.0
