18

C	0.0	0.0	0.0
C	-0.477804	-0.272018	-1.478935
Br	1.974812	0.0	0.0
H	0.418584	-0.539395	-2.047923
C	-0.352604	1.340634	0.475125
N	-0.556187	2.417059	0.900689
C	-0.487491	-1.018894	1.021395
H	-1.577507	-0.896336	1.026953
H	-0.21409	-2.022507	0.699022
H	-0.055109	-0.79954	2.001488
C	-1.103025	0.981305	-2.096081
H	-2.025591	1.173047	-1.542651
H	-1.338352	0.773865	-3.146489
H	-0.439188	1.851654	-2.061012
N	-1.371629	-1.424492	-1.489466
H	-1.621382	-1.593081	-2.459635
H	-2.217334	-1.069805	-0.988012
F	-2.963249	0.0	0.0
