18

C	0.0	0.0	0.0
C	-0.454999	-0.034621	-1.537946
Br	1.976702	0.0	0.0
H	0.454411	-0.270084	-2.101093
C	-0.381819	1.224384	0.699134
N	-0.602027	2.223051	1.280227
C	-0.48858	-1.196098	0.800713
H	-0.141545	-2.12714	0.345894
H	-1.582726	-1.103466	0.773561
H	-0.113895	-1.145149	1.826226
C	-0.972515	1.335492	-1.958967
H	-1.191597	1.304504	-3.02851
H	-0.247751	2.129859	-1.764062
H	-1.896677	1.510794	-1.403964
N	-1.468509	-1.007321	-1.867994
H	-1.154322	-1.940974	-1.635256
H	-2.269076	-0.75796	-1.241036
F	-2.939017	0.0	0.0
