15

C	0.0	0.0	0.0
C	-0.490394	-0.040427	-1.443024
Br	2.048898	0.0	0.0
H	-0.239872	0.883407	-1.959408
H	-1.590417	-0.158104	-1.25867
N	-0.54257	1.126031	0.675111
H	-0.320645	1.973172	0.163967
H	-1.578186	0.893579	0.567471
N	-0.39968	-1.134612	0.699501
H	-0.212707	-2.023775	0.271455
H	-0.287776	-1.059138	1.69505
N	0.036652	-1.133791	-2.283875
O	-0.019616	-2.289133	-1.854865
O	0.480235	-0.83905	-3.395652
F	-2.837476	0.0	0.0
