15

C	0.0	0.0	0.0
C	-0.465765	-0.173939	-1.446163
Br	2.010438	0.0	0.0
H	-0.096964	0.652851	-2.045804
H	-1.562964	-0.202707	-1.353513
N	-0.454414	1.325362	0.363769
H	-0.183405	1.487348	1.330267
H	-1.482372	1.171439	0.339612
N	-0.451448	-1.104509	0.795902
H	-0.218132	-0.904501	1.764068
H	-1.479574	-1.00199	0.682154
N	0.001531	-1.417354	-2.103233
O	0.882428	-1.307128	-2.962194
O	-0.528873	-2.478811	-1.786488
F	-2.803545	0.0	0.0
