15

C	0.0	0.0	0.0
C	-0.537993	0.100276	-1.41174
Br	2.0714	0.0	0.0
H	-1.63819	0.232729	-1.185025
H	-0.342939	-0.822371	-1.949272
N	-0.323442	1.149553	0.774352
H	0.042207	1.992077	0.354015
H	0.02337	1.044775	1.718889
N	-0.532905	-1.20874	0.516552
H	-0.289227	-1.273289	1.500621
H	-1.568895	-0.963157	0.444869
N	-0.027972	1.198813	-2.248282
O	0.131655	0.959941	-3.446903
O	0.164377	2.30796	-1.744916
F	-2.83693	0.0	0.0
