15

C	0.0	0.0	0.0
C	-0.501651	0.028329	-1.437541
Br	2.048041	0.0	0.0
H	-0.277548	0.987038	-1.900565
H	-1.600796	-0.114832	-1.249959
N	-0.553646	1.07784	0.738632
H	-0.356895	1.954098	0.266284
H	-1.589328	0.829431	0.62441
N	-0.375637	-1.184817	0.656332
H	-0.143007	-1.131401	1.635444
H	-0.026443	-2.017842	0.20745
N	0.032768	-0.999702	-2.351353
O	0.070402	-2.172055	-1.968997
O	0.386754	-0.635629	-3.476545
F	-2.838556	0.0	0.0
