12
Coordinates from ORCA-job run
  C   0.55885965566993     -0.47686582817351     -0.22180684011932
  C   -0.58355433381197      0.32532841222749      0.37792068954843
  H   0.38061014632728     -1.53176755130620     -0.00236169280372
  H   -0.60867014512841      0.12423234617152      1.45108622845525
  H   0.53809047641747     -0.36772745710568     -1.31902429398420
  H   -0.37102462133352      1.40061209571786      0.25619759209091
  N   1.82643160134242     -0.07509221912469      0.38744171145921
  H   2.56307038313089     -0.70758798182702      0.10193514174506
  H   2.08520777406443      0.84757737775131      0.05943847329211
  N   -1.85425100403482     -0.09564459914026     -0.21154517130786
  H   -2.62495661155958      0.32644538900331      0.29050405768531
  H   -1.91081332108411      0.23049001580587     -1.16878589606118
