12
Coordinates from ORCA-job run
  C   -0.55127367719668      0.36483954266376      0.37482798910436
  C   0.55127367728061     -0.36483954179188     -0.37482798955079
  H   -0.46098101838984      0.13948852767631      1.44311469666123
  H   0.38875226929413     -1.44507364576853     -0.25641324096083
  H   -0.38875227004267      1.44507364663566      0.25641323927105
  H   0.46098101932096     -0.13948852564779     -1.44311469693827
  N   -1.86066192821401     -0.11131195744537     -0.07290996068234
  H   -2.03352670852859      0.22131606509759     -1.01421981312585
  H   -2.58843959588753      0.27775897795860      0.51329956120767
  N   1.86066192836463      0.11131195666337      0.07290996178719
  H   2.58843959610537     -0.27775897812652     -0.51329956043498
  H   2.03352670789362     -0.22131606791519      1.01421981366156
