12
Coordinates from ORCA-job run
  C   -0.66474420075649     -0.12643365714720      0.60911677150820
  C   0.51862686132492     -0.73732597002986     -0.12778365062984
  H   -1.39955603685113     -0.92731459782071      0.78104082727462
  H   0.99537941622279     -1.46132685395270      0.55003863673116
  H   -0.33161032901419      0.21614306420549      1.59647900475809
  H   0.14728981709599     -1.30581528700682     -0.98926644979349
  N   -1.19461882929475      1.02720973516642     -0.11588399479032
  H   -1.19012796815026      0.84149410611093     -1.11060347971959
  H   -2.14676503412400      1.21540263833938      0.16896122682138
  N   1.41953262363761      0.30141715199036     -0.62446127132736
  H   2.33849449185093     -0.08335351372457     -0.79937796154602
  H   1.50809918805858      1.03890318386929      0.06274034071318
