12
Coordinates from ORCA-job run
  C   0.60068307991234     -0.73486718957296      0.07074554008539
  C   -0.70088055103652     -0.11150856546057      0.54506425716150
  H   0.91881606900316     -1.49416112339433      0.79223257350601
  H   -1.43821835995921     -0.90100508812016      0.75121022073977
  H   0.41144165332893     -1.25389245972494     -0.88528184954843
  H   -0.49766386559560      0.41451125249558      1.48112418878537
  N   1.61643470282814      0.30845347265711     -0.00899660419644
  H   2.44849970538293     -0.04129263818660     -0.46707953389312
  H   1.23361350998756      1.05477966931441     -0.57755404099034
  N   -1.15329000351154      0.87462180316141     -0.44219963380033
  H   -1.59064281829538      0.39845682525347     -1.22210429181533
  H   -1.84879312204481      1.48690404157757     -0.03616082603405
