12
Coordinates from ORCA-job run
  C   0.56386627420330     -0.48756459496516     -0.40790486686401
  C   -0.47967866264739      0.42830704831957      0.22628966101103
  H   0.57421966217828     -0.30472790506797     -1.48499410562189
  H   -0.18323190570866      1.46794994075592      0.05119433568321
  H   0.26120966613480     -1.53171527726310     -0.26990951563388
  H   -0.47092797559892      0.27143937774127      1.31818008326835
  N   1.92325416232927     -0.34559451057291      0.10583978301542
  H   1.93471815816760     -0.51013125103652      1.10529785468264
  H   2.24861407748723      0.60169487134382     -0.04506765559256
  N   -1.78457085977048      0.21688578305795     -0.39868149871115
  H   -2.13475604566805     -0.69985889519576     -0.14711414356667
  H   -2.45271655110697      0.89431541288288     -0.05312993167048
