12
Coordinates from ORCA-job run
  C   0.54033568673649     -0.62989037246597     -0.18277963574418
  C   -0.47370734217432      0.43629691619248      0.22339180352091
  H   0.42045799172934     -1.49014072576291      0.47998304588093
  H   -0.25518184200869      0.75219730749073      1.24898902828084
  H   0.31172795330844     -0.98006106545618     -1.19570217596833
  H   -0.33459967199284      1.32043762878168     -0.42147432341283
  N   1.93895256052753     -0.21106857391567     -0.16068522969560
  H   2.19387166334977      0.08029650347444      0.77532364859060
  H   2.07082138234528      0.58808711198190     -0.76902885720450
  N   -1.82692892154226     -0.11700863445627      0.19735452005482
  H   -2.48783876178828      0.55547973763230      0.56572031524123
  H   -2.09691069849045     -0.30362583349652     -0.76109213954389
