16

C	0.0	0.0	0.0
C	-0.431055	0.27371	-1.42652
Cl	1.958392	0.0	0.0
H	-0.053455	1.259719	-1.717965
H	-1.524896	0.33558	-1.363676
N	-0.394505	1.051988	0.847239
H	-0.131358	0.895411	1.810222
H	-0.064282	1.952616	0.530281
N	-0.416866	-1.291527	0.429233
H	-0.144368	-1.44124	1.394512
H	-1.442261	-1.256912	0.390135
C	-0.005405	-0.783955	-2.432572
H	-0.431511	-0.556075	-3.413844
H	-0.362558	-1.765623	-2.122165
H	1.081519	-0.829614	-2.526551
Br	-3.892191	0.0	0.0
