16

C	0.0	0.0	0.0
C	-0.430532	-0.150919	-1.462706
Cl	1.813119	0.0	0.0
H	0.046263	-1.052957	-1.855924
H	-1.511738	-0.316135	-1.439475
N	-0.423587	1.215062	0.659825
H	-1.445693	1.182448	0.658695
H	-0.129423	2.029828	0.133128
N	-0.448743	-1.156196	0.72144
H	-0.306462	-0.966473	1.708922
H	-1.458431	-1.215792	0.573256
C	-0.132195	1.052859	-2.345578
H	0.921097	1.340982	-2.30278
H	-0.745573	1.908442	-2.055698
H	-0.375969	0.823213	-3.385919
Br	-3.788871	0.0	0.0
