16

C	0.0	0.0	0.0
C	-0.432944	-0.161961	-1.459199
Cl	1.826676	0.0	0.0
H	0.027025	0.648745	-2.030826
H	-1.517022	-0.012872	-1.461258
N	-0.445426	1.281618	0.464454
H	-1.456087	1.302696	0.313061
H	-0.294467	1.302085	1.468337
N	-0.410648	-1.051291	0.905261
H	-1.433269	-1.035444	0.898005
H	-0.100471	-1.955162	0.566045
C	-0.114052	-1.5132	-2.081956
H	-0.674504	-2.312144	-1.590394
H	0.953337	-1.745447	-2.029999
H	-0.409568	-1.516767	-3.134756
Br	-3.793973	0.0	0.0
