16

C	0.0	0.0	0.0
C	-0.25382	0.261345	-1.508543
Cl	1.812216	0.0	0.0
H	0.220478	1.220958	-1.734923
H	0.322673	-0.501446	-2.042861
N	-0.501275	1.078737	0.794955
H	-1.492714	1.183153	0.580383
H	-0.434346	0.80081	1.768659
N	-0.443151	-1.277281	0.507795
H	-0.167169	-2.022074	-0.12264
H	-1.462267	-1.243483	0.541506
C	-1.682044	0.249787	-2.023139
H	-2.203344	-0.674788	-1.787511
H	-1.666907	0.364874	-3.11104
H	-2.297803	1.042999	-1.608754
Br	-4.368237	0.0	0.0
