16

C	0.0	0.0	0.0
C	-0.253479	-0.269301	-1.505711
Cl	1.811726	0.0	0.0
H	0.219627	-1.231062	-1.724502
H	0.323795	0.488221	-2.046332
N	-0.445371	1.278149	0.50435
H	-0.175098	2.022702	-0.129559
H	-1.46423	1.242603	0.542699
N	-0.502776	-1.077223	0.796715
H	-1.495737	-1.175891	0.583441
H	-0.435794	-0.799994	1.771189
C	-1.680178	-0.261959	-2.02376
H	-1.651879	-0.404604	-3.109845
H	-2.199479	0.671468	-1.817254
H	-2.302059	-1.044545	-1.596775
Br	-4.355136	0.0	0.0
