11

C	0.0	0.0	0.0
C	-0.485152	-0.037002	-1.44124
Br	1.949979	0.0	0.0
H	-0.041316	-0.898336	-1.952172
H	-0.332324	-0.87311	0.558294
H	-0.339778	0.897606	0.511659
H	-1.570669	-0.172113	-1.342478
N	-0.221969	1.168396	-2.22251
H	0.739386	1.461009	-2.082224
H	-0.820979	1.901053	-1.857592
H	-3.081235	0.0	0.0
