11

C	0.0	0.0	0.0
C	-0.473536	0.042304	-1.445578
Br	1.949981	0.0	0.0
H	0.008012	0.880547	-1.958775
H	-0.332021	0.872617	0.559359
H	-0.342435	-0.897802	0.509033
H	-1.554894	0.208401	-1.366063
N	-0.233794	-1.174255	-2.217671
H	0.731588	-1.464856	-2.096252
H	-0.822921	-1.902545	-1.826211
H	-3.082457	0.0	0.0
