16

C	-0.492148	-0.161717	-1.425369
C	0.0	0.0	0.0
F	-1.77798	-0.665853	-1.428187
H	1.090468	0.0	0.0
H	-0.308142	-0.921861	0.511506
N	-0.585998	1.210874	-2.064863
O	-1.691445	1.635487	-2.379352
O	0.480837	1.791888	-2.216077
C	0.398656	-1.034174	-2.270714
H	0.415736	-2.035069	-1.834721
H	1.414083	-0.638626	-2.259639
H	0.010917	-1.096658	-3.290478
N	-0.532297	1.206166	0.623784
H	0.215588	1.664495	1.126185
H	-1.271462	0.985681	1.276497
Cl	3.482278	0.0	0.0
