16

C	-0.4695	-0.100331	-1.434749
C	0.0	0.0	0.0
F	-1.854606	-0.200659	-1.468734
H	1.09306	0.0	0.0
H	-0.367463	0.940314	0.421597
N	-0.196258	1.233257	-2.127434
O	0.521714	1.248738	-3.123949
O	-0.752613	2.21492	-1.638071
C	0.143076	-1.235659	-2.196881
H	-0.123873	-2.149307	-1.665586
H	1.228326	-1.124849	-2.202722
H	-0.237091	-1.264389	-3.218005
N	-0.453554	-1.189435	0.722693
H	0.279314	-1.472125	1.358897
H	-1.285258	-0.985649	1.257949
Cl	3.446464	0.0	0.0
