16

C	-0.414941	-0.062494	-1.447131
C	0.0	0.0	0.0
F	-0.152231	-1.312861	-1.944683
H	1.093564	0.0	0.0
H	-0.35085	0.95021	0.406396
N	-1.927538	0.110551	-1.543498
O	-2.59692	-0.781865	-2.047329
O	-2.364406	1.174849	-1.111859
C	0.2581	0.96905	-2.316521
H	-0.01945	1.971968	-1.993923
H	1.336909	0.839586	-2.208199
H	-0.034907	0.822528	-3.358861
N	-0.628006	-1.101424	0.734436
H	-0.419152	-0.968446	1.716866
H	-0.147678	-1.953233	0.464247
Cl	3.505372	0.0	0.0
