16

C	-0.41328	-0.095847	-1.462227
C	0.0	0.0	0.0
F	-1.780463	-0.348333	-1.553864
H	1.091052	0.0	0.0
H	-0.394492	0.927269	0.419214
N	-0.259714	1.277787	-2.101382
O	0.571445	1.422669	-2.993499
O	-1.000824	2.157356	-1.667666
C	0.340087	-1.131197	-2.244872
H	1.410233	-0.935124	-2.167675
H	0.12574	-2.106571	-1.805445
H	0.028822	-1.132083	-3.289696
N	-0.44892	-1.139998	0.789341
H	-1.364011	-1.450323	0.490071
H	0.211185	-1.900443	0.699023
Cl	3.457351	0.0	0.0
