16

C	-0.44213	0.041775	-1.442664
C	0.0	0.0	0.0
F	-0.330798	-1.214969	-2.004181
H	1.093986	0.0	0.0
H	-0.365806	-0.926436	0.449932
N	-1.953257	0.305818	-1.476114
O	-2.404635	1.080403	-2.31704
O	-2.633629	-0.328316	-0.670288
C	0.296604	1.043266	-2.275774
H	-0.042034	1.011897	-3.310827
H	0.136371	2.038794	-1.865651
H	1.358374	0.798234	-2.20592
N	-0.47393	1.216444	0.664677
H	-1.261218	1.006523	1.261607
H	0.272833	1.584651	1.235858
Cl	3.475118	0.0	0.0
