16

C	-0.414641	-0.074006	-1.461769
C	0.0	0.0	0.0
F	-1.785755	-0.304591	-1.553935
H	1.091043	0.0	0.0
H	-0.393941	0.922004	0.431696
N	-0.239018	1.303329	-2.088795
O	0.60777	1.445619	-2.967357
O	-0.98044	2.186467	-1.661402
C	0.320134	-1.111695	-2.258252
H	1.393212	-0.933114	-2.18194
H	0.090279	-2.089031	-1.831212
H	0.007109	-1.09318	-3.302076
N	-0.449663	-1.152056	0.771984
H	-1.352569	-1.476413	0.451676
H	0.225005	-1.90029	0.692312
Cl	3.452879	0.0	0.0
