14
Coordinates from ORCA-job run
  C   -0.22794869964615      0.12788110642257     -0.33088111721183
  C   1.13198677828857     -0.38368786158063      0.16150748051146
  H   -0.14376382684047      0.31744060984388     -1.40646404398424
  H   1.34838112309714     -1.36890801543730     -0.26259735166865
  H   1.10316088094496     -0.50198007792495      1.25087352210821
  N   -0.48620592152447      1.41427639907868      0.30615874155564
  H   -1.26487471482482      1.87978924019634     -0.14392912796894
  H   -0.73915116720725      1.27237650047594      1.27852754905396
  C   -1.30367926425966     -0.93165317450477     -0.09492329469719
  H   -2.27621752594037     -0.56825691462141     -0.43591154834389
  H   -1.08501966507912     -1.86248668003025     -0.62627583805743
  H   -1.38504272348145     -1.15934996124321      0.97306953054781
  C   2.22132439397949      0.52741594319783     -0.18447658030407
  N   3.10605033249362      1.23614288612729     -0.48567792154084
