14
Coordinates from ORCA-job run
  C   -0.28556506138349      0.07276927258001     -0.27504095596193
  C   1.12755369371246     -0.40538811636993      0.08212826147761
  H   -0.30156697480005      0.28482469884450     -1.35654130680860
  H   1.38069138723329     -1.30843414933323     -0.48099435470469
  H   1.15863533514137     -0.64077632261690      1.14992588653428
  N   -0.58884644698346      1.24180206362540      0.54467117435663
  H   0.01181556858107      2.01746057705673      0.28608387316597
  H   -1.54434269068004      1.53577877440053      0.37817110133491
  C   -1.29507904141240     -1.02398657175590      0.02443583792597
  H   -1.28769192922758     -1.25256487908264      1.09273321082514
  H   -2.30450002715165     -0.70322861082109     -0.24716450689290
  H   -1.07209033784400     -1.93291200631641     -0.53934767227442
  C   2.12273692560156      0.62678702163925     -0.20484772244097
  N   2.87824959921291      1.48986824814969     -0.45321282653700
