14
Coordinates from ORCA-job run
  C   -0.28438416171137      0.24504469173301     -0.29382015516086
  C   1.16002509866783      0.34811651761729      0.21575326855949
  H   -0.25245624811451      0.21950243256753     -1.39459863295800
  H   1.60320967975548      1.30071523946993     -0.09252910765496
  H   1.14721932810644      0.33581502110058      1.30942535666082
  N   -1.00140072477580      1.40562990132791      0.23218069962759
  H   -0.68688514875561      2.25063512814920     -0.23191387336418
  H   -1.99153712818322      1.31070713237957      0.03800869787278
  C   -0.95310432361676     -1.02488388063112      0.20505665262008
  H   -1.97572410498296     -1.09555083847632     -0.17616204576924
  H   -0.99569832027749     -1.01434288315405      1.29712249577133
  H   -0.41239776608239     -1.91436699829901     -0.12369228139624
  C   1.99865478384155     -0.73948229554753     -0.28330173573956
  N   2.64447903612881     -1.62553916823700     -0.70152933906904
