14
Coordinates from ORCA-job run
  C   -0.37936197242432      0.16822636211594     -0.43430149562803
  C   1.13738589912266      0.00234867158449     -0.59685835320753
  H   -0.79473740395296      0.20452285813573     -1.45533096268029
  H   1.55846368614417      0.87823845950120     -1.10185224923678
  H   1.35365220059420     -0.86538397007833     -1.22810444593677
  N   -0.62521637224909      1.38652173419124      0.32921877414012
  H   -0.36948543448203      2.20384744373129     -0.21315389745298
  H   -1.61065652641122      1.46568575782270      0.55114672795294
  C   -0.99309063155336     -1.01404119334379      0.29818029129323
  H   -2.08089649987622     -0.91178042678273      0.34572991876706
  H   -0.60778471704688     -1.06262746062061      1.31869397197049
  H   -0.76848953472071     -1.95396763562384     -0.21172821227916
  C   1.81595075861447     -0.16751300933909      0.68770414273210
  N   2.36326654824129     -0.33507759129421      1.71165578956559
