14
Coordinates from ORCA-job run
  C   -0.31146182818200      0.08332590880875     -0.24285440632614
  C   1.13614793920751     -0.38582840458966     -0.04939112789716
  H   -0.43331069341072      0.35954492977843     -1.30289857721892
  H   1.27089893997711     -0.68370227417457      0.99451797303396
  H   1.34835479784078     -1.24904713772780     -0.68702275703126
  N   -0.55361050321155      1.19453590635812      0.67210408764225
  H   -1.52530278984299      1.47681983370481      0.61498433463391
  H   0.00694546591523      1.99711904137596      0.40582091639498
  C   -1.27091452133769     -1.05053193665054      0.08224602559120
  H   -1.15875112658766     -1.34150648277523      1.12930890435551
  H   -1.08823540908202     -1.91974984302204     -0.55399732210390
  H   -2.30642357401705     -0.73585614121927     -0.07371853935513
  C   2.08455961567199      0.68150677364380     -0.36387240924279
  N   2.80110368705907      1.57336982648923     -0.62622710247651
