10
Coordinates from ORCA-job run
  C   -0.04132428765324     -0.46206752179092     -0.34877030304029
  C   1.07807620887305      0.25581011398598      0.35920981823762
  Cl  -0.29868302870318     -2.08652313435784      0.30283984383450
  H   2.01263725596392     -0.28477946902250      0.20813320260724
  H   0.10232929738539     -0.55119155416572     -1.42261260753437
  H   1.18237591263988      1.26478770423941     -0.04699086983347
  H   0.86422741199731      0.31755300715001      1.42503544543784
  N   -1.32463039421153      0.31962650659969     -0.19277710611788
  O   -1.91956788914534      0.59959617650554     -1.23018971825206
  O   -1.65644048714627      0.62718817085634      0.94512229466086
