10
Coordinates from ORCA-job run
  C   -0.03785291902127     -0.45456553241446     -0.35913758602087
  C   1.07451831318761      0.24593235180561      0.37682219014456
  Cl  -0.30477775822568     -2.09233575948995      0.25383240396831
  H   2.01018920384975     -0.29222826870653      0.22395611574160
  H   0.11736045398968     -0.52023279212083     -1.43306343107450
  H   1.18424102114928      1.26358196629990     -0.00562041924230
  H   0.84898799077006      0.28418304184307      1.44133857230134
  N   -1.32156168148963      0.32585418527385     -0.20036924035834
  O   -1.66590699981216      0.60874782492584      0.94022654100205
  O   -1.90419762439764      0.63006298258349     -1.23798514646186
