19

C	0.0	0.0	0.0
C	-0.29425	-0.166719	-1.53248
F	1.422074	0.0	0.0
H	0.345074	0.613439	-1.979573
N	-0.42517	1.30614	0.423236
H	0.355606	1.947215	0.350234
H	-0.787177	1.293471	1.366964
C	-0.61645	-1.064686	0.861419
H	-1.704306	-0.902655	0.759858
H	-0.339389	-2.065258	0.527858
H	-0.30026	-0.938488	1.90356
N	-1.658822	0.0342	-1.984052
H	-2.340102	-0.142041	-1.196657
H	-1.77768	1.031032	-2.142994
C	0.21247	-1.5146	-2.051385
H	1.21874	-1.754837	-1.692702
H	0.218269	-1.478159	-3.144892
H	-0.475261	-2.313275	-1.762499
F	-3.301624	0.0	0.0
