19

C	0.0	0.0	0.0
C	-0.281531	-0.023483	-1.519438
F	1.440566	0.0	0.0
H	-0.025149	-1.048109	-1.841859
N	-0.409527	1.25132	0.53135
H	0.028356	1.978777	-0.021058
H	-0.132532	1.333639	1.501239
C	-0.637216	-1.132269	0.746219
H	-0.339248	-2.098596	0.329497
H	-1.723549	-0.960247	0.638427
H	-0.360327	-1.10386	1.805766
N	0.617749	0.968275	-2.149585
H	1.56789	0.619455	-2.144075
H	0.319029	1.075379	-3.111826
C	-1.702714	0.305622	-1.931705
H	-2.505232	-0.054876	-1.23994
H	-1.814945	1.393655	-1.909715
H	-1.854429	-0.038062	-2.965654
F	-3.567727	0.0	0.0
