19

C	0.0	0.0	0.0
C	-0.420515	-0.0072	-1.479665
F	1.412406	0.0	0.0
H	-1.51677	-0.051582	-1.449868
N	-0.484623	1.20173	0.626589
H	-1.506235	1.167563	0.413107
H	-0.423678	1.064723	1.636732
C	-0.408939	-1.263415	0.742735
H	-0.039865	-1.195709	1.77295
H	0.028609	-2.160274	0.294103
H	-1.505964	-1.283533	0.7252
N	0.097634	-1.169344	-2.217181
H	-0.396202	-1.998271	-1.904806
H	1.069909	-1.289001	-1.945388
C	0.060864	1.254367	-2.186681
H	1.154299	1.309118	-2.154931
H	-0.332718	2.150437	-1.707606
H	-0.253652	1.219417	-3.232316
F	-3.009278	0.0	0.0
