19

C	0.0	0.0	0.0
C	-0.261467	-0.035705	-1.521789
F	1.440217	0.0	0.0
H	0.114669	-1.02494	-1.836802
N	-0.418568	1.247224	0.528362
H	-0.042309	1.976077	-0.06626
H	-0.086862	1.358232	1.478067
C	-0.61866	-1.1406	0.748475
H	-1.706447	-0.972825	0.658533
H	-0.322287	-1.116929	1.802764
H	-0.322991	-2.102325	0.320252
N	0.549044	1.04608	-2.123243
H	1.528283	0.791142	-2.103919
H	0.258103	1.147741	-3.08807
C	-1.699427	0.133741	-1.976635
H	-2.479656	-0.213717	-1.254537
H	-1.808357	-0.318703	-2.972416
H	-1.909107	1.204346	-2.057055
F	-3.526233	0.0	0.0
