19

C	0.0	0.0	0.0
C	-0.373908	0.158773	-1.522572
F	1.401268	0.0	0.0
H	0.560512	0.537591	-1.956306
N	-0.48422	1.157117	0.711038
H	-1.507282	1.018655	0.64304
H	-0.238934	1.032069	1.690075
C	-0.434787	-1.295509	0.663717
H	-0.068668	-1.294268	1.697524
H	-1.527922	-1.289717	0.649582
H	-0.031405	-2.177003	0.161
N	-1.428309	1.109869	-1.850093
H	-2.246109	0.783629	-1.305419
H	-1.159483	1.996657	-1.437058
C	-0.72479	-1.164903	-2.190438
H	0.05922	-1.919294	-2.07672
H	-1.657171	-1.532931	-1.75764
H	-0.887747	-0.981409	-3.255161
F	-2.967475	0.0	0.0
