14

C	-0.491047	-0.009785	-1.432004
C	0.0	0.0	0.0
F	-1.893225	0.058881	-1.456754
H	1.094107	0.0	0.0
H	-0.334817	0.948926	0.432363
C	-0.002812	1.148924	-2.200186
N	0.377547	2.06887	-2.821584
C	-0.122609	-1.250687	-2.142191
N	0.160024	-2.232367	-2.720952
C	-0.523979	-1.187865	0.796285
H	-0.123537	-2.125209	0.403165
H	-1.615192	-1.239043	0.79253
H	-0.181564	-1.098923	1.828838
Br	3.536969	0.0	0.0
