14

C	-0.471903	0.007249	-1.443858
C	0.0	0.0	0.0
F	0.01488	-1.100521	-2.111544
H	1.093842	0.0	0.0
H	-0.341736	-0.947646	0.429033
C	-1.951862	-0.054412	-1.516829
N	-3.124953	-0.110096	-1.530225
C	-0.038714	1.21909	-2.169461
N	0.285812	2.172821	-2.772719
C	-0.521432	1.19306	0.791226
H	-0.134765	1.135245	1.809953
H	-0.15796	2.130334	0.363105
H	-1.614231	1.225973	0.838036
Br	3.56483	0.0	0.0
