14

C	-0.484823	-0.006566	-1.436114
C	0.0	0.0	0.0
F	-1.885715	0.060265	-1.469513
H	1.094197	0.0	0.0
H	-0.337335	0.946779	0.434411
C	0.002605	1.162885	-2.190487
N	0.313678	2.120727	-2.793813
C	-0.114241	-1.24497	-2.148121
N	0.10951	-2.250578	-2.711467
C	-0.522442	-1.193088	0.789351
H	-1.613671	-1.246758	0.784041
H	-0.181524	-1.108421	1.822912
H	-0.118638	-2.127018	0.392065
Br	3.535857	0.0	0.0
