14

C	-0.464104	-0.010745	-1.448295
C	0.0	0.0	0.0
F	-0.008097	-1.147793	-2.092558
H	1.094188	0.0	0.0
H	-0.333518	0.941868	0.448831
C	-1.944642	-0.029509	-1.534291
N	-3.118689	-0.050647	-1.557435
C	0.012866	1.173176	-2.191708
N	0.32885	2.131702	-2.793341
C	-0.520175	-1.202495	0.77619
H	-0.203953	-2.128341	0.293829
H	-1.610096	-1.206074	0.87337
H	-0.082564	-1.190043	1.776005
Br	3.561472	0.0	0.0
