14

C	-0.483671	0.004267	-1.43664
C	0.0	0.0	0.0
F	-1.884198	0.075339	-1.47001
H	1.094505	0.0	0.0
H	-0.337435	0.944121	0.440351
C	0.008106	1.177203	-2.182713
N	0.320037	2.139124	-2.779201
C	-0.116449	-1.23074	-2.156183
N	0.104059	-2.23332	-2.725427
C	-0.523542	-1.198242	0.78071
H	-1.6148	-1.253571	0.770372
H	-0.116268	-2.129387	0.379963
H	-0.18767	-1.118774	1.816487
Br	3.535903	0.0	0.0
