14

C	-0.490349	0.007736	-1.433782
C	0.0	0.0	0.0
F	-1.892172	-0.047994	-1.460364
H	1.092338	0.0	0.0
H	-0.338661	-0.945154	0.436607
C	-0.114452	1.243633	-2.148333
N	0.106776	2.251932	-2.708114
C	-0.01754	-1.167153	-2.189156
N	0.285141	-2.125559	-2.795881
C	-0.515876	1.195841	0.790385
H	-0.172418	1.109767	1.822951
H	-0.108047	2.12757	0.39178
H	-1.606733	1.255009	0.787762
Br	3.540489	0.0	0.0
