14

C	0.0	0.0	0.0
C	-0.411308	0.136047	-1.563146
Cl	1.783258	0.0	0.0
H	0.534878	0.30647	-2.087689
C	-0.446599	1.197337	0.710792
N	-0.5561	2.234389	1.254375
C	-0.464726	-1.216126	0.662153
N	-0.597454	-2.246136	1.21562
N	-1.319508	1.186645	-1.932125
H	-0.888601	2.082305	-1.729247
H	-2.109134	1.027884	-1.284501
C	-0.921295	-1.157438	-2.03054
N	-1.259716	-2.189062	-2.475534
F	-2.376824	0.0	0.0
