14

C	0.0	0.0	0.0
C	-0.474369	0.006422	-1.499683
Cl	1.786094	0.0	0.0
H	-1.554325	0.217024	-1.337963
C	-0.43464	1.213938	0.695627
N	-0.612855	2.206964	1.298289
C	-0.485481	-1.206474	0.668015
N	-0.607497	-2.257863	1.181856
N	-0.329774	-1.26224	-2.171839
H	0.589154	-1.661256	-2.012968
H	-1.029111	-1.888551	-1.790223
C	0.191937	1.077767	-2.238482
N	0.692675	1.946423	-2.851902
F	-2.463959	0.0	0.0
