14

C	0.0	0.0	0.0
C	-0.41093	-0.365936	-1.521359
Cl	1.78632	0.0	0.0
H	0.535054	-0.380085	-2.071522
C	-0.431271	1.36618	0.295159
N	-0.570115	2.521111	0.467213
C	-0.465106	-0.938852	1.016743
N	-0.569937	-1.74911	1.863319
N	-1.308949	0.521805	-2.205512
H	-0.865298	1.428878	-2.294681
H	-2.097868	0.584446	-1.541788
C	-0.926443	-1.738848	-1.55568
N	-1.242501	-2.864435	-1.666427
F	-2.374301	0.0	0.0
