13

C	-0.503605	0.074894	-1.44109
C	0.0	0.0	0.0
Cl	0.150842	-1.257539	-2.437874
H	1.088199	0.0	0.0
H	-0.339855	0.877913	0.555031
C	-1.970187	0.085285	-1.536295
N	-3.1381	0.172554	-1.633034
C	-0.020867	1.3413	-2.010288
N	0.302705	2.37275	-2.471107
N	-0.513695	-1.181684	0.737932
O	-0.144	-1.273801	1.902356
O	-1.26735	-1.965437	0.159437
Br	3.370858	0.0	0.0
