13

C	-0.474614	-0.004992	-1.427951
C	0.0	0.0	0.0
F	0.151679	-0.976342	-2.128627
H	1.091537	0.0	0.0
H	-0.329189	0.961595	-1.910134
H	-0.379208	-0.849197	0.564338
N	-1.968139	-0.290435	-1.508504
O	-2.663327	0.288574	-0.678487
O	-2.368374	-1.032208	-2.39607
N	-0.430165	1.230056	0.708344
O	-0.723943	1.117563	1.894203
O	-0.41193	2.285033	0.078306
Br	3.433457	0.0	0.0
