13

C	-0.565138	0.078615	-1.397617
C	0.0	0.0	0.0
F	-0.401484	1.331656	-1.892823
H	1.088499	0.0	0.0
H	-1.619764	-0.193365	-1.441471
H	-0.359537	0.876338	0.544599
N	0.135903	-0.901468	-2.309807
O	0.524877	-0.511511	-3.399661
O	0.179967	-2.045631	-1.870471
N	-0.555383	-1.176246	0.729008
O	0.195283	-1.812339	1.454156
O	-1.763437	-1.389699	0.595507
Br	3.484934	0.0	0.0
