13

C	-0.527666	-0.100215	-1.403457
C	0.0	0.0	0.0
F	-1.893839	-0.184407	-1.415853
H	1.089608	0.0	0.0
H	-0.10494	-0.929652	-1.964872
H	-0.404644	0.870013	0.5159
N	-0.145467	1.165948	-2.128477
O	0.888474	1.1224	-2.788307
O	-0.878663	2.135225	-1.966185
N	-0.438208	-1.201517	0.757754
O	-0.735356	-1.043986	1.938599
O	-0.441841	-2.278194	0.162737
Br	3.436485	0.0	0.0
