13

C	-0.469369	0.025128	-1.432088
C	0.0	0.0	0.0
F	-0.00326	-0.979944	-2.197262
H	1.090509	0.0	0.0
H	-0.184779	0.986434	-1.870115
H	-0.358298	0.895234	0.506145
N	-1.991065	0.00449	-1.499722
O	-2.547779	-0.927538	-2.065826
O	-2.540811	0.965679	-0.96583
N	-0.525742	-1.153783	0.763106
O	-0.569139	-2.249559	0.204446
O	-0.866382	-0.933623	1.924239
Br	3.401899	0.0	0.0
