13

C	-0.589368	-0.068316	-1.380138
C	0.0	0.0	0.0
F	-1.933724	-0.305358	-1.326584
H	1.089717	0.0	0.0
H	-0.105331	-0.869119	-1.939922
H	-0.331307	-0.886804	0.540703
N	-0.374253	1.173653	-2.221369
O	0.790502	1.379658	-2.529079
O	-1.35819	1.822327	-2.551139
N	-0.493437	1.159029	0.782722
O	-0.804127	0.952562	1.954521
O	-0.521578	2.252516	0.220822
Br	3.434762	0.0	0.0
