13

C	-0.502768	-0.108716	-1.405854
C	0.0	0.0	0.0
F	-1.876865	-0.114687	-1.447177
H	1.090719	0.0	0.0
H	-0.123124	-0.975415	-1.937956
H	-0.395063	0.881903	0.496707
N	-0.077111	1.106485	-2.185611
O	-0.356517	2.197538	-1.69655
O	0.457384	0.911108	-3.273237
N	-0.450658	-1.18696	0.767419
O	-0.762196	-1.010623	1.941631
O	-0.451398	-2.273121	0.190486
Br	3.407262	0.0	0.0
