13

C	-0.472656	-0.006425	-1.424186
C	0.0	0.0	0.0
F	-0.222454	-1.233949	-1.965357
H	1.089911	0.0	0.0
H	-0.033388	0.768046	-2.044105
H	-0.390369	-0.850039	0.551793
N	-1.974605	0.17289	-1.525218
O	-2.398315	0.748237	-2.523915
O	-2.660406	-0.326369	-0.638653
N	-0.451946	1.226643	0.688674
O	-0.7003	2.205949	-0.017565
O	-0.51656	1.201474	1.912901
Br	3.420115	0.0	0.0
