13

C	-0.583442	-0.041243	-1.383025
C	0.0	0.0	0.0
F	-1.921105	-0.317582	-1.339759
H	1.090412	0.0	0.0
H	-0.075203	-0.812358	-1.964895
H	-0.325274	-0.902955	0.517643
N	-0.399427	1.231167	-2.184987
O	0.762628	1.500137	-2.450531
O	-1.402251	1.839784	-2.532255
N	-0.500864	1.133679	0.81538
O	-0.595589	2.23199	0.2702
O	-0.749854	0.902502	1.99662
Br	3.432938	0.0	0.0
