13

C	-0.567653	0.065167	-1.396911
C	0.0	0.0	0.0
F	-0.408203	1.314872	-1.903419
H	1.090965	0.0	0.0
H	-1.622253	-0.20908	-1.436227
H	-0.360043	0.880615	0.537459
N	0.133993	-0.919878	-2.303328
O	0.212863	-2.053854	-1.843809
O	0.490297	-0.542606	-3.409077
N	-0.553163	-1.171182	0.739456
O	0.200982	-1.804821	1.464411
O	-1.762828	-1.384743	0.611746
Br	3.485292	0.0	0.0
