17

C	0.0	0.0	0.0
C	-0.545105	-0.122336	-1.415909
Cl	1.790952	0.0	0.0
H	-1.627354	-0.284965	-1.287129
H	-0.294092	-0.897513	0.542986
C	-0.502682	1.242082	0.70879
H	-1.594892	1.253421	0.658934
H	-0.089394	2.145867	0.255226
H	-0.192865	1.215162	1.755926
N	-0.01452	-1.401181	-2.00537
O	-0.207837	-2.428407	-1.357625
O	0.574986	-1.35892	-3.086008
C	-0.272981	1.053849	-2.324367
H	-0.831033	1.91421	-1.952879
H	0.790788	1.294009	-2.365498
H	-0.616688	0.838204	-3.335047
Br	-3.881432	0.0	0.0
