17

C	0.0	0.0	0.0
C	-0.560815	0.041212	-1.408906
Cl	1.79112	0.0	0.0
H	-1.648156	-0.091509	-1.269059
H	-0.299464	-0.945379	0.447568
C	-0.484955	1.164079	0.843378
H	-1.575164	1.201111	0.800046
H	-0.05846	2.104884	0.490726
H	-0.17348	1.018445	1.879706
N	-0.109308	-1.185422	-2.154183
O	0.214179	-1.069853	-3.335924
O	-0.127944	-2.250703	-1.541135
C	-0.270343	1.297361	-2.196866
H	-0.680432	1.21484	-3.201687
H	0.802333	1.486451	-2.272976
H	-0.75484	2.139624	-1.701722
Br	-3.808876	0.0	0.0
