17

C	0.0	0.0	0.0
C	-0.429378	0.333083	-1.434586
Cl	1.79296	0.0	0.0
H	-0.034878	-0.444734	-2.089838
H	-0.293679	-1.040628	0.154721
C	-0.571101	0.858113	1.107061
H	-0.2143	0.491928	2.071728
H	-1.662983	0.782407	1.091755
H	-0.279549	1.899808	0.988837
N	0.259286	1.572024	-1.930091
O	0.942714	1.469103	-2.948633
O	0.077004	2.616574	-1.310162
C	-1.920391	0.511302	-1.611143
H	-2.487725	-0.33412	-1.223514
H	-2.28635	1.382219	-1.073054
H	-2.154486	0.631463	-2.672024
Br	-4.926453	0.0	0.0
