14

C	-0.327914	0.099077	-1.458787
C	0.0	0.0	0.0
F	-1.694471	0.391451	-1.681009
H	1.091596	0.0	0.0
H	-0.145474	-0.868884	-1.926897
H	-0.384606	0.846628	0.568248
C	0.541014	1.171002	-2.078503
H	1.570086	0.961721	-1.767756
H	0.441102	1.183997	-3.166901
H	0.250768	2.151786	-1.689912
N	-0.527213	-1.212424	0.639246
O	-0.541015	-2.263773	-0.004699
O	-0.889214	-1.129307	1.816292
F	2.610869	0.0	0.0
