14

C	-0.388352	-0.110487	-1.460351
C	0.0	0.0	0.0
F	-0.172709	1.141524	-2.057877
H	1.088708	0.0	0.0
H	-1.449807	-0.326831	-1.614431
H	-0.386539	-0.86891	0.54262
C	0.548928	-1.109559	-2.111518
H	0.472819	-1.05069	-3.199077
H	1.561545	-0.872327	-1.76424
H	0.296177	-2.129362	-1.797326
N	-0.658389	1.178631	0.613691
O	0.025434	2.003556	1.214128
O	-1.888708	1.255466	0.499798
F	2.66907	0.0	0.0
