14

C	-0.447645	0.012612	-1.448472
C	0.0	0.0	0.0
F	-0.134751	-1.258	-1.957152
H	1.089735	0.0	0.0
H	0.158475	0.730799	-2.003186
H	-0.405122	-0.861635	0.530845
C	-1.926697	0.231487	-1.688706
H	-2.222743	1.22925	-1.364325
H	-2.152545	0.126397	-2.753391
H	-2.505064	-0.514601	-1.13709
N	-0.444904	1.19663	0.703517
O	-0.744157	1.106645	1.898155
O	-0.443854	2.267931	0.082004
F	2.555421	0.0	0.0
