14

C	-0.533171	-0.077821	-1.409339
C	0.0	0.0	0.0
F	0.068633	-1.096741	-2.146955
H	1.089275	0.0	0.0
H	-0.225925	0.861357	-1.886227
H	-0.326327	0.939141	0.453888
C	-2.034889	-0.259437	-1.535441
H	-2.326889	-1.216978	-1.102578
H	-2.564094	0.54507	-1.017364
H	-2.32842	-0.253119	-2.588742
N	-0.515792	-1.05757	0.874825
O	-0.591355	-2.205325	0.425088
O	-0.819752	-0.763668	2.038134
F	2.556592	0.0	0.0
