17

C	0.0	0.0	0.0
C	-0.53107	-0.029073	-1.443605
F	1.316657	0.0	0.0
H	-1.571151	-0.356209	-1.511089
N	-0.436444	1.303895	0.834355
O	0.368143	1.596841	1.721391
O	-1.468961	1.940838	0.624142
N	-0.419173	-1.329018	0.85934
O	0.527241	-1.816568	1.474473
O	-1.548952	-1.813785	0.909815
N	0.236936	-0.984469	-2.263249
O	0.685245	-0.639059	-3.351627
O	0.246266	-2.118805	-1.787676
N	-0.48439	1.31959	-2.064252
O	-1.34905	1.56284	-2.90511
O	0.397397	2.094339	-1.696065
F	-1.972586	0.0	0.0
