17

C	-0.51957	0.003286	-1.451472
C	0.0	0.0	0.0
Br	0.29291	1.577046	-2.325929
H	1.090127	0.0	0.0
C	0.01157	-1.221626	-2.186193
H	1.093741	-1.312223	-2.059244
H	-0.226841	-1.139763	-3.248912
H	-0.478029	-2.116336	-1.790132
N	-1.9441	0.20356	-1.480103
H	-2.39446	-0.400849	-0.802361
H	-2.305369	0.014819	-2.407345
N	-0.448706	-1.299688	0.635689
O	-1.634606	-1.374557	0.977814
O	0.370034	-2.207987	0.709333
C	-0.533358	1.096828	0.798062
N	-0.934279	1.972296	1.470496
Br	3.416641	0.0	0.0
