17

C	-0.295502	-0.055767	-1.507176
C	0.0	0.0	0.0
Br	-2.267566	-0.206621	-1.818435
H	1.094866	0.0	0.0
C	0.156683	1.256897	-2.138056
H	0.012807	1.200001	-3.219578
H	-0.398087	2.116578	-1.758034
H	1.223981	1.376644	-1.919889
N	0.334951	-1.225488	-2.041333
H	0.440096	-1.124644	-3.04455
H	1.257736	-1.331186	-1.620227
N	-0.464808	-1.229096	0.720741
O	-1.497802	-1.147789	1.384429
O	0.225166	-2.232906	0.582939
C	-0.535784	1.183841	0.645509
N	-0.925171	2.165352	1.159031
Br	3.358731	0.0	0.0
