17

C	-0.42289	0.027355	-1.470428
C	0.0	0.0	0.0
Br	-2.549534	-0.090829	-1.430993
H	1.095939	0.0	0.0
C	-0.118482	1.381601	-2.079276
H	-0.382719	1.371009	-3.139396
H	0.95903	1.546809	-1.973339
H	-0.671292	2.181692	-1.591537
N	0.140506	-0.990134	-2.213139
H	-0.110052	-0.968016	-3.189643
H	0.085174	-1.906112	-1.794508
N	-0.418063	-1.238052	0.739779
O	-0.832882	-1.109862	1.886367
O	-0.263946	-2.312769	0.161977
C	-0.474225	1.168537	0.725811
N	-0.805578	2.149071	1.281096
Br	3.314656	0.0	0.0
