17

C	-0.421787	0.034721	-1.472043
C	0.0	0.0	0.0
Br	-2.536942	-0.116954	-1.447159
H	1.095901	0.0	0.0
C	-0.133947	1.395743	-2.073992
H	-0.391177	1.385723	-3.135854
H	0.940153	1.575545	-1.962255
H	-0.701054	2.185119	-1.585445
N	0.164726	-0.970181	-2.218705
H	0.127215	-1.886712	-1.799528
H	-0.101749	-0.957495	-3.191509
N	-0.421133	-1.245994	0.724852
O	-0.898744	-1.128807	1.847917
O	-0.209691	-2.315672	0.1564
C	-0.480492	1.161151	0.733544
N	-0.819994	2.133178	1.298815
Br	3.325369	0.0	0.0
