17

C	-0.423594	0.023991	-1.469972
C	0.0	0.0	0.0
Br	-2.549472	-0.093009	-1.429973
H	1.097523	0.0	0.0
C	-0.119649	1.376843	-2.082121
H	0.957663	1.542127	-1.977879
H	-0.384564	1.363897	-3.141955
H	-0.672408	2.177923	-1.595646
N	0.138989	-0.995384	-2.211145
H	-0.107999	-0.974128	-3.188467
H	0.082881	-1.910272	-1.792008
N	-0.416147	-1.236969	0.742492
O	-0.824841	-1.107507	1.890151
O	-0.264255	-2.312197	0.166302
C	-0.474156	1.169148	0.724893
N	-0.804208	2.145522	1.288388
Br	3.314962	0.0	0.0
