17

C	-0.475713	-0.032635	-1.46659
C	0.0	0.0	0.0
Br	-0.173706	1.794214	-2.15503
H	1.094256	0.0	0.0
C	0.399467	-0.947411	-2.316397
H	0.124368	-0.836511	-3.368211
H	0.239043	-1.982642	-2.012013
H	1.454658	-0.699303	-2.180056
N	-1.907694	-0.256159	-1.529505
H	-2.224736	-0.099901	-2.479573
H	-2.069621	-1.230939	-1.296339
N	-0.351861	-1.269792	0.755833
O	-0.725363	-2.256638	0.119532
O	-0.183031	-1.238587	1.967394
C	-0.544583	1.105809	0.774797
N	-0.982053	1.985702	1.418115
Br	3.361935	0.0	0.0
