17

C	-0.29648	0.013518	-1.524216
C	0.0	0.0	0.0
Br	-2.238807	-0.311039	-1.78166
H	1.096576	0.0	0.0
C	0.048404	1.389727	-2.066665
H	-0.572206	2.172309	-1.632481
H	1.100132	1.590832	-1.833656
H	-0.085835	1.369802	-3.148534
N	0.428517	-0.972245	-2.277006
H	0.291592	-1.88206	-1.852691
H	1.419934	-0.751429	-2.164925
N	-0.449796	-1.248678	0.693065
O	-1.079558	-1.1352	1.741548
O	-0.137232	-2.317106	0.173397
C	-0.5274	1.156615	0.702673
N	-0.926818	2.134161	1.218334
Br	3.331346	0.0	0.0
