17

C	-0.51656	-0.06914	-1.471899
C	0.0	0.0	0.0
Br	-0.221779	1.745488	-2.198074
H	1.091605	0.0	0.0
C	0.30858	-1.014316	-2.326285
H	1.370985	-0.81605	-2.175868
H	0.10827	-2.048521	-2.042812
H	0.036399	-0.866134	-3.371951
N	-1.921547	-0.351447	-1.602551
H	-2.468519	0.251651	-0.997404
H	-2.09369	-1.319932	-1.35275
N	-0.416068	-1.263397	0.715692
O	-0.005287	-2.319893	0.245959
O	-1.139502	-1.169748	1.708087
C	-0.559772	1.126871	0.733508
N	-1.055231	2.029465	1.299729
Br	3.366533	0.0	0.0
