14

C	-0.455339	-0.316639	-1.447251
C	-0.097155	-0.125733	0.045824
Cl	0.016211	-1.934136	-1.985058
H	0.9711	-0.371723	0.139141
H	-0.696734	-0.87397	0.580589
N	-1.987994	-0.197976	-1.52854
O	-2.655334	-1.199154	-1.316263
O	-2.420669	0.941188	-1.687971
C	0.099471	0.684854	-2.34613
N	0.492753	1.464113	-3.13275
N	-0.27638	1.200395	0.560068
H	0.584779	1.717414	0.391001
H	-1.075361	1.682535	0.171309
Br	3.072789	1.212629	-0.03635
