18

C	0.0	0.0	0.0
C	-0.35655	-0.027363	-1.551201
Cl	1.805456	0.0	0.0
H	-1.423362	-0.11897	-1.718474
C	-0.290133	1.338905	0.688459
H	-1.324122	1.660129	0.725512
H	0.096104	1.234525	1.708885
H	0.324288	2.117613	0.215335
N	-0.240292	-1.162268	0.844866
H	-1.199911	-1.140496	1.165713
H	-0.179367	-1.973344	0.242118
N	0.135475	-1.286046	-2.23053
O	-0.399392	-2.336488	-1.815894
O	1.174945	-1.278252	-2.87959
N	0.09326	1.091585	-2.332004
H	-0.536368	1.85879	-2.14673
H	1.045551	1.362882	-2.13093
Br	-3.043541	0.0	0.0
