18

C	0.0	0.0	0.0
C	-0.413541	-0.278492	-1.474938
Cl	1.853358	0.0	0.0
H	0.401603	-0.78674	-1.995539
C	-0.473639	1.339556	0.528673
H	-0.009673	2.168472	-0.004659
H	-0.211415	1.420892	1.586145
H	-1.563122	1.372846	0.431589
N	-0.51262	-1.032445	0.807593
H	-0.188896	-0.977798	1.76161
H	-0.405465	-1.955167	0.414204
N	-0.430522	1.091087	-2.209324
O	0.664086	1.588334	-2.479333
O	-1.52133	1.582299	-2.479506
N	-1.611358	-1.001768	-1.559347
H	-2.385061	-0.629545	-0.994907
H	-1.922861	-1.090507	-2.517922
Br	-4.457811	0.0	0.0
