18

C	0.0	0.0	0.0
C	-0.294608	-0.196653	-1.53388
Cl	1.794099	0.0	0.0
H	0.512694	0.305271	-2.072776
C	-0.407254	1.357987	0.560492
H	-1.495626	1.429517	0.554305
H	-0.044919	1.409734	1.591893
H	0.019726	2.182377	-0.007642
N	-0.534855	-1.108453	0.745714
H	-0.225362	-1.028709	1.707799
H	-1.555566	-0.968238	0.73671
N	-1.47529	0.611851	-2.160472
O	-2.184869	0.018008	-2.961731
O	-1.462348	1.824383	-1.988958
N	-0.344351	-1.572161	-1.86676
H	-0.867195	-1.6861	-2.725264
H	-0.800419	-2.078823	-1.117706
Br	-3.763745	0.0	0.0
