18

C	0.0	0.0	0.0
C	-0.498868	-0.16983	-1.45327
Cl	1.847827	0.0	0.0
H	-1.566818	-0.406039	-1.349471
C	-0.452393	1.3378	0.550233
H	-1.545253	1.359064	0.485163
H	-0.002172	2.17084	0.010812
H	-0.155432	1.410435	1.599622
N	-0.504275	-1.028596	0.80896
H	-0.244679	-0.943699	1.779796
H	-0.368085	-1.958592	0.443937
N	0.16579	-1.389613	-2.057333
O	1.009552	-1.224257	-2.930109
O	-0.165616	-2.486422	-1.601043
N	-0.318344	0.926667	-2.341796
H	-1.046922	1.607255	-2.177016
H	0.597412	1.346409	-2.24211
Br	-3.943999	0.0	0.0
