18

C	0.0	0.0	0.0
C	-0.503696	-0.086169	-1.447671
Cl	1.807536	0.0	0.0
H	-1.598077	-0.089856	-1.383358
C	-0.432186	1.333859	0.595344
H	-0.024216	2.171691	0.032451
H	-0.082641	1.384028	1.630748
H	-1.524546	1.367107	0.581182
N	-0.461168	-1.158964	0.714089
H	-0.272828	-1.022277	1.702049
H	-1.478683	-1.18888	0.600696
N	-0.141779	-1.45002	-2.036595
O	0.898995	-1.519525	-2.695058
O	-0.914649	-2.380457	-1.841263
N	-0.030647	0.984317	-2.256435
H	0.945036	0.831188	-2.480671
H	-0.562889	1.02346	-3.115323
Br	-3.84446	0.0	0.0
