18

C	0.0	0.0	0.0
C	-0.458657	0.070395	-1.477639
Cl	1.813409	0.0	0.0
H	-1.547997	-0.058072	-1.453712
C	-0.438311	1.274484	0.708423
H	-1.52652	1.357441	0.644259
H	-0.139111	1.190999	1.755075
H	0.016789	2.150704	0.252858
N	-0.48289	-1.124322	0.74108
H	-1.485821	-0.962021	0.864246
H	-0.387858	-1.97127	0.194128
N	0.072778	-1.158553	-2.24095
O	0.879774	-0.965108	-3.150073
O	-0.339956	-2.267516	-1.904152
N	-0.097791	1.279795	-2.121443
H	-0.572137	1.359149	-3.011473
H	0.901785	1.305668	-2.28208
Br	-3.84728	0.0	0.0
