18

C	0.0	0.0	0.0
C	-0.435693	-0.267188	-1.465625
Cl	1.854696	0.0	0.0
H	0.385442	-0.755013	-1.999212
C	-0.470003	1.320308	0.582377
H	-1.559786	1.355912	0.480679
H	-0.001956	2.172741	0.095499
H	-0.22485	1.341744	1.647013
N	-0.492347	-1.054925	0.801121
H	-0.064842	-1.067782	1.715214
H	-0.456529	-1.95658	0.349963
N	-0.505404	1.086932	-2.235262
O	0.4896	1.806904	-2.197906
O	-1.510536	1.305016	-2.90267
N	-1.606085	-1.037753	-1.540596
H	-2.386388	-0.671927	-0.980949
H	-1.919431	-1.127497	-2.497054
Br	-4.429869	0.0	0.0
