18

C	0.0	0.0	0.0
C	-0.460543	0.055737	-1.477185
Cl	1.812898	0.0	0.0
H	-1.549147	-0.081423	-1.441246
C	-0.446398	1.273716	0.699055
H	-1.535061	1.337962	0.630847
H	-0.150061	1.194741	1.746423
H	0.002659	2.151969	0.242593
N	-0.475954	-1.122617	0.749944
H	-1.483383	-0.980201	0.860104
H	-0.35727	-1.974903	0.215464
N	0.078446	-1.168972	-2.233752
O	0.890982	-0.974679	-3.137272
O	-0.329686	-2.279803	-1.896988
N	-0.114277	1.266242	-2.128933
H	-0.619266	1.349604	-3.000871
H	0.878378	1.285892	-2.324452
Br	-3.820611	0.0	0.0
