18

C	0.0	0.0	0.0
C	-0.484788	0.123468	-1.473343
Cl	1.805603	0.0	0.0
H	-1.560166	-0.081148	-1.433289
C	-0.438692	1.232943	0.775927
H	0.041796	2.13513	0.396384
H	-0.146426	1.088361	1.817141
H	-1.526086	1.325904	0.717991
N	-0.474105	-1.16629	0.690297
H	-1.477002	-1.01869	0.823182
H	-0.382349	-1.974183	0.086723
N	0.124694	-0.997016	-2.283398
O	-0.307287	-2.134044	-2.076671
O	1.03424	-0.727056	-3.060331
N	-0.24765	1.351981	-2.161704
H	0.684134	1.702758	-1.98165
H	-0.940803	2.027499	-1.867352
Br	-3.828823	0.0	0.0
