15

C	-0.504846	-0.229976	-1.42769
C	0.0	0.0	0.0
Br	-0.098713	1.338365	-2.519685
H	1.106794	0.0	0.0
H	-1.594071	-0.29823	-1.426771
C	0.166589	-1.457027	-2.018558
H	1.251505	-1.345726	-1.959012
H	-0.127928	-2.346661	-1.453815
H	-0.132913	-1.590834	-3.059312
C	-0.491872	-1.082431	0.84843
N	-0.894835	-1.977417	1.494458
N	-0.555456	1.286915	0.544672
O	0.232413	2.173099	0.844376
O	-1.783011	1.349157	0.622804
Br	3.415805	0.0	0.0
