15

C	-0.498529	-0.046237	-1.447034
C	0.0	0.0	0.0
Br	-0.068799	1.644308	-2.32772
H	1.093467	0.0	0.0
H	-1.588046	-0.103528	-1.462149
C	0.168878	-1.194516	-2.182909
H	-0.123978	-1.194461	-3.233975
H	1.254343	-1.100248	-2.103026
H	-0.135981	-2.145905	-1.736412
C	-0.498583	-1.177216	0.7069
N	-0.921472	-2.131284	1.246677
N	-0.554755	1.20861	0.703883
O	-1.78273	1.303427	0.715842
O	0.235254	2.002792	1.194477
Br	3.417769	0.0	0.0
