15

C	-0.505518	-0.166712	-1.43194
C	0.0	0.0	0.0
Br	0.082423	-1.912361	-2.077293
H	1.100245	0.0	0.0
H	0.024132	0.557942	-2.04754
C	-2.011452	-0.04948	-1.575179
H	-2.516501	-0.807095	-0.972541
H	-2.304842	-0.185917	-2.617521
H	-2.337508	0.94361	-1.254346
C	-0.548592	-0.987302	0.916148
N	-1.017654	-1.805424	1.616188
N	-0.353982	1.381983	0.493643
O	-0.606485	1.524574	1.685216
O	-0.298196	2.286148	-0.337061
Br	3.324428	0.0	0.0
