13
Coordinates from ORCA-job run
  C   0.71435717390055      0.34793772115656      0.54371422273001
  C   -0.64988357528661     -0.11296231304678      0.02661453824233
  Br  1.39295892501210      1.85394218505061     -0.42243732952768
  H   -0.92260382492995     -0.97366034823696      0.64528108307395
  H   0.61891149623147      0.62014933307993      1.59371629385040
  N   1.65862636803261     -0.84007000809711      0.49699940943564
  O   1.33786469983791     -1.72902182140128      1.28269221396263
  O   2.59545016844951     -0.85503737471602     -0.28486375179017
  C   -0.54311255104440     -0.57485400325632     -1.37192516338175
  N   -0.51616579759921     -0.92207693997394     -2.49407982979452
  N   -1.62639674904775      0.93386925401631      0.25659530367945
  H   -1.49741003293017      1.68822711975247     -0.40748924686500
  H   -2.56159630062606      0.56455719567252      0.13618225638470
