13
Coordinates from ORCA-job run
  C   0.76973373980472      0.32126989754832      0.47659887037516
  C   -0.65201689563907     -0.08095298668624      0.08106970996354
  Br  1.43951700679442      1.77249063286271     -0.57515551585896
  H   -0.91565666885643     -0.91528333003305      0.73855617373911
  H   0.77581149148017      0.61631548079358      1.52476880173637
  N   1.65224432341000     -0.91260096279990      0.38002375437080
  O   1.35776125431310     -1.77139746855508      1.20820724333672
  O   2.52173746422115     -0.98402116426532     -0.47316857976566
  C   -0.68202564385238     -0.57497683399696     -1.31043315211410
  N   -0.76371327621902     -0.94396012258782     -2.42296090471248
  N   -1.55344159301685      1.01800107979188      0.36527609049558
  H   -1.43654259829588      1.75684068731908     -0.31720072276004
  H   -2.51240860414392      0.69727509060879      0.32441823119395
