13
Coordinates from ORCA-job run
  C   0.66605275983904      0.32697414379412      0.47331950717764
  C   -0.71525476191242     -0.13577028847596     -0.04736992874578
  Br  1.38553825080637      1.77859515049396     -0.54382422931879
  H   -1.00707441402041     -0.96848727768302      0.60218354707469
  H   0.58064379112203      0.64280869999413      1.51299166220824
  N   1.58522178026675     -0.87879653291582      0.49532213253014
  O   1.25489349813751     -1.70506064522010      1.34400690872514
  O   2.50047060798543     -0.97329804500998     -0.30609947464850
  C   -0.56903355612372     -0.66340111475630     -1.41049140856930
  N   -0.44479110513879     -1.08334011761492     -2.49948253722544
  N   -1.76369450939000      0.85535651844345     -0.01095203259277
  H   -1.51123962534181      1.67283843091986     -0.55216048285247
  H   -1.96473271622997      1.13258107803058      0.94155633623720
