13
Coordinates from ORCA-job run
  C   0.59070127057154     -0.08870227142843      0.86433033510580
  C   -0.77193500740484      0.08774641787498      0.17635322725627
  Br  1.04970611813902      1.48866364227434      1.86361380288303
  H   -1.46215731953810      0.43863819367147      0.95890570258726
  H   0.58990276682713     -0.93456734437665      1.54949498976832
  N   1.62579614024583     -0.40341430135462     -0.19599464264149
  O   1.55783739959587     -1.56285965744226     -0.59281217223123
  O   2.38000590139568      0.46983545802606     -0.58779662972721
  C   -1.28625759849512     -1.20727035109893     -0.28895640352551
  N   -1.77126486245340     -2.20974895608734     -0.66017390740594
  N   -0.62368576869159      0.98197662886241     -0.95900030881563
  H   -0.39513298428279      1.91539869244930     -0.63732058745568
  H   -1.48451605590922      1.02430384862967     -1.48964340579800
