16

C	-0.553984	-0.023742	-1.409525
C	0.0	0.0	0.0
Cl	0.11685	1.397549	-2.387609
H	1.0941	0.0	0.0
H	-0.158998	-0.901846	-1.915948
N	-1.983783	-0.041229	-1.441848
H	-2.338664	0.844391	-1.101572
H	-2.309681	-0.155254	-2.394649
N	-0.353446	-1.298616	0.585221
H	0.379593	-1.539283	1.244792
H	-1.242166	-1.247919	1.070205
C	-0.469864	1.192674	0.823882
H	0.063878	1.179898	1.778482
H	-1.547545	1.15259	1.036851
H	-0.237621	2.139851	0.329807
H	2.97361	0.0	0.0
