16

C	-0.443112	0.000804	-1.435473
C	0.0	0.0	0.0
Cl	-2.407669	0.376477	-1.47925
H	1.096261	0.0	0.0
H	-0.101903	0.874943	-1.987082
N	-0.164641	-1.191082	-2.067798
H	-0.546619	-1.284453	-2.99532
H	-0.376303	-1.964565	-1.448877
N	-0.390676	-1.267363	0.622996
H	0.37439	-1.560484	1.221691
H	-1.223769	-1.146984	1.18696
C	-0.416364	1.236033	0.778075
H	0.165257	1.274693	1.703391
H	-1.48442	1.236171	1.013655
H	-0.192067	2.144243	0.21004
H	2.880804	0.0	0.0
