16

C	-0.28826	0.003719	-1.48611
C	0.0	0.0	0.0
Cl	-2.099741	-0.007035	-1.80288
H	1.101021	0.0	0.0
H	0.059396	0.940766	-1.926366
N	0.31695	-1.101317	-2.178309
H	1.322168	-0.931822	-2.092215
H	0.132674	-1.907257	-1.583951
N	-0.40388	-1.280225	0.578441
H	0.278665	-1.534887	1.283375
H	-1.314545	-1.205206	1.016586
C	-0.505088	1.221178	0.744632
H	-1.599287	1.234818	0.805651
H	-0.092321	1.226263	1.757962
H	-0.176798	2.141223	0.249911
H	2.929101	0.0	0.0
