16

C	-0.387844	0.068526	-1.454311
C	0.0	0.0	0.0
Cl	-2.362288	0.215042	-1.558557
H	1.096552	0.0	0.0
H	-0.118499	1.017271	-1.913688
N	0.049265	-1.007612	-2.211586
H	-0.280318	-1.004652	-3.164404
H	-0.125706	-1.890803	-1.755745
N	-0.397791	-1.239472	0.659284
H	0.32595	-1.93741	0.536946
H	-1.291624	-1.577883	0.323428
C	-0.468349	1.204885	0.793829
H	-1.545079	1.177053	0.979853
H	0.0608	1.20102	1.748694
H	-0.22352	2.136173	0.272515
H	2.917544	0.0	0.0
