16

C	-0.200019	-0.000642	-1.507981
C	0.0	0.0	0.0
Cl	-1.96712	-0.210689	-1.958444
H	1.099493	0.0	0.0
H	0.067537	0.980293	-1.906367
N	0.579843	-0.994822	-2.206262
H	1.547777	-0.786682	-1.931431
H	0.36979	-1.892781	-1.779449
N	-0.4155	-1.227235	0.672607
H	-1.250606	-1.614488	0.246862
H	0.3363	-1.90417	0.619606
C	-0.570142	1.220006	0.690432
H	-0.232445	1.227346	1.728835
H	-0.225055	2.140709	0.208063
H	-1.665592	1.207941	0.680526
H	2.930861	0.0	0.0
