16

C	-0.530579	-0.027292	-1.433572
C	0.0	0.0	0.0
Cl	-0.254328	1.53947	-2.267326
H	1.095272	0.0	0.0
H	0.060481	-0.757682	-1.986854
N	-1.936912	-0.373721	-1.584852
H	-2.488933	0.346762	-1.128398
H	-2.035088	-1.221724	-1.031678
N	-0.372573	-1.321315	0.562924
H	-0.964761	-1.197574	1.377685
H	0.493787	-1.748861	0.882388
C	-0.513775	1.141264	0.856227
H	-0.056835	1.064768	1.846889
H	-1.605798	1.10976	0.977335
H	-0.238937	2.110582	0.438699
H	2.948869	0.0	0.0
