16

C	-0.461958	-0.02318	-1.460264
C	0.0	0.0	0.0
Cl	0.005355	1.501772	-2.299916
H	1.095229	0.0	0.0
H	0.09279	-0.811995	-1.972725
N	-1.880756	-0.227025	-1.721399
H	-2.133668	-1.166974	-1.440367
H	-2.414579	0.425692	-1.157984
N	-0.340749	-1.263025	0.666659
H	0.371712	-1.947493	0.437637
H	-1.25053	-1.614668	0.3912
C	-0.539091	1.161479	0.814348
H	-1.631285	1.119279	0.92882
H	-0.266233	2.123009	0.376556
H	-0.099875	1.094858	1.810723
H	2.960496	0.0	0.0
