16

C	0.0	0.0	0.0
C	-0.500341	0.173342	-1.443929
F	1.372821	0.0	0.0
H	-1.562519	0.447674	-1.368988
C	-0.421488	1.061655	0.937112
N	-0.564061	1.882412	1.764836
C	-0.418047	-1.307932	0.54262
N	-0.515121	-2.39695	0.973553
C	-0.324413	-1.07951	-2.272283
H	-0.5895	-0.876646	-3.306692
H	0.704901	-1.439545	-2.237054
H	-0.995741	-1.843	-1.885648
N	0.217035	1.341539	-2.058076
O	0.42919	1.309402	-3.270556
O	0.492045	2.288831	-1.32631
Cl	-3.244442	0.0	0.0
