16

C	0.0	0.0	0.0
C	-0.540914	0.012953	-1.435134
F	1.357513	0.0	0.0
H	-1.639777	-0.012008	-1.347844
C	-0.44314	1.147664	0.81918
N	-0.61797	2.057058	1.541279
C	-0.432841	-1.258011	0.647347
N	-0.545422	-2.322249	1.132817
C	-0.000421	-1.13589	-2.269386
H	1.08768	-1.085379	-2.353352
H	-0.280449	-2.085486	-1.811077
H	-0.44403	-1.090293	-3.263525
N	-0.204597	1.300043	-2.122215
O	-0.685016	1.442792	-3.243557
O	0.517427	2.117954	-1.554533
Cl	-3.358002	0.0	0.0
