16

C	0.0	0.0	0.0
C	-0.474582	0.366772	-1.41689
F	1.37753	0.0	0.0
H	-0.247577	1.422247	-1.577299
C	-0.466449	1.024629	0.946243
N	-0.7258	1.902205	1.683007
C	-0.436404	-1.33567	0.44091
N	-0.71414	-2.396411	0.860842
C	-1.919868	0.018703	-1.686817
H	-2.041139	-1.064149	-1.738983
H	-2.614993	0.364969	-0.910764
H	-2.231956	0.460939	-2.634992
N	0.414953	-0.360733	-2.388187
O	0.939891	0.310289	-3.274921
O	0.521654	-1.576527	-2.247253
Cl	-4.765369	0.0	0.0
