16

C	0.0	0.0	0.0
C	-0.185087	-0.112498	-1.565238
F	1.380775	0.0	0.0
H	0.31782	0.7875	-1.925291
C	-0.462682	1.302866	0.488664
N	-0.584742	2.413308	0.854975
C	-0.465434	-1.113215	0.82988
N	-0.618608	-2.014947	1.567678
C	-1.470369	-0.338736	-2.32184
H	-1.982088	-1.2326	-1.979317
H	-2.153036	0.491985	-2.187359
H	-1.188897	-0.432273	-3.378358
N	0.744721	-1.221387	-1.996885
O	1.619646	-0.933082	-2.810919
O	0.527503	-2.343408	-1.550253
Cl	-3.264951	0.0	0.0
