11
Coordinates from ORCA-job run
  C   -0.88654511161070      0.04616565731370     -0.47413991858105
  C   0.25745104912235     -0.72418322509221      0.18645578756829
  Cl  -2.43604599834270     -0.81294436425404     -0.24820656525627
  H   0.30187220790127     -1.70898273510537     -0.28362297837684
  H   -0.69807488247109      0.11279613554839     -1.54614361684601
  H   0.01506905129862     -0.86920569158999      1.24727454982836
  C   -0.97593575968850      1.39487118991668      0.07807153134495
  N   -0.99300432712569      2.46781535310128      0.55452270480929
  N   1.49331648114789     -0.00529304959041     -0.07929341270219
  H   1.63446271999473      0.72983207233949      0.60189230155341
  H   2.28743456977381     -0.62887134258753     -0.03581038334195
