11
Coordinates from ORCA-job run
  C   -0.83748550438946      0.06286747658340     -0.30085960753386
  C   0.63305680364722      0.10544475544890      0.10360722632682
  Cl  -1.83771306945946     -0.56090455366266      1.04830051548504
  H   1.18035066984473      0.56528211943760     -0.72445372792899
  H   -0.95628965711876     -0.64297767798919     -1.12457114832124
  H   0.73202424918761      0.76134136212833      0.97935164167304
  C   -1.31837314636121      1.38252727779965     -0.69700461697029
  N   -1.65954521325676      2.45649359293155     -1.02658357544575
  N   1.12061382996551     -1.25216659805012      0.28461334454927
  H   2.13186914517653     -1.25949725233612      0.28100732108962
  H   0.81349189276406     -1.61841050229132      1.17659262707632
