11
Coordinates from ORCA-job run
  C   -0.87436829098244      0.16528013643760     -0.06537777391915
  C   0.63374067653368     -0.05602121104559     -0.13306236816917
  Cl  -1.37034029595652      0.57833509248052      1.60569974809370
  H   0.88583921899660     -0.22680765032947     -1.18372158556074
  H   -1.37949482306446     -0.76925969872815     -0.31530858225273
  H   1.13340826988116      0.86801555231779      0.18860572427939
  C   -1.29725021076321      1.22344511023370     -0.97714517765190
  N   -1.59851284166738      2.06576464272838     -1.73745561291496
  N   0.97903038649741     -1.24711410904206      0.62570657658084
  H   0.98144264706766     -1.04211351687577      1.61670472739684
  H   1.90750526345750     -1.55952434817696      0.37435432411787
