11
Coordinates from ORCA-job run
  C   -0.85343720654860      0.05551712798775     -0.24042061455752
  C   0.64916595844797      0.07337479060163      0.02134239876564
  Cl  -1.75467576210793     -0.07817800409525      1.30246814187007
  H   0.87907768644158      0.93271070393383      0.66608374336094
  H   -1.09901871894213     -0.83587854620313     -0.82011840954638
  H   1.14086022603498      0.23483028129642     -0.94246540393496
  C   -1.28588369747399      1.25196650313829     -0.95542686346946
  N   -1.61584017062973      2.20307861999760     -1.55942206368674
  N   1.06155555522236     -1.22108574392981      0.53984225815765
  H   0.81210334224266     -1.30105381635539      1.51740657971712
  H   2.06609278731283     -1.31628191637193      0.47071023332363
