16

C	-0.270553	0.013707	-1.367671
C	-0.007633	-0.131155	0.138693
Br	0.347778	-1.644321	-2.250643
H	1.052332	-0.394692	0.224856
N	-1.703866	0.088989	-1.624221
H	-1.983373	1.013648	-1.302211
H	-1.810461	0.134811	-2.63366
C	0.471344	1.17339	-1.957464
N	0.257586	2.110979	-2.662039
C	-0.840992	-1.178871	0.73257
N	-1.477411	-1.990585	1.295099
C	-0.207733	1.202835	0.867715
H	-0.025727	1.070411	1.937474
H	-1.222601	1.590836	0.745743
H	0.519198	1.906509	0.463896
F	2.023299	0.885037	-1.13292
