17

C	0.0	0.0	0.0
C	-0.180954	-0.163209	-1.557459
Cl	1.788349	0.0	0.0
H	0.30525	-1.10874	-1.802949
C	-0.50969	1.330069	0.517085
H	-1.600374	1.327123	0.418576
H	-0.250038	1.42278	1.575523
H	-0.079126	2.173407	-0.026524
N	-0.533215	-1.173471	0.626173
H	-1.549328	-1.145246	0.472726
H	-0.393788	-1.092714	1.629161
C	0.454131	0.92671	-2.299656
N	0.970202	1.772005	-2.931229
N	-1.575122	-0.305984	-2.135227
O	-2.140504	0.718705	-2.4916
O	-1.974816	-1.458404	-2.256554
Br	-3.964618	0.0	0.0
