17

C	0.0	0.0	0.0
C	-0.163944	0.159695	-1.582198
Cl	1.788569	0.0	0.0
H	0.434128	-0.640617	-2.021563
C	-0.511955	1.207839	0.751947
H	-1.597319	1.250853	0.620013
H	-0.044794	2.124573	0.396486
H	-0.284016	1.070626	1.810735
N	-0.563979	-1.186928	0.519632
H	-1.572615	-1.026185	0.618034
H	-0.432088	-1.971908	-0.107828
C	0.334191	1.440271	-2.071712
N	0.772121	2.449321	-2.484346
N	-1.52918	-0.081437	-2.186187
O	-1.809774	-1.267518	-2.334622
O	-2.190701	0.885197	-2.533586
Br	-3.929512	0.0	0.0
