17

C	0.0	0.0	0.0
C	-0.344777	-0.046142	-1.536409
Cl	1.846358	0.0	0.0
H	0.567464	0.162655	-2.100194
C	-0.454101	1.317695	0.59728
H	-0.083544	1.383918	1.622414
H	-0.066241	2.163518	0.029328
H	-1.550233	1.322382	0.585594
N	-0.541749	-1.072527	0.696774
H	-0.927111	-0.869969	1.601793
H	-0.109698	-1.971114	0.579239
C	-1.328831	0.923413	-2.007728
N	-1.888151	1.798734	-2.558224
N	-0.69616	-1.442378	-1.993529
O	-1.657736	-1.594378	-2.729074
O	0.090257	-2.317227	-1.639588
Br	-3.846507	0.0	0.0
