15

C	0.0	0.0	0.0
C	-0.409208	0.136358	-1.493874
Cl	1.762525	0.0	0.0
H	0.501107	-0.06174	-2.067749
H	-0.390375	0.791931	0.631188
N	-0.381733	-1.295744	0.668711
O	-0.352872	-2.309466	-0.017804
O	-0.574027	-1.234072	1.87656
C	-0.823423	1.584375	-1.768688
H	-1.754772	1.788084	-1.241928
H	-0.972839	1.728856	-2.840444
H	-0.033538	2.264671	-1.434541
C	-1.352083	-0.828289	-2.072684
N	-1.865345	-1.570378	-2.82771
Br	-3.345972	0.0	0.0
