15

C	0.0	0.0	0.0
C	-0.409293	0.153731	-1.493236
Cl	1.762385	0.0	0.0
H	0.506255	-0.022728	-2.066344
H	-0.390351	0.788003	0.636947
N	-0.387521	-1.299048	0.657466
O	-0.594619	-1.240736	1.863696
O	-0.35208	-2.309427	-0.033421
C	-0.852571	1.597343	-1.752146
H	-0.108862	2.294102	-1.353797
H	-0.942953	1.768162	-2.825911
H	-1.818188	1.753034	-1.272711
C	-1.337786	-0.81542	-2.085918
N	-1.888707	-1.558723	-2.811761
Br	-3.401576	0.0	0.0
