15

C	0.0	0.0	0.0
C	-0.408707	0.080449	-1.497595
Cl	1.762502	0.0	0.0
H	0.500887	-0.140003	-2.063772
H	-0.398194	0.810164	0.602459
N	-0.374988	-1.275965	0.712416
O	-0.339444	-2.312146	0.060471
O	-0.568368	-1.174376	1.917258
C	-0.820408	1.517879	-1.826603
H	-0.981469	1.620018	-2.902317
H	-1.746856	1.747282	-1.300982
H	-0.027213	2.209539	-1.52617
C	-1.355081	-0.90212	-2.038808
N	-1.876192	-1.669018	-2.762884
Br	-3.352152	0.0	0.0
