16

C	-0.23747	0.00802	-1.511259
C	0.0	0.0	0.0
Cl	-2.007972	0.203542	-1.925931
H	1.101077	0.0	0.0
H	0.002111	-0.978626	-1.924344
N	0.498517	1.098144	-2.09389
H	0.547874	0.990384	-3.099034
H	1.448913	1.049075	-1.724393
C	-0.540593	-1.243845	0.672796
H	-0.231726	-1.239949	1.718773
H	-1.634755	-1.269616	0.631354
H	-0.152389	-2.149204	0.198297
N	-0.456699	1.197803	0.689986
H	-1.430666	1.35904	0.447714
H	0.067961	1.988251	0.330983
Br	3.608759	0.0	0.0
