16

C	-0.402734	-0.029565	-1.475038
C	0.0	0.0	0.0
Cl	-0.240953	1.629676	-2.198542
H	1.096394	0.0	0.0
H	-1.465822	-0.272804	-1.583914
N	0.392207	-0.926251	-2.274262
H	0.102653	-1.881712	-2.107743
H	1.369579	-0.831309	-1.996727
C	-0.459225	-1.293108	0.660621
H	-0.096118	-1.326778	1.691916
H	-0.050927	-2.169766	0.155426
H	-1.553214	-1.34789	0.675286
N	-0.607924	1.122785	0.719107
H	-0.191046	1.978445	0.371388
H	-0.315976	1.042907	1.686915
Br	3.658822	0.0	0.0
