16

C	-0.535935	0.017452	-1.429559
C	0.0	0.0	0.0
Cl	0.093829	1.44175	-2.332498
H	1.094714	0.0	0.0
H	-1.622722	0.207337	-1.37691
N	-0.184665	-1.165054	-2.182657
H	-0.534766	-1.085532	-3.129311
H	-0.612595	-1.973264	-1.747805
C	-0.47378	-1.264412	0.710488
H	-1.566755	-1.372019	0.665923
H	-0.001975	-2.157723	0.296003
H	-0.182549	-1.186722	1.757702
N	-0.43122	1.168275	0.76813
H	0.138488	1.959565	0.495181
H	-1.398035	1.393182	0.550173
Br	3.767554	0.0	0.0
