16

C	-0.526522	0.018563	-1.43669
C	0.0	0.0	0.0
Cl	0.047193	-1.415297	-2.343638
H	1.10007	0.0	0.0
H	-0.08987	0.878056	-1.952242
N	-1.973881	0.09506	-1.563212
H	-2.25129	0.798963	-0.881819
H	-2.365452	-0.788883	-1.254664
C	-0.509051	-1.167114	0.824379
H	-0.029468	-1.153133	1.806808
H	-1.592931	-1.109472	0.969372
H	-0.25725	-2.117354	0.352732
N	-0.497413	1.263984	0.59724
H	0.162635	1.99229	0.337484
H	-0.414878	1.181342	1.605485
Br	3.681187	0.0	0.0
