16

C	-0.377517	-0.029419	-1.473838
C	0.0	0.0	0.0
Cl	-2.294862	-0.208218	-1.593434
H	1.096553	0.0	0.0
H	-0.051465	-0.951886	-1.951444
N	0.070343	1.084479	-2.180037
H	-0.191648	1.08481	-3.15367
H	-0.183902	1.950822	-1.730341
C	-0.470684	-1.235339	0.749897
H	0.028917	-1.253502	1.719334
H	-1.551434	-1.22024	0.908204
H	-0.207285	-2.148633	0.208079
N	-0.42776	1.207595	0.696683
H	0.232494	1.958361	0.545304
H	-1.359583	1.488941	0.415527
Br	3.653816	0.0	0.0
