16

C	-0.471435	-0.028915	-1.44644
C	0.0	0.0	0.0
Cl	-0.041042	1.535318	-2.253313
H	1.104399	0.0	0.0
H	-1.56432	-0.067333	-1.479472
N	0.079602	-1.098992	-2.239491
H	1.068338	-1.188007	-2.020078
H	-0.387764	-1.962013	-1.996476
C	-0.472145	-1.26409	0.708089
H	-0.173392	-1.224344	1.759284
H	-1.563904	-1.349495	0.66611
H	-0.011654	-2.157313	0.28376
N	-0.572672	1.156392	0.702466
H	-0.208005	1.129383	1.649416
H	-0.17449	1.991771	0.285986
Br	3.668955	0.0	0.0
