16

C	-0.239281	-0.025553	-1.511075
C	0.0	0.0	0.0
Cl	-2.019549	0.125563	-1.882915
H	1.099494	0.0	0.0
H	0.047967	-1.003269	-1.903694
N	0.47309	0.982445	-2.256935
H	0.302091	1.879006	-1.812259
H	1.464933	0.78154	-2.123161
C	-0.552591	-1.217528	0.713415
H	-0.220614	-2.14255	0.232206
H	-0.195848	-1.214789	1.744256
H	-1.646733	-1.20071	0.72333
N	-0.430696	1.225917	0.665129
H	0.271957	1.944537	0.556138
H	-1.311358	1.554236	0.286588
Br	3.595388	0.0	0.0
