14

C	-0.383548	-0.054023	-1.481028
C	0.0	0.0	0.0
Cl	-0.09471	1.620512	-2.190417
H	1.091977	0.0	0.0
H	-1.45255	-0.214158	-1.612086
N	0.380541	-1.087323	-2.053269
H	1.371596	-0.96428	-1.84846
H	0.22985	-1.175054	-3.048561
N	-0.496259	-1.290975	0.608494
O	-1.718215	-1.447976	0.611093
O	0.33365	-2.081947	1.033631
C	-0.587454	1.1023	0.74027
N	-1.069203	1.971993	1.365269
Br	3.400279	0.0	0.0
