14

C	-0.389153	-0.139055	-1.47189
C	0.0	0.0	0.0
Cl	-0.103855	1.493687	-2.275689
H	1.090945	0.0	0.0
H	-1.457037	-0.310481	-1.590917
N	0.373471	-1.204697	-1.986757
H	0.20292	-1.364036	-2.97047
H	1.368656	-1.06161	-1.81112
N	-0.494756	-1.249269	0.692772
O	-1.701369	-1.472317	0.602186
O	0.321585	-1.937177	1.286622
C	-0.584804	1.141625	0.680605
N	-1.065108	2.044488	1.257442
Br	3.40122	0.0	0.0
