14

C	-0.52114	0.021652	-1.441228
C	0.0	0.0	0.0
Cl	0.236574	-1.281232	-2.406813
H	1.090296	0.0	0.0
H	-0.123517	0.942545	-1.879511
N	-1.948468	-0.114409	-1.482986
H	-2.33232	0.305333	-2.317298
H	-2.391098	0.271855	-0.660471
N	-0.512333	-1.218982	0.712703
O	0.160367	-2.235087	0.621932
O	-1.590303	-1.115214	1.301894
C	-0.492535	1.1897	0.686812
N	-0.873182	2.181202	1.188552
Br	3.371833	0.0	0.0
