14

C	-0.500348	0.009316	-1.467717
C	0.0	0.0	0.0
Cl	-0.114269	-1.580627	-2.18192
H	1.091023	0.0	0.0
H	0.133045	0.736741	-1.979763
N	-1.880488	0.323298	-1.70454
H	-2.462677	-0.231944	-1.088027
H	-2.038447	1.302507	-1.495578
N	-0.544355	-1.192573	0.726395
O	-1.772454	-1.234733	0.85415
O	0.240875	-2.047913	1.106433
C	-0.493454	1.201003	0.661679
N	-0.898291	2.200647	1.12745
Br	3.387081	0.0	0.0
