14

C	-0.385413	-0.066192	-1.48003
C	0.0	0.0	0.0
Cl	-0.100968	1.604206	-2.20152
H	1.091975	0.0	0.0
H	-1.45339	-0.230727	-1.612699
N	0.382092	-1.102266	-2.044343
H	0.231227	-1.197673	-3.038496
H	1.373455	-0.973941	-1.84254
N	-0.496743	-1.285934	0.616896
O	-1.718366	-1.443508	0.616907
O	0.330842	-2.074357	1.049782
C	-0.589613	1.10613	0.732132
N	-1.072532	1.98073	1.348915
Br	3.402863	0.0	0.0
