14

C	-0.489602	0.017978	-1.449491
C	0.0	0.0	0.0
Cl	0.088441	-1.542922	-2.216689
H	1.09055	0.0	0.0
H	0.089719	0.786677	-1.96247
N	-1.876658	0.260166	-1.591858
H	-2.407542	-0.446205	-1.099815
H	-2.14093	0.274923	-2.568002
N	-0.470463	-1.247065	0.711932
O	0.357611	-1.896028	1.330803
O	-1.670281	-1.521815	0.618149
C	-0.512856	1.146944	0.737771
N	-0.916565	2.079464	1.326145
Br	3.388618	0.0	0.0
