14

C	-0.483621	0.014576	-1.449667
C	0.0	0.0	0.0
Cl	0.069064	-1.561107	-2.206613
H	1.090592	0.0	0.0
H	0.111444	0.771519	-1.962805
N	-1.866495	0.282526	-1.59824
H	-2.124688	0.304179	-2.575459
H	-2.414333	-0.413039	-1.108367
N	-0.485046	-1.23446	0.722353
O	-1.688635	-1.491888	0.63078
O	0.333607	-1.883028	1.355621
C	-0.506211	1.155541	0.731543
N	-0.899731	2.082643	1.335521
Br	3.394557	0.0	0.0
