14

C	-0.382524	-0.069027	-1.48022
C	0.0	0.0	0.0
Cl	-0.110839	1.604809	-2.201215
H	1.091951	0.0	0.0
H	-1.449026	-0.24297	-1.613464
N	0.394701	-1.098412	-2.043111
H	0.234297	-1.207805	-3.034523
H	1.386684	-0.959772	-1.849729
N	-0.494436	-1.284086	0.623871
O	0.329716	-2.03631	1.122654
O	-1.710275	-1.472889	0.572003
C	-0.587983	1.107089	0.733141
N	-1.063946	1.987026	1.348312
Br	3.40272	0.0	0.0
