18

C	-0.270661	0.106355	-1.495517
C	0.0	0.0	0.0
Cl	-1.991572	0.486496	-1.904056
H	1.094769	0.0	0.0
C	0.658656	1.125931	-2.11959
H	0.324374	2.126115	-1.844151
H	1.651341	0.929719	-1.697915
H	0.656727	1.041224	-3.206291
N	0.008301	-1.268042	-2.119563
O	-0.82495	-2.150368	-1.944479
O	1.073201	-1.400143	-2.715803
C	-0.591447	-1.15169	0.650134
N	-1.058006	-2.03384	1.273389
C	-0.369062	1.275524	0.762611
H	0.227684	2.108057	0.388549
H	-0.097755	1.13408	1.810733
H	-1.432927	1.520028	0.699643
F	2.572677	0.0	0.0
