18

C	-0.279871	0.118862	-1.490316
C	0.0	0.0	0.0
Cl	-2.013718	0.448171	-1.883455
H	1.094801	0.0	0.0
C	0.611013	1.176303	-2.103742
H	1.612466	1.001113	-1.692483
H	0.605985	1.108504	-3.191894
H	0.247711	2.161394	-1.810841
N	0.038446	-1.235828	-2.138769
O	-0.755269	-2.152455	-1.952487
O	1.087175	-1.317981	-2.77064
C	-0.587604	-1.158749	0.641172
N	-1.059704	-2.042793	1.257858
C	-0.370059	1.266322	0.777382
H	0.23392	2.101315	0.420124
H	-0.10846	1.109083	1.825838
H	-1.432895	1.516079	0.709393
F	2.567745	0.0	0.0
