18

C	-0.236256	0.044259	-1.514796
C	0.0	0.0	0.0
Cl	0.034228	1.693827	-2.144077
H	1.097147	0.0	0.0
C	0.722456	-0.899757	-2.202949
H	0.488385	-1.927379	-1.919956
H	1.708366	-0.638308	-1.798455
H	0.67012	-0.803719	-3.28787
N	-1.694433	-0.274227	-1.857072
O	-2.557212	0.443022	-1.352771
O	-1.916579	-1.247007	-2.577496
C	-0.465277	-1.28692	0.48825
N	-0.844723	-2.319009	0.907679
C	-0.523876	1.141877	0.862697
H	-0.241559	0.937905	1.899019
H	-1.606942	1.263396	0.800839
H	-0.032838	2.068123	0.567039
F	2.590889	0.0	0.0
