18

C	-0.302115	-0.004259	-1.475761
C	0.0	0.0	0.0
Cl	-2.08331	-0.042911	-1.851144
H	1.106655	0.0	0.0
C	0.351209	1.170917	-2.161947
H	-0.139216	2.0922	-1.851303
H	0.27843	1.073987	-3.242245
H	1.394257	1.160843	-1.828021
N	0.229774	-1.292563	-2.125092
O	0.289626	-2.298015	-1.430345
O	0.51991	-1.240101	-3.317188
C	-0.579219	-1.093457	0.757667
N	-1.058098	-1.890151	1.478243
C	-0.374058	1.323408	0.677722
H	0.279003	2.117832	0.316109
H	-1.423533	1.600883	0.53369
H	-0.186	1.219972	1.747992
F	2.549887	0.0	0.0
