17

C	-0.541321	-0.00986	-1.41216
C	0.0	0.0	0.0
F	-0.128065	-1.119365	-2.100455
H	1.094696	0.0	0.0
N	-1.952461	0.055896	-1.443509
H	-2.211346	0.778969	-0.777935
H	-2.281484	0.267497	-2.377108
N	0.045112	1.152484	-2.254329
O	0.751519	1.995144	-1.716146
O	-0.29961	1.164739	-3.439356
N	-0.424681	-1.211532	0.692766
H	-1.214127	-1.645452	0.228484
H	0.36301	-1.846779	0.666775
N	-0.582334	1.182592	0.673778
H	-0.740027	0.877398	1.627465
H	0.15445	1.880275	0.698066
F	2.650259	0.0	0.0
