17

C	-0.622157	-0.086207	-1.376855
C	0.0	0.0	0.0
F	-2.034374	-0.286329	-1.266608
H	1.096433	0.0	0.0
N	-0.305271	1.029708	-2.138466
H	-0.889144	1.118697	-2.956165
H	-0.325496	1.83075	-1.518092
N	-0.265408	-1.317434	-2.206263
O	0.189038	-2.308033	-1.647245
O	-0.529261	-1.245377	-3.405264
N	-0.50522	-1.043939	0.912742
H	0.30394	-1.271797	1.483729
H	-0.680898	-1.887227	0.381819
N	-0.347079	1.327858	0.533095
H	0.458728	1.62023	1.071818
H	-1.133216	1.202395	1.161194
F	2.640143	0.0	0.0
