17

C	-0.53241	0.013162	-1.41752
C	0.0	0.0	0.0
F	0.048021	-1.044081	-2.137042
H	1.094324	0.0	0.0
N	-1.934601	-0.028306	-1.461428
H	-2.274107	-0.050563	-2.413139
H	-2.214874	-0.84191	-0.926328
N	-0.051641	1.235485	-2.189756
O	1.126158	1.535236	-2.074001
O	-0.863763	1.782686	-2.942206
N	-0.544665	-1.252617	0.604712
H	-0.368378	-1.162502	1.600426
H	0.080631	-1.992421	0.292429
N	-0.482456	1.196281	0.641691
H	0.100439	1.405862	1.442033
H	-1.457406	1.109527	0.908304
F	2.663992	0.0	0.0
