17

C	-0.509284	0.005244	-1.423467
C	0.0	0.0	0.0
F	-1.932929	-0.011161	-1.374721
H	1.09027	0.0	0.0
N	-0.033897	1.083959	-2.181574
H	-0.647769	1.257286	-2.980097
H	0.036179	1.883822	-1.549902
N	-0.107925	-1.307585	-2.122469
O	-0.955648	-1.87544	-2.82148
O	1.09311	-1.537559	-2.162985
N	-0.47981	-1.219689	0.631547
H	-1.473979	-1.148688	0.881128
H	0.078562	-1.388886	1.469305
N	-0.423422	1.279924	0.581303
H	-1.374105	1.20174	0.951528
H	0.216094	1.488345	1.349367
F	2.637038	0.0	0.0
