17

C	-0.685091	0.041168	-1.340147
C	0.0	0.0	0.0
F	-2.070666	0.122799	-1.12748
H	1.090317	0.0	0.0
N	-0.23626	1.076298	-2.176324
H	0.065969	1.83005	-1.569688
H	-0.984973	1.384133	-2.780478
N	-0.501425	-1.283877	-2.079122
O	-1.495974	-1.833847	-2.549412
O	0.649477	-1.671163	-2.189788
N	-0.432649	-1.204712	0.689434
H	-1.30069	-1.064212	1.192754
H	0.29976	-1.464485	1.336902
N	-0.296338	1.292491	0.640986
H	0.485104	1.485804	1.255369
H	-1.151736	1.255029	1.183393
F	2.613834	0.0	0.0
