17

C	-0.165129	0.055967	-1.526734
C	0.0	0.0	0.0
F	-0.354337	1.376217	-1.931672
H	1.105699	0.0	0.0
N	0.936675	-0.503662	-2.205238
H	1.756552	-0.427148	-1.574771
H	0.742983	-1.464823	-2.450497
N	-1.467212	-0.625281	-1.944487
O	-2.496199	-0.095983	-1.53032
O	-1.429185	-1.644281	-2.623492
N	-0.447244	-1.333513	0.434992
H	0.376133	-1.817101	0.769162
H	-1.041148	-1.184697	1.240209
N	-0.611507	1.065756	0.759504
H	0.021071	1.855901	0.752064
H	-1.469339	1.354176	0.304404
F	2.710986	0.0	0.0
