13

C	-0.556779	-0.00927	-1.406967
C	0.0	0.0	0.0
Cl	-0.03404	1.567428	-2.181993
H	1.088985	0.0	0.0
H	-0.071371	-0.784769	-1.994632
H	-0.388783	0.833398	0.584312
N	-1.965596	-0.197701	-1.410571
H	-2.430742	0.560157	-0.926131
H	-2.326536	-0.254358	-2.353458
N	-0.451172	-1.243292	0.677966
O	-0.185474	-2.306786	0.126886
O	-1.056443	-1.13177	1.744264
Br	3.51751	0.0	0.0
