13

C	-0.530564	0.021942	-1.418424
C	0.0	0.0	0.0
Cl	-0.185173	1.64738	-2.083323
H	1.091015	0.0	0.0
H	0.048617	-0.669925	-2.035917
H	-0.39652	0.824046	0.58982
N	-1.968877	-0.183493	-1.457328
H	-2.292053	-0.041541	-2.407133
H	-2.134125	-1.156794	-1.222771
N	-0.412477	-1.249268	0.6923
O	-0.564691	-2.266129	0.007342
O	-0.539232	-1.207779	1.911606
Br	3.493933	0.0	0.0
