13

C	-0.442202	0.24622	-1.44486
C	0.0	0.0	0.0
Cl	-0.616971	-1.377178	-2.219004
H	1.088682	0.0	0.0
H	-1.436391	0.695585	-1.479468
H	-0.400878	-0.899468	0.459582
N	0.457741	1.047651	-2.227111
H	0.39472	1.993035	-1.865117
H	1.409788	0.729168	-2.051345
N	-0.424362	1.130736	0.86571
O	-0.507275	2.252685	0.358186
O	-0.648764	0.88609	2.049086
Br	3.475989	0.0	0.0
