13

C	-0.424501	0.071966	-1.455347
C	0.0	0.0	0.0
Cl	-0.290774	-1.664856	-2.128088
H	1.088962	0.0	0.0
H	-1.483512	0.292022	-1.57453
H	-0.431634	-0.852013	0.519912
N	0.383598	1.019831	-2.102484
H	0.216466	1.078431	-3.096616
H	1.371269	0.869929	-1.904558
N	-0.518172	1.222143	0.681598
O	-1.746852	1.348255	0.704659
O	0.277081	2.010898	1.177638
Br	3.552379	0.0	0.0
