13

C	-0.5814	-0.011429	-1.40516
C	0.0	0.0	0.0
Cl	0.057391	1.399202	-2.3563
H	1.086706	0.0	0.0
H	-0.137531	-0.87375	-1.907339
H	-0.367721	-0.889405	0.514891
N	-2.005974	-0.03406	-1.417026
H	-2.403677	-0.722441	-2.033157
H	-2.421297	-0.031479	-0.49868
N	-0.535838	1.147194	0.775517
O	0.097423	2.194148	0.801714
O	-1.631257	0.971218	1.331511
Br	3.54323	0.0	0.0
