13

C	-0.372846	-0.060005	-1.459426
C	0.0	0.0	0.0
Cl	-2.162024	-0.327281	-1.65866
H	1.092787	0.0	0.0
H	-0.20736	0.916524	-1.917525
H	-0.38887	-0.847919	0.557671
N	0.345302	-1.158451	-2.043525
H	0.324939	-1.088714	-3.05303
H	1.316061	-1.10855	-1.735096
N	-0.488184	1.228785	0.660022
O	-0.891917	1.123979	1.81783
O	-0.434415	2.28333	0.028993
Br	3.45852	0.0	0.0
