17

C	0.0	0.0	0.0
C	-0.254519	0.134798	-1.563824
Br	1.93267	0.0	0.0
H	0.675425	-0.243254	-2.002555
N	-0.206937	1.614742	0.702993
O	0.61497	2.477785	0.369225
O	-1.061648	1.817173	1.566724
N	-0.504114	-0.989273	0.774548
H	-1.511001	-1.140271	0.585385
H	0.1275	-1.75319	0.962107
C	-0.385196	1.555668	-2.121155
H	0.522179	2.12246	-1.897187
H	-0.495707	1.491383	-3.205257
H	-1.25298	2.062529	-1.692704
C	-1.225862	-0.781566	-2.171946
N	-1.863143	-1.613742	-2.706569
Cl	-3.050363	0.0	0.0
