17

C	0.0	0.0	0.0
C	-0.272148	0.422313	-1.478426
Br	2.013514	0.0	0.0
H	0.304378	-0.335296	-2.026434
N	-0.301268	1.062067	1.075657
O	-0.41223	0.63899	2.215734
O	-0.344659	2.227416	0.737196
N	-0.525344	-1.227257	0.367464
H	-1.024394	-1.177902	1.251703
H	-1.150566	-1.583272	-0.331177
C	0.23135	1.799787	-1.953643
H	-0.398017	2.603345	-1.583824
H	1.259381	1.984275	-1.651906
H	0.173751	1.807571	-3.042754
C	-1.615056	0.303254	-2.060346
N	-2.399913	0.260562	-2.938439
Cl	-3.647762	0.0	0.0
