17

C	0.0	0.0	0.0
C	-0.546235	0.351166	-1.398738
Br	1.930717	0.0	0.0
H	-1.587335	0.649107	-1.203207
N	-0.344204	1.188169	0.957166
O	-0.31758	0.958603	2.15521
O	-0.549768	2.273796	0.428507
N	-0.517689	-1.164584	0.599991
H	-0.21921	-1.9847	0.087454
H	-1.544084	-1.075746	0.571994
C	-0.572971	-0.882491	-2.304625
H	0.411223	-1.356172	-2.366112
H	-1.313656	-1.586621	-1.92741
H	-0.875992	-0.588385	-3.311666
C	0.157695	1.438464	-2.071824
N	0.711035	2.252609	-2.71325
Cl	-3.483695	0.0	0.0
