17

C	-0.399843	0.037018	-1.491353
C	0.0	0.0	0.0
Br	0.034932	1.807959	-2.237111
H	1.110096	0.0	0.0
C	0.389564	-1.003586	-2.285013
H	0.200992	-0.888959	-3.353365
H	0.086465	-2.009355	-1.984438
H	1.452062	-0.863768	-2.068931
C	-1.840844	-0.142868	-1.665716
N	-2.991701	-0.348039	-1.795921
C	-0.448023	-1.2993	0.684232
H	-1.533208	-1.430492	0.649413
H	0.042672	-2.157394	0.224229
H	-0.130697	-1.266502	1.727975
C	-0.531211	1.140738	0.736994
N	-0.99044	2.012785	1.377
Cl	3.314206	0.0	0.0
