17

C	-0.52102	-0.209979	-1.440522
C	0.0	0.0	0.0
Br	0.207954	-1.892999	-2.159504
H	1.107654	0.0	0.0
C	-2.044626	-0.279223	-1.529533
H	-2.415159	-1.131385	-0.959544
H	-2.359228	-0.389781	-2.568129
H	-2.471125	0.642536	-1.123723
C	-0.037681	0.855233	-2.319172
N	0.264616	1.730578	-3.043363
C	-0.457332	-1.064241	1.000201
H	-0.172444	-2.054707	0.644926
H	0.065971	-0.887966	1.941781
H	-1.533371	-1.035213	1.18803
C	-0.456886	1.31768	0.442826
N	-0.862507	2.359321	0.807333
Cl	3.271418	0.0	0.0
