17

C	-0.40013	0.083442	-1.489294
C	0.0	0.0	0.0
Br	0.057682	1.87015	-2.182369
H	1.094621	0.0	0.0
C	0.376906	-0.943306	-2.312127
H	1.440584	-0.82405	-2.088966
H	0.059201	-1.953356	-2.043401
H	0.193144	-0.79285	-3.376616
C	-1.843434	-0.070098	-1.669188
N	-2.998566	-0.241628	-1.807925
C	-0.451817	-1.317867	0.64505
H	-1.537524	-1.444921	0.604038
H	-0.136518	-1.315723	1.690077
H	0.038445	-2.16294	0.160795
C	-0.534372	1.117766	0.769846
N	-1.001201	1.966099	1.435411
Cl	3.308112	0.0	0.0
