17

C	-0.347132	0.076777	-1.496824
C	0.0	0.0	0.0
Br	-2.308122	0.311052	-1.761197
H	1.108724	0.0	0.0
C	0.384353	1.231834	-2.168981
H	0.180964	1.24913	-3.240976
H	1.4554	1.09596	-1.983363
H	0.061924	2.175866	-1.72566
C	-0.026492	-1.189953	-2.15257
N	0.21087	-2.202801	-2.700537
C	-0.503285	-1.246548	0.720171
H	-0.164071	-1.219468	1.757271
H	-0.078052	-2.136581	0.252796
H	-1.594221	-1.310073	0.702641
C	-0.449171	1.214884	0.672556
N	-0.827117	2.175582	1.234158
Cl	3.281526	0.0	0.0
