17

C	-0.347657	0.210496	-1.482785
C	0.0	0.0	0.0
Br	-2.313619	0.429797	-1.72792
H	1.107524	0.0	0.0
C	0.359728	1.43839	-2.042031
H	0.158587	1.549637	-3.108591
H	1.432643	1.308191	-1.865849
H	0.014868	2.330198	-1.515146
C	0.000283	-0.981256	-2.255517
N	0.263548	-1.926517	-2.903505
C	-0.497301	-1.309377	0.603838
H	-1.588215	-1.372199	0.591357
H	-0.076488	-2.150945	0.05029
H	-0.147064	-1.380208	1.635207
C	-0.452113	1.147501	0.779663
N	-0.826733	2.05447	1.426625
Cl	3.275662	0.0	0.0
