17

C	-0.512478	-0.102183	-1.457191
C	0.0	0.0	0.0
Br	0.301638	-1.671211	-2.324204
H	1.106506	0.0	0.0
C	-2.029591	-0.246084	-1.561284
H	-2.506859	0.603055	-1.06528
H	-2.335694	-0.265384	-2.607606
H	-2.351922	-1.172923	-1.086331
C	-0.090001	1.069221	-2.224443
N	0.156661	2.041025	-2.837121
C	-0.440172	-1.156415	0.901614
H	-1.519298	-1.175936	1.070794
H	-0.115969	-2.104914	0.472353
H	0.061444	-1.041209	1.864453
C	-0.498243	1.258403	0.552325
N	-0.984012	2.230962	0.999564
Cl	3.285563	0.0	0.0
