12
Coordinates from ORCA-job run
  C   -0.45753510780097      0.25655950230615      0.16885717893485
  C   1.06722385769436      0.08387592858317      0.11120379393296
  Br  -1.04879884263586      0.17939473402016      2.03352593513923
  H   1.38650699651487      0.19633661179739     -0.93189700960386
  H   1.54971191872367      0.87535758136147      0.68953126836721
  N   -1.09610589770519     -0.81712494561375     -0.54467135512225
  H   -2.10507780634941     -0.74194048181013     -0.49029634124856
  H   -0.81665124862612     -0.80329971410673     -1.52069780675594
  C   -0.79193459574922      1.60405769249543     -0.32380897580225
  N   -1.05566401702956      2.65040785005601     -0.79203574089778
  C   1.49160068098035     -1.22253168622528      0.60570048502964
  N   1.87772406198308     -2.26009307286390      0.99358856802675
