12
Coordinates from ORCA-job run
  C   -0.48468028130749      0.22192509973130      0.14412500697495
  C   1.04698994810165      0.12686367777625      0.20276632427794
  Br  -1.21796144534153     -0.00359770388053      1.94538119735357
  H   1.43907872406106      0.90220373018366      0.86520658963709
  H   1.44173930678097      0.32101696378059     -0.80177828767083
  N   -1.00621816441877     -0.83343461935338     -0.68283983601350
  H   -2.01900045112116     -0.81406204307548     -0.70411251321968
  H   -0.65441987049591     -0.74185621482336     -1.63085373851594
  C   -0.84789773809485      1.58152170424287     -0.29132208199748
  N   -1.10734999683004      2.65130088215057     -0.70601420792632
  C   1.49927963828299     -1.18653673452655      0.65179912899602
  N   1.90944033038307     -2.22634474220594      1.00764241810418
