16

C	0.0	0.0	0.0
C	-0.667365	-0.172451	-1.352452
Br	1.916293	0.0	0.0
H	-1.806421	-0.188831	-1.002466
N	-0.405286	1.264151	0.517945
H	-0.121381	1.306484	1.490941
H	-1.429821	1.263071	0.497451
N	-0.585262	-1.157249	0.782636
O	-1.71268	-0.793603	1.309109
O	-0.289705	-2.318744	0.43109
C	-0.264211	-1.332347	-2.110753
N	-0.015519	-2.275261	-2.768605
N	-0.551145	1.047861	-2.198383
O	0.362606	1.083522	-3.025831
O	-1.377906	1.939757	-2.013728
H	-2.772436	0.0	0.0
