16

C	0.0	0.0	0.0
C	-0.644879	-0.011996	-1.380242
Br	1.914057	0.0	0.0
H	-1.769102	-0.136075	-1.066339
N	-0.592227	1.028498	0.720035
H	-0.324883	0.963444	1.696496
H	-1.64016	0.824998	0.614205
N	-0.332593	-1.414442	0.651362
O	-0.176471	-1.470693	1.865191
O	-0.728907	-2.321583	-0.067445
C	-0.136296	-0.974392	-2.331788
N	0.210861	-1.775194	-3.120389
N	-0.510496	1.358313	-1.993487
O	0.599961	1.67287	-2.420144
O	-1.516608	2.055651	-2.045568
H	-2.849477	0.0	0.0
