15

C	-0.278723	0.106451	-1.489774
C	0.0	0.0	0.0
Cl	-2.031632	-0.119884	-1.894482
H	1.098841	0.0	0.0
H	-0.075162	1.153014	-1.726536
C	0.616085	-0.770303	-2.347468
H	0.298666	-1.809552	-2.313071
H	1.619859	-0.677129	-1.918247
H	0.600321	-0.418597	-3.382405
N	-0.421756	-1.271053	0.626653
O	-0.364891	-2.290494	-0.058468
O	-0.737177	-1.247509	1.816352
C	-0.539345	1.122547	0.7393
N	-0.940278	2.085858	1.278704
F	2.497074	0.0	0.0
