15

C	-0.45211	-0.084166	-1.452449
C	0.0	0.0	0.0
Cl	0.202714	1.342854	-2.321176
H	1.099527	0.0	0.0
H	0.04162	-0.949211	-1.890637
C	-1.955741	-0.128521	-1.645475
H	-2.364892	-1.006354	-1.140204
H	-2.414703	0.772524	-1.232676
H	-2.207656	-0.189273	-2.706768
N	-0.366959	-1.231276	0.729117
O	-0.505783	-1.166641	1.95006
O	-0.43157	-2.278829	0.077797
C	-0.53102	1.154369	0.691379
N	-0.951707	2.126042	1.20325
F	2.445235	0.0	0.0
