15

C	-0.379311	0.081317	-1.472403
C	0.0	0.0	0.0
Cl	0.317477	-1.321711	-2.35395
H	1.09883	0.0	0.0
H	-1.457683	0.022242	-1.633304
C	0.253367	1.343729	-2.038335
H	-0.225104	2.232988	-1.620109
H	0.157964	1.368866	-3.125346
H	1.307864	1.328551	-1.75108
N	-0.531948	-1.194342	0.709723
O	-1.307282	-1.945849	0.114743
O	-0.158764	-1.347889	1.870389
C	-0.472042	1.165154	0.723153
N	-0.852172	2.131511	1.276457
F	2.48616	0.0	0.0
