15

C	-0.361824	0.140239	-1.478468
C	0.0	0.0	0.0
Cl	0.102671	-1.376577	-2.322352
H	1.092039	0.0	0.0
H	-1.43567	0.247226	-1.639213
C	0.468644	1.284718	-2.036765
H	1.499896	1.116486	-1.712586
H	0.114023	2.235525	-1.627655
H	0.399038	1.323008	-3.125004
N	-0.602356	-1.226517	0.609859
O	0.064844	-1.832572	1.442087
O	-1.744198	-1.531329	0.258001
C	-0.513724	1.13627	0.742946
N	-0.919081	2.075969	1.323067
F	2.52864	0.0	0.0
