10
Coordinates from ORCA-job run
  C   -0.30215375377257      0.30825503734657      0.25481481709944
  C   1.14126708950811      0.18011195846478     -0.17624008189181
  Br  -1.23265415675733      1.51010158549770     -1.10263755345903
  H   1.61192223993044      1.15826224820509     -0.26591671554396
  H   -0.40514258710447      0.88888551612304      1.16991533693233
  H   1.20883815842416     -0.32102845376446     -1.14431995113919
  H   1.67539965480417     -0.41527620337042      0.56812773923005
  N   -0.92416713662090     -0.94686031619815      0.41365923923620
  H   -1.88496132602956     -0.86704588529829      0.71734171356404
  H   -0.88734818238205     -1.49540548700586     -0.43574454402807
