17

C	0.0	0.0	0.0
C	-0.328023	-0.012384	-1.565805
Br	1.916171	0.0	0.0
H	0.106986	-0.945456	-1.917081
N	-0.735209	1.087605	0.655168
O	-0.662923	1.205353	1.901517
O	-0.917963	2.11723	-0.111129
N	-0.388363	-1.331843	0.614829
O	-0.28476	-2.296688	-0.146775
O	-0.709853	-1.42577	1.78995
N	0.226536	1.079674	-2.338971
H	1.235226	1.009448	-2.355142
H	-0.020288	1.915125	-1.812095
N	-1.770669	-0.088399	-1.751819
H	-2.121485	0.863242	-1.757957
H	-1.950524	-0.498762	-2.665999
H	-1.817492	0.0	0.0
