17

C	0.0	0.0	0.0
C	-0.31078	0.023444	-1.575916
Br	1.916005	0.0	0.0
H	0.044242	1.000333	-1.898622
N	-0.36407	1.332162	0.637582
O	-0.454527	1.397485	1.859507
O	-0.438132	2.302413	-0.122254
N	-0.798498	-1.073002	0.611254
O	-0.900089	-2.107223	-0.181426
O	-0.801412	-1.225019	1.849724
N	-1.745533	-0.032505	-1.809242
H	-2.004233	-1.007504	-1.666396
H	-1.889745	0.186175	-2.790721
N	0.359899	-0.991436	-2.367662
H	1.349205	-0.799808	-2.397759
H	0.218707	-1.861267	-1.857973
H	-1.800888	0.0	0.0
