13
Coordinates from ORCA-job run
  C   -0.59477535072387      0.06036857558957      0.26353970233224
  C   0.76875265409124      0.31413628609213     -0.35875742102187
  Cl  -0.80285797104664      0.97177460954985      1.76216607173357
  H   0.84082289258454     -0.17937392172991     -1.33082723315938
  H   0.93405018927674      1.38164047230601     -0.48322537548393
  N   -1.64901051819840      0.62760645083282     -0.73002593965560
  O   -2.72619066224883      0.05682016414771     -0.76977647209782
  O   -1.30995080884879      1.62775272376553     -1.34651083322024
  C   -0.89121122288381     -1.35074231524813      0.45519003505525
  N   -1.13520385483831     -2.49587754894589      0.56006583829335
  N   1.90275277053776     -0.21193730096542      0.46927960311534
  O   1.65158701243391     -0.92718686429519      1.43263626690047
  O   3.01223486986444      0.12601866890090      0.07624575720863
