13
Coordinates from ORCA-job run
  C   -0.58117450525437     -0.05859905721867      0.29232848987253
  C   0.72977222028876      0.41513806940859     -0.32718272901543
  Cl  -0.71910330530171      0.48244589512423      1.95101628985932
  H   0.76822189798307      1.50385894502131     -0.31996602722447
  H   0.82729463800193      0.02033591505466     -1.33922521573187
  N   -1.67636090845709      0.62447435596572     -0.59637608830943
  O   -1.65700124769766      0.23786378235318     -1.75676523476614
  O   -2.39886159594091      1.46246064749148     -0.09362830903519
  C   -0.81999037558790     -1.49091482975947      0.18624676770685
  N   -1.07164459374039     -2.63506084958288      0.08781312659790
  N   1.90633055385849     -0.06721941137993      0.45645618559113
  O   2.77682090971968      0.76100221125895      0.70063437236642
  O   1.91669631212810     -1.25578567373718      0.75764837208840
