17

C	-0.305028	0.045555	-1.501583
C	0.0	0.0	0.0
Cl	-0.02454	-1.664323	-2.217582
H	1.104108	0.0	0.0
C	-1.71708	0.313917	-1.805413
N	-2.844671	0.538396	-2.050863
N	0.554855	1.005393	-2.078323
H	1.502877	0.847832	-1.71329
H	0.547795	0.965894	-3.08949
N	-0.613648	-1.161695	0.638043
H	-0.574985	-1.002681	1.639467
H	-0.016015	-1.962342	0.460173
C	-0.492436	1.268161	0.675752
H	-1.581875	1.255298	0.786313
H	-0.033712	1.333147	1.667311
H	-0.193622	2.151556	0.112961
H	2.921996	0.0	0.0
