17

C	-0.551391	-0.023138	-1.427998
C	0.0	0.0	0.0
Cl	-0.06976	1.4534	-2.343762
H	1.099022	0.0	0.0
C	0.026607	-1.163778	-2.170366
N	0.364338	-2.110168	-2.781283
N	-1.997036	-0.0904	-1.395651
H	-2.199534	-0.858129	-0.75753
H	-2.353769	-0.324695	-2.315896
N	-0.448483	-1.278105	0.601678
H	0.368348	-1.884975	0.618961
H	-0.69536	-1.110246	1.570164
C	-0.504763	1.179523	0.806027
H	-1.580624	1.116352	0.997487
H	0.038573	1.190704	1.756098
H	-0.29696	2.121801	0.299094
H	2.874875	0.0	0.0
