17

C	-0.417382	0.009109	-1.449472
C	0.0	0.0	0.0
Cl	-2.440328	0.129287	-1.490364
H	1.096313	0.0	0.0
C	-0.077484	1.233077	-2.169832
N	0.187191	2.212999	-2.760158
N	-0.002972	-1.125071	-2.104297
H	-0.36987	-1.251256	-3.034059
H	-0.096244	-1.924082	-1.488782
N	-0.368062	-1.297096	0.559127
H	0.355783	-1.558805	1.222364
H	-1.261583	-1.240009	1.03672
C	-0.460469	1.204958	0.7947
H	0.034376	1.176678	1.769365
H	-1.545084	1.214943	0.936727
H	-0.161795	2.136074	0.304917
H	2.756817	0.0	0.0
