17

C	-0.462807	0.008643	-1.42736
C	0.0	0.0	0.0
Cl	-2.514327	0.129355	-1.386152
H	1.095946	0.0	0.0
C	-0.174747	1.23311	-2.165413
N	0.056953	2.216613	-2.765508
N	-0.088806	-1.124477	-2.10264
H	-0.180655	-1.925835	-1.486365
H	-0.480444	-1.235883	-3.025074
N	-0.332686	-1.304549	0.567742
H	-1.17879	-1.253507	1.122998
H	0.446708	-1.577477	1.159383
C	-0.444459	1.194094	0.818748
H	0.1035	1.176175	1.765964
H	-1.521115	1.180923	1.016254
H	-0.192742	2.132049	0.315238
H	2.720461	0.0	0.0
