17

C	-0.535854	-0.043275	-1.426939
C	0.0	0.0	0.0
Cl	0.225133	1.321428	-2.412128
H	1.09401	0.0	0.0
C	-0.143454	-1.282713	-2.10871
N	0.118022	-2.225035	-2.758035
N	-1.969383	0.04871	-1.462048
H	-2.297002	-0.021072	-2.418997
H	-2.241142	0.956437	-1.104218
N	-0.402155	-1.259765	0.611967
H	0.265795	-1.485058	1.338434
H	-1.332203	-1.19934	1.00348
C	-0.457953	1.2385	0.76167
H	-1.532241	1.224042	0.983671
H	-0.208464	2.160002	0.230614
H	0.081701	1.255487	1.7107
H	2.891121	0.0	0.0
