17

C	-0.207845	0.031131	-1.543611
C	0.0	0.0	0.0
Cl	-0.023678	-1.729496	-2.213784
H	1.098095	0.0	0.0
C	-1.575037	0.377111	-1.95336
N	-2.692644	0.644817	-2.202737
N	0.74845	0.910111	-2.071838
H	1.663442	0.724592	-1.625427
H	0.809493	0.878163	-3.082539
N	-0.517698	-1.137284	0.723854
H	0.081786	-1.931225	0.547345
H	-1.449558	-1.375166	0.407097
C	-0.513961	1.294975	0.606663
H	-0.155513	2.161542	0.049492
H	-0.13959	1.351414	1.630265
H	-1.609847	1.316361	0.637314
H	2.911051	0.0	0.0
