12
Coordinates from ORCA-job run
  C   -0.30018503760917      0.27333062105794      0.48315462645786
  C   1.03435753843821      0.14427142526946     -0.26552781071200
  Br  -0.16859784663214     -0.38173138507962      2.28332121059226
  H   1.79284408581347      0.72366624283310      0.26673134575535
  H   0.90632544141041      0.57183581641993     -1.26406716536188
  C   -0.74394734171733      1.65907174949209      0.49040822387908
  N   -1.06339965959828      2.79075928999490      0.49587433472798
  N   -1.34271452012075     -0.54192556975785     -0.33660661995318
  O   -1.53934798667917     -0.07019794131189     -1.44895469974873
  O   -1.82072069869532     -1.54888638780704      0.14862338419174
  C   1.45450294664194     -1.24926309794565     -0.37424093467422
  N   1.79088307874812     -2.36893076316535     -0.47771589515425
