12
Coordinates from ORCA-job run
  C   -0.36454550744135      0.17648456951911      0.37986944818040
  C   0.72559954319193     -0.62694692325114     -0.34674709220675
  Br  -0.24097788212686     -0.04431149316007      2.28680482522410
  H   0.56115718693204     -0.52343414870700     -1.42497890887938
  H   0.61857994503820     -1.68007045732210     -0.07063488382493
  C   -0.31797458793067      1.58960554301673      0.04381839983018
  N   -0.23030638305803      2.73173568481721     -0.22221181052037
  N   -1.69638481402089     -0.41530374171006     -0.14898441995628
  O   -2.11954207887376      0.11638385790674     -1.16696283139841
  O   -2.13957010853686     -1.39476424688950      0.42359458605252
  C   2.06148556012694     -0.15308000832981     -0.00686266069217
  N   3.14147912669931      0.22470136410987      0.25429534819109
