12
Coordinates from ORCA-job run
  C   -0.31153517108036      0.30480143741552      0.38067865883683
  C   1.06381454547814      0.02079885169720     -0.22464115206254
  Br  -0.41209710166343     -0.28985625446774      2.21799083744311
  H   1.04716200339179      0.31161688989797     -1.27851968352819
  H   1.79129667137819      0.65208933476266      0.29376270142565
  C   -0.61501173062873      1.72709805948249      0.31186956115950
  N   -0.81294535180919      2.88322059265693      0.22696198628592
  N   -1.42350411421632     -0.42051005046810     -0.41730885327513
  O   -1.05492086617968     -1.09371044917998     -1.36977098898443
  O   -2.56389263279045     -0.22867562976231     -0.03150025461639
  C   1.46453477679150     -1.37728016455552     -0.10465546286597
  N   1.82709897132855     -2.48859261747911     -0.00386734981836
