12
Coordinates from ORCA-job run
  C   -0.29945217038096      0.26433227020049      0.48838364662221
  C   1.06175990716336      0.02739139769119     -0.18251159936763
  Br  -0.39057834642845     -0.56789764407584      2.21651239308370
  H   1.84420984383327      0.44623287559396      0.45502434175026
  H   1.06715379039709      0.56036278964223     -1.13753091235996
  C   -0.56097224170387      1.69070088996426      0.60996047101725
  N   -0.73217667891221      2.84958145695466      0.71220636202934
  N   -1.37106480213847     -0.32179729101585     -0.47546415097685
  O   -2.00938419899800     -1.29660996419510     -0.12869772538829
  O   -1.42004097898208      0.27480864335814     -1.54325649455021
  C   1.30674304837693     -1.39353491547455     -0.40806413307872
  N   1.50380282777340     -2.53357050864359     -0.60556219878111
