12
Coordinates from ORCA-job run
  C   -0.39043878010644      0.20870574932099      0.49634968481585
  C   0.91932577396887     -0.57095489397998      0.39121855921938
  Br  -1.17029816327458     -0.06574783818210      2.25053816362667
  H   1.61050017451250     -0.19187412548114      1.14835558395797
  H   0.71815356120543     -1.62414402319259      0.59388032220450
  C   -0.21259231154718      1.63013751169860      0.25468685349234
  N   -0.00528495759106      2.77472299400666      0.08104333951583
  N   -1.40154275891212     -0.35107551630974     -0.52692130916325
  O   -1.33677577839910     -1.55450734590335     -0.72659365622652
  O   -2.19031467161122      0.44777925518614     -1.00710216525670
  C   1.50040011057683     -0.41808171365612     -0.94087815477836
  N   1.95786780117808     -0.28496005350738     -2.01357722140771
