12
Coordinates from ORCA-job run
  C   -0.28490995348173      0.28630910232855      0.48409956181846
  C   1.03240317847160      0.12135942149700     -0.28812890457221
  Br  -0.12770140789679     -0.34198831939369      2.29239891836887
  H   0.89312631522029      0.53713454432078     -1.29013533812738
  H   1.81166930007936      0.69305754116611      0.22174137378500
  C   -0.70486118686221      1.67940841681488      0.47859797802006
  N   -1.00509388004548      2.81627779195158      0.47360954817205
  N   -1.35737283673387     -0.52287498855670     -0.30106176739705
  O   -1.84484773931971     -1.51221533355568      0.21025029299024
  O   -1.56648574708245     -0.06628688996032     -1.41740843299602
  C   1.42239954450847     -1.28167127414301     -0.38516966745063
  N   1.73267441314254     -2.40951001246952     -0.47979356261139
