12
Coordinates from ORCA-job run
  C   -0.34587395808615      0.17557344760338      0.39560053635881
  C   0.70684976571284     -0.62930548829344     -0.38300135904976
  Br  -0.14300731694741     -0.06066740996619      2.29359708570414
  H   0.50031062871759     -0.51266546219942     -1.45248531297256
  H   0.60182521533370     -1.68448368709092     -0.11382440341968
  C   -0.30460221704888      1.59104267529861      0.06822313300980
  N   -0.22760049975124      2.73507366128049     -0.19301748881741
  N   -1.70359958571537     -0.40104261619227     -0.08221015087912
  O   -2.14912743980434     -1.36243341312193      0.51850035059219
  O   -2.14496480683391      0.12205541795570     -1.09694389028999
  C   2.05916397383379     -0.17014426277295     -0.09081451339215
  N   3.15062624058938      0.19699713749893      0.13537601315571
