12
Coordinates from ORCA-job run
  C   -0.32138721838589      0.26438209541174      0.47428046659677
  C   1.05492557656482      0.11823409354623     -0.19148216228652
  Br  -0.32934419691961     -0.46592964474708      2.25056010445648
  H   1.00728052905962      0.59096921856626     -1.17661218171671
  H   1.79512852626264      0.64719668219298      0.41382562932739
  C   -0.71955946590229      1.66339029170119      0.51167109143977
  N   -1.00343882485289      2.80417310801192      0.54206632859751
  N   -1.33353912763304     -0.47999476705263     -0.44409954440028
  O   -1.87455815030787     -1.48833120311859     -0.03381128452923
  O   -1.44150627011966      0.04268210020764     -1.54569386099079
  C   1.43256476199807     -1.28432073599557     -0.33399723472155
  N   1.73243386023611     -2.41145123872410     -0.46470735177284
