12
Coordinates from ORCA-job run
  C   -0.36970663096825      0.21601926398238      0.50736243111889
  C   0.92765639385476     -0.57748184831586      0.36239208178800
  Br  -1.08406765798345     -0.02835782287859      2.29373737648258
  H   1.64873865616417     -0.19696044412139      1.09038539522087
  H   0.72572918891861     -1.62671582695400      0.58290201917338
  C   -0.18738760937656      1.63238652354429      0.23950454868575
  N   0.02389106138065      2.77210435614369      0.04037646060169
  N   -1.42751913121449     -0.34274713473500     -0.46837956162763
  O   -1.35398012517090     -1.54019822273183     -0.69820381412595
  O   -2.25573321394210      0.45197806530852     -0.88437620934647
  C   1.46404368182172     -0.44138944055752     -0.99002845775158
  N   1.89033538651584     -0.31763746868469     -2.07667227021955
