12
Coordinates from ORCA-job run
  C   -0.39256550140205      0.21690302103323      0.49040181687327
  C   0.90801947360259     -0.57991535284978      0.40396487276935
  Br  -1.19332417379277     -0.03650001911172      2.23888481923717
  H   1.59615700361048     -0.20371711017340      1.16521883698593
  H   0.69222927788825     -1.62893468882090      0.61321277784646
  C   -0.19332028061804      1.63472777631553      0.24352748468558
  N   0.02992064586351      2.77601849555403      0.06806092335444
  N   -1.40029316610039     -0.33450326548939     -0.53978655131679
  O   -1.34712814406064     -1.53911576863356     -0.73548902945209
  O   -2.17516994577432      0.47191964659157     -1.02976592522483
  C   1.50359992281581     -0.44630727597929     -0.92378131219835
  N   1.97087488796758     -0.33157545843631     -1.99444871356014
