12
Coordinates from ORCA-job run
  C   -0.31633099804501      0.32648837903979      0.35788123004787
  C   1.06904672569106      0.00120055480220     -0.20215525284765
  Br  -0.46121694219771     -0.17201342662679      2.22075044603808
  H   1.79098325693404      0.65301741129054      0.29800451402224
  H   1.07684772146857      0.23648949544663     -1.26980268809585
  C   -0.60659937634109      1.74547791281696      0.20964598997245
  N   -0.79356648277160      2.89688247237810      0.05983019710877
  N   -1.41731470068933     -0.43095113248621     -0.42614589500037
  O   -2.56394585538782     -0.21236750448553     -0.07473030805122
  O   -1.03432988388782     -1.15378047693484     -1.33553006746704
  C   1.45435923310634     -1.39182983622033     -0.00104802130141
  N   1.80306730212037     -2.49961384902051      0.16529985557414
