12
Coordinates from ORCA-job run
  C   -0.29768139717598      0.27634598975550      0.43569330813662
  C   1.06364683023931      0.11906980145765     -0.24651337905237
  Br  -0.23841404238010     -0.33737722157906      2.26194831288087
  H   1.79007807812231      0.72154794470261      0.30506355812636
  H   0.99420261610884      0.50416680113548     -1.26597286404461
  C   -0.73322229242963      1.66547449319350      0.39691678415447
  N   -1.05743344138972      2.79461852700994      0.33911699341243
  N   -1.37247848274506     -0.52928518710100     -0.35466996729143
  O   -1.12116129761878     -0.68531177884292     -1.54178784653067
  O   -2.37529581292663     -0.86359612569247      0.24801843899481
  C   1.49581972484221     -1.27449175217947     -0.27595532939978
  N   1.85193951735323     -2.39216149185977     -0.30285800938671
