12
Coordinates from ORCA-job run
  C   -0.36721329246928      0.21541329120444      0.35603138735169
  C   0.73341146291914     -0.65322401585875     -0.27380363400018
  Br  -0.25541976168101      0.20434454803520      2.27501353209362
  H   0.62336577191185     -1.67450289034054      0.10348821180571
  H   0.58312119437834     -0.65666541622524     -1.35866616568620
  C   -0.33004491348336      1.58383058032599     -0.13259229912811
  N   -0.25874876452400      2.69121414085043     -0.52202364132069
  N   -1.69210067705442     -0.43690338498289     -0.12086339294309
  O   -2.20611568804241     -1.27444855369478      0.59837806638297
  O   -2.03764871147945     -0.09576093060408     -1.24440221441470
  C   2.06515996998028     -0.14890306411882      0.03789522676486
  N   3.14223340954432      0.24760569540905      0.28254492309412
