12
Coordinates from ORCA-job run
  C   -0.35528286949341      0.21977932044391      0.51739815868311
  C   0.90625448207806     -0.62331820240770      0.33854543138732
  Br  -1.06483820879186     -0.04406653785276      2.30274744599871
  H   1.65093848854566     -0.29280404786707      1.06710064574528
  H   0.66101858267394     -1.66824830683015      0.53508288783282
  C   -0.11613050211534      1.63427611875330      0.28758677931192
  N   0.14085325893018      2.76976766957770      0.12111026340056
  N   -1.44110838636465     -0.27068297209865     -0.46415808177850
  O   -1.44743025874065     -1.47208975819539     -0.68488231378082
  O   -2.20983975924867      0.57516695483093     -0.89349286196166
  C   1.43075283271695     -0.47794434007013     -1.01769210390897
  N   1.84281233980981     -0.35083589828397     -2.10934625092976
