12
Coordinates from ORCA-job run
  C   -0.31821001516363      0.27835836094085      0.39425906853302
  C   1.07882276952055     -0.08015940655925     -0.11387589902048
  Br  -0.69796748857649     -0.58237851774365      2.08429677722872
  H   1.80497747633911      0.36217017225973      0.57438844500543
  H   1.21912857649549      0.37362985464949     -1.09876053685680
  C   -0.45350504950970      1.72046988283911      0.54154615304943
  N   -0.51175058770187      2.89134234451616      0.63542816647806
  N   -1.40247166249368     -0.16340518648700     -0.61980488514765
  O   -1.00193397794171     -0.72205045068916     -1.63163380874298
  O   -2.55189105874581      0.11118225786707     -0.32048287655923
  C   1.30611116162019     -1.51926567112714     -0.19616179467958
  N   1.52868985615755     -2.66989364046619     -0.25019880928794
