12
Coordinates from ORCA-job run
  C   -0.29284582998458      0.37410617794489      0.41224003342178
  C   1.04968963513439      0.01624374734733     -0.24175383731751
  Br  -0.27221283680746      0.03754741680306      2.30278807455780
  H   0.98562153094853      0.26315311937157     -1.30530030409131
  H   1.83394379466788      0.62772221870026      0.21127608858695
  C   -0.62146103899981      1.76926732713748      0.16127386073804
  N   -0.84631597121170      2.90552466499252     -0.04141671694872
  N   -1.37287055313038     -0.49081239878515     -0.30114226735159
  O   -1.94636144718207     -1.35868845090928      0.32788864361589
  O   -1.49687713314704     -0.20574236018900     -1.48502788202846
  C   1.36367088398199     -1.39967261387119     -0.07971878559950
  N   1.61701896573026     -2.53964884854249      0.03889309241663
