12
Coordinates from ORCA-job run
  C   -0.35386036633926      0.24381281180312      0.26878585217373
  C   0.77429076028861     -0.70095346073808     -0.15026197570570
  Br  -0.24439150071281      0.65866877265612      2.15817142547995
  H   0.72702814026496     -1.60058131905611      0.46548975965642
  H   0.61094138277513     -0.99387619281765     -1.19312959609559
  C   -0.35734880329206      1.47246840820942     -0.50738769564512
  N   -0.30876082358290      2.45056032388192     -1.15865232497226
  N   -1.70160792442790     -0.47512876137716      0.05467046863351
  O   -1.68694316344532     -1.68898097533877      0.20127791004906
  O   -2.66142832250279      0.23351156519857     -0.20443252434317
  C   2.07539431126947     -0.05547424025609     -0.01729362034279
  N   3.12668630970488      0.45597306783472      0.08476232111197
