12
Coordinates from ORCA-job run
  C   -0.34155935694503      0.15932613434503      0.33862695228603
  C   0.79230106745912     -0.60573806428348     -0.34680311801256
  Br  -0.09900217237453      0.18247302505622      2.26051039554405
  H   0.55779623408818     -0.68959525587654     -1.41339233221787
  H   0.83994092989719     -1.61318660951548      0.06956087776288
  C   -0.46591955507842      1.51880954804495     -0.16014035738597
  N   -0.51614078002353      2.61068265015251     -0.59430638885339
  N   -1.66830637306112     -0.58145798852936      0.07204015152629
  O   -2.68023819626493      0.10136226789350      0.06852431270068
  O   -1.58375591504484     -1.79265333805527     -0.07310475426366
  C   2.06701584725592      0.08172802475805     -0.17514155398825
  N   3.09686827009199      0.62924960600987     -0.04537418509825
