12
Coordinates from ORCA-job run
  C   -0.29886608614733      0.34246237964239      0.43495882120740
  C   1.05089207047661      0.04346206629539     -0.23382028072093
  Br  -0.28371982808140     -0.12266405964334      2.29840018298563
  H   1.82684845780554      0.62786753428059      0.26679119739640
  H   0.99107605175219      0.36436763741107     -1.27767016167623
  C   -0.64084074964062      1.74821880988618      0.27890803555239
  N   -0.87766896257484      2.89353025969101      0.15710186694904
  N   -1.36535165686224     -0.48253395866799     -0.34194071152825
  O   -1.48836523423309     -0.11682182697689     -1.50357409461662
  O   -1.92959422422103     -1.40010948834567      0.22164427080279
  C   1.37631348562095     -1.37777105425457     -0.17001224107323
  N   1.63927667610525     -2.52100829931817     -0.13078688527838
