12
Coordinates from ORCA-job run
  C   -0.29693339671706      0.26845158738860      0.48575676341639
  C   1.06165605881052     -0.00195250870434     -0.17764644142805
  Br  -0.42526011060970     -0.57589818987071      2.20598780583828
  H   1.08643374846089      0.53451257525102     -1.13049634394784
  H   1.85073979264969      0.39459614851776      0.46613390643426
  C   -0.51592788149746      1.70063171569892      0.62019870187071
  N   -0.64840672724888      2.86336765788575      0.73609585011327
  N   -1.37832946350455     -0.27733754943769     -0.49072159454241
  O   -1.40100964217220      0.32902539052000     -1.55388963892086
  O   -2.04917664470777     -1.23441706347438     -0.15627039700228
  C   1.27177253031292     -1.42806103905934     -0.40606463966424
  N   1.44344173622359     -2.57291872471560     -0.59908397216721
