16

C	-0.304332	0.032206	-1.513078
C	0.0	0.0	0.0
Cl	0.062107	-1.651493	-2.207901
H	1.097526	0.0	0.0
C	-1.733871	0.223319	-1.791853
N	-2.884483	0.357999	-1.982541
N	0.477862	1.050041	-2.09038
H	1.448015	0.954905	-1.788329
H	0.416239	1.056263	-3.098888
C	-0.564619	-1.183409	0.775356
H	-0.343183	-1.045847	1.834994
H	-1.648544	-1.261848	0.651966
H	-0.092316	-2.106302	0.446645
C	-0.465413	1.259924	0.578804
N	-0.860209	2.233738	1.104948
Br	3.429584	0.0	0.0
