16

C	-0.324323	0.031868	-1.516335
C	0.0	0.0	0.0
Cl	0.113139	-1.565736	-2.218922
H	1.097067	0.0	0.0
C	-1.764953	0.222196	-1.744619
N	-2.920169	0.385786	-1.883747
N	0.426005	1.036885	-2.231699
H	1.409177	0.910688	-1.980063
H	0.137855	1.95338	-1.900735
C	-0.570947	-1.16413	0.799255
H	-0.120522	-2.097318	0.464849
H	-1.658437	-1.22562	0.695776
H	-0.326483	-1.02918	1.854543
C	-0.442576	1.280445	0.549837
N	-0.824139	2.309137	0.972073
Br	3.432869	0.0	0.0
