16

C	-0.533691	0.005979	-1.451957
C	0.0	0.0	0.0
Cl	0.22127	1.381428	-2.315884
H	1.095297	0.0	0.0
C	-0.138133	-1.238229	-2.126834
N	0.098485	-2.262795	-2.650309
N	-1.972107	0.13997	-1.603173
H	-2.270332	0.976404	-1.110414
H	-2.426474	-0.664577	-1.18473
C	-0.440916	-1.24542	0.776082
H	-1.528193	-1.328071	0.861502
H	-0.019686	-1.194787	1.78126
H	-0.039294	-2.139021	0.295944
C	-0.499106	1.200659	0.662764
N	-0.980469	2.133221	1.191935
Br	3.430875	0.0	0.0
