16

C	-0.515281	-0.034381	-1.448873
C	0.0	0.0	0.0
Cl	0.308642	1.312041	-2.375741
H	1.102411	0.0	0.0
C	-0.121955	-1.284096	-2.110345
N	0.119856	-2.292721	-2.66206
N	-1.94138	0.064145	-1.493301
H	-2.266583	0.060937	-2.45273
H	-2.232606	0.930243	-1.052415
C	-0.458151	-1.226076	0.796285
H	-1.545408	-1.312654	0.819983
H	-0.072016	-1.144648	1.813896
H	-0.027837	-2.124854	0.351236
C	-0.490543	1.224647	0.62547
N	-0.959846	2.178422	1.127274
Br	3.436945	0.0	0.0
