13

C	-0.554464	-0.034572	-1.42658
C	0.0	0.0	0.0
Br	0.246577	-1.451678	-2.455425
H	1.095415	0.0	0.0
H	-1.633514	-0.182456	-1.454035
N	-0.317789	1.272447	-2.143441
O	0.607245	1.977449	-1.762742
O	-1.091864	1.506438	-3.06848
C	-0.45668	-1.207874	0.691881
N	-0.845228	-2.173022	1.237131
C	-0.515784	1.176549	0.70181
N	-0.944426	2.126077	1.244583
Cl	3.145342	0.0	0.0
