13

C	-0.356264	0.101849	-1.477306
C	0.0	0.0	0.0
Br	-2.263062	0.061029	-1.833072
H	1.097138	0.0	0.0
H	0.035693	1.030479	-1.888652
N	0.279198	-1.001532	-2.283219
O	0.648552	-0.687071	-3.407983
O	0.335892	-2.112234	-1.775376
C	-0.541683	-1.167585	0.686904
N	-1.0055	-2.06345	1.287659
C	-0.447165	1.220405	0.669244
N	-0.797172	2.210143	1.196221
Cl	3.106098	0.0	0.0
