13

C	-0.562973	-0.022021	-1.423155
C	0.0	0.0	0.0
Br	0.230852	-1.426131	-2.472848
H	1.095625	0.0	0.0
H	-1.641556	-0.169526	-1.4449
N	-0.331701	1.293098	-2.125693
O	-1.165008	1.580624	-2.983155
O	0.649009	1.947631	-1.804551
C	-0.46403	-1.203848	0.692708
N	-0.858928	-2.166889	1.236822
C	-0.504191	1.183256	0.700167
N	-0.922354	2.141793	1.235211
Cl	3.143315	0.0	0.0
