13

C	-0.558718	-0.008715	-1.424549
C	0.0	0.0	0.0
Br	0.232531	-1.413766	-2.477805
H	1.095466	0.0	0.0
H	-1.639638	-0.151987	-1.447038
N	-0.321048	1.311663	-2.120373
O	0.630971	1.989997	-1.759436
O	-1.123494	1.581086	-3.010543
C	-0.459511	-1.214455	0.678548
N	-0.857982	-2.180633	1.214924
C	-0.510855	1.170912	0.715797
N	-0.93573	2.117749	1.267263
Cl	3.142555	0.0	0.0
