14

C	-0.323268	-0.034799	-1.495659
C	0.0	0.0	0.0
Br	-2.292696	-0.834296	-1.63406
H	1.096218	0.0	0.0
H	-0.330985	-0.92595	0.472627
N	-0.231598	1.215151	-2.082997
H	-0.370356	1.172206	-3.081841
H	-0.778049	1.936312	-1.635613
N	0.479085	-0.958669	-2.243771
H	1.452592	-0.709212	-2.049231
H	0.328582	-1.897286	-1.894431
C	-0.573194	1.14285	0.687313
N	-1.063702	2.083593	1.191847
Cl	3.327534	0.0	0.0
