14

C	-0.322646	0.128355	-1.481577
C	0.0	0.0	0.0
Br	-2.316738	0.867241	-1.625332
H	1.094939	0.0	0.0
H	-0.334774	0.895517	0.52328
N	0.491196	1.158682	-2.013773
H	0.425872	1.207917	-3.021736
H	1.457505	0.993104	-1.724039
N	-0.264675	-1.108856	-2.147335
H	-0.419864	-1.009859	-3.141338
H	-0.906161	-1.790759	-1.761636
C	-0.562747	-1.190986	0.607041
N	-1.026961	-2.167867	1.063958
Cl	3.324946	0.0	0.0
