14

C	-0.436622	-0.062449	-1.455121
C	0.0	0.0	0.0
Br	-0.033176	1.918584	-2.260364
H	1.092188	0.0	0.0
H	-0.31303	-0.954515	0.439507
N	0.366272	-0.983711	-2.123762
H	0.224911	-0.978776	-3.124713
H	1.349437	-0.830486	-1.902608
N	-1.822751	-0.27961	-1.619306
H	-2.335627	0.455441	-1.145277
H	-2.079783	-0.255209	-2.599158
C	-0.604835	1.078632	0.760534
N	-1.158155	1.899052	1.392835
Cl	3.321141	0.0	0.0
