14

C	-0.382776	-0.086752	-1.481619
C	0.0	0.0	0.0
Br	-0.196873	1.823586	-2.220309
H	1.090925	0.0	0.0
H	-0.394297	0.904853	0.459936
N	0.508417	-0.981247	-2.104907
H	1.476457	-0.807446	-1.830375
H	0.413374	-0.990472	-3.112701
N	-1.784614	-0.375387	-1.683272
H	-2.023284	-0.258893	-2.662182
H	-1.921318	-1.351888	-1.435882
C	-0.506302	-1.176946	0.699225
N	-0.962904	-2.116353	1.237359
Cl	3.354451	0.0	0.0
