20

C	0.0	0.0	0.0
C	-0.57233	0.07579	-1.416874
Br	1.943142	0.0	0.0
H	-1.606622	0.396579	-1.185333
N	-0.358539	1.294857	0.764658
O	-0.266133	1.265776	1.987799
O	-0.669758	2.285538	0.11676
C	-0.527811	-1.151196	0.820915
H	-0.164177	-1.083044	1.844605
H	-0.200328	-2.095309	0.38433
H	-1.625993	-1.012219	0.750631
C	-0.705562	-1.31761	-2.027049
H	0.232847	-1.886026	-2.001491
H	-1.4935	-1.861695	-1.507223
H	-1.005677	-1.217898	-3.075748
C	0.154229	1.004438	-2.385172
H	0.394285	1.967951	-1.938759
H	1.079621	0.551221	-2.760634
H	-0.501685	1.186965	-3.243195
F	-2.901516	0.0	0.0
