20

C	0.0	0.0	0.0
C	-0.470257	0.119972	-1.501979
Br	1.951618	0.0	0.0
H	0.438521	0.244774	-2.096475
N	-0.28583	1.310502	0.772693
O	0.119123	2.356451	0.275665
O	-0.84828	1.227987	1.85662
C	-0.576947	-1.135657	0.797045
H	-1.669479	-0.954431	0.759561
H	-0.202137	-1.115941	1.819742
H	-0.310341	-2.084193	0.334074
C	-1.417673	1.292132	-1.804161
H	-1.74989	1.183119	-2.843265
H	-0.939759	2.263704	-1.702495
H	-2.281423	1.170242	-1.137683
C	-1.186044	-1.161372	-1.943342
H	-2.126856	-1.190052	-1.383405
H	-1.402256	-1.084868	-3.013826
H	-0.595621	-2.069876	-1.792421
F	-3.060851	0.0	0.0
