15

C	-0.357485	-0.074869	-1.49117
C	0.0	0.0	0.0
Br	0.062788	1.688394	-2.294698
H	1.092966	0.0	0.0
H	-0.303553	-0.963442	0.43606
C	0.577678	-1.097701	-2.112308
H	0.511689	-1.08288	-3.200169
H	0.290848	-2.09563	-1.752403
H	1.586609	-0.877758	-1.746498
N	-1.74651	-0.338127	-1.837233
H	-1.977875	-1.253856	-1.457614
H	-2.332959	0.342619	-1.360748
C	-0.668247	1.058981	0.721672
N	-1.246107	1.909213	1.293749
F	2.610981	0.0	0.0
