15

C	-0.06262	-0.047435	-1.52245
C	0.0	0.0	0.0
Br	-1.921879	-0.440397	-2.205577
H	1.097232	0.0	0.0
H	-0.367197	-0.934936	0.425591
C	0.360644	1.289715	-2.11135
H	0.414426	1.224884	-3.20108
H	1.359412	1.469503	-1.699276
H	-0.312868	2.103122	-1.835245
N	0.801288	-1.140414	-1.893657
H	1.677129	-0.963225	-1.370285
H	0.995678	-1.092035	-2.888537
C	-0.612989	1.152327	0.614024
N	-1.110374	2.089794	1.119792
F	2.64172	0.0	0.0
