15

C	-0.34675	-0.075621	-1.483032
C	0.0	0.0	0.0
Br	0.119924	1.76161	-2.284474
H	1.091653	0.0	0.0
H	-0.315831	-0.958953	0.432646
C	0.612605	-1.047012	-2.143449
H	0.343763	-2.057483	-1.814006
H	0.55572	-0.998523	-3.232552
H	1.615301	-0.805401	-1.778364
N	-1.713702	-0.378094	-1.72793
H	-1.910506	-0.354312	-2.721744
H	-2.308751	0.30141	-1.267151
C	-0.664458	1.066232	0.715635
N	-1.245088	1.905725	1.299944
F	2.611785	0.0	0.0
