15

C	-0.430037	0.135732	-1.423323
C	0.0	0.0	0.0
Br	-2.408345	-9.2e-05	-1.673521
H	1.10787	0.0	0.0
H	-0.190221	1.134875	-1.7844
C	0.17715	-0.869106	-2.285131
N	0.655331	-1.661947	-3.00971
C	-0.355722	-1.286266	0.703176
H	-0.09128	-2.126351	0.056216
H	0.241191	-1.360494	1.613154
H	-1.415345	-1.343447	0.961761
N	-0.354633	1.174552	0.75235
O	-0.458926	2.260539	0.147504
O	-0.372092	1.077403	1.992409
H	2.416888	0.0	0.0
