15

C	-0.5768	-0.034587	-1.404653
C	0.0	0.0	0.0
Br	-0.041798	-1.678471	-2.337249
H	1.090966	0.0	0.0
H	-1.662863	-0.080154	-1.376772
C	-0.162566	1.095306	-2.232881
N	0.146955	1.988969	-2.926427
C	-0.418661	-1.163782	0.873549
H	-0.080776	-0.961562	1.888886
H	0.081005	-2.066091	0.527759
H	-1.501693	-1.326006	0.886601
N	-0.459277	1.248566	0.631893
O	-1.328002	1.92882	0.053797
O	0.049221	1.554864	1.713607
H	2.618001	0.0	0.0
