15

C	-0.49008	0.058348	-1.447398
C	0.0	0.0	0.0
Br	-0.471867	-1.710794	-2.317122
H	1.095085	0.0	0.0
H	-1.533987	0.37388	-1.491468
C	0.285907	0.952542	-2.307574
N	0.827179	1.654194	-3.079181
C	-0.386948	-1.214775	0.812408
H	-0.079413	-1.035096	1.84122
H	-1.462388	-1.423636	0.784313
H	0.16298	-2.081054	0.441148
N	-0.407843	1.224981	0.64346
O	-0.734537	2.190093	-0.08296
O	-0.286632	1.312885	1.878064
H	2.460171	0.0	0.0
