15

C	-0.339022	0.174058	-1.450536
C	0.0	0.0	0.0
Br	-2.289412	0.346813	-1.804756
H	1.106959	0.0	0.0
H	0.08706	1.111308	-1.807859
C	0.141953	-0.937482	-2.259335
N	0.503577	-1.82939	-2.933197
C	-0.467997	-1.267098	0.665389
H	-1.550691	-1.284569	0.810732
H	-0.168024	-2.121905	0.053974
H	0.022202	-1.357354	1.634639
N	-0.349532	1.195302	0.732447
O	-0.23965	2.287947	0.145496
O	-0.594989	1.088609	1.945489
H	2.455398	0.0	0.0
