15

C	-0.440726	0.084121	-1.442011
C	0.0	0.0	0.0
Br	0.231037	1.651656	-2.415944
H	1.102548	0.0	0.0
H	0.055439	-0.749333	-1.947982
C	-1.879624	-0.032815	-1.644712
N	-3.030998	-0.209454	-1.803354
C	-0.338205	-1.349606	0.611489
H	0.072443	-1.374855	1.620734
H	-1.414518	-1.54843	0.644279
H	0.164705	-2.128868	0.031769
N	-0.521722	1.074572	0.829051
O	-1.184952	1.984357	0.305771
O	-0.215917	1.045468	2.028899
H	2.535602	0.0	0.0
