15

C	-0.240898	0.020531	-1.497066
C	0.0	0.0	0.0
Br	-2.194398	-0.136752	-1.943354
H	1.094861	0.0	0.0
C	0.186947	1.254855	-2.172727
N	0.56514	2.101197	-2.897143
N	0.454516	-1.133898	-1.990293
H	1.404973	-1.081625	-1.595404
H	0.515765	-1.096017	-3.000748
C	-0.463512	-1.220756	0.615534
N	-0.775169	-2.231274	1.1298
N	-0.42894	1.173117	0.747731
O	-0.398079	2.25993	0.159877
O	-0.652326	1.027622	1.954123
H	2.410097	0.0	0.0
