15

C	-0.241053	0.008015	-1.49706
C	0.0	0.0	0.0
Br	-2.191499	-0.156303	-1.943402
H	1.094906	0.0	0.0
C	0.186137	1.240306	-2.181666
N	0.52781	2.078531	-2.934085
N	0.452897	-1.150714	-1.983468
H	0.502322	-1.125888	-2.995707
H	1.406506	-1.093279	-1.596966
C	-0.46118	-1.218301	0.622777
N	-0.773276	-2.228646	1.136955
N	-0.448553	1.176142	0.731896
O	-0.699015	1.039681	1.934921
O	-0.43175	2.255688	0.130281
H	2.415283	0.0	0.0
