15

C	-0.233417	-0.006556	-1.507749
C	0.0	0.0	0.0
Br	-2.17632	0.011839	-1.928777
H	1.095181	0.0	0.0
C	0.354821	1.15581	-2.186148
N	0.827247	2.000564	-2.853289
N	0.349119	-1.188906	-2.103484
H	-0.07231	-2.00806	-1.674867
H	1.337815	-1.166961	-1.831806
C	-0.463074	-1.217049	0.617014
N	-0.763752	-2.264393	1.062464
N	-0.436086	1.170359	0.734274
O	-0.611207	1.046852	1.952566
O	-0.470908	2.242173	0.117224
H	2.389491	0.0	0.0
