15

C	-0.245389	0.014031	-1.496672
C	0.0	0.0	0.0
Br	-2.190035	-0.135235	-1.952738
H	1.094841	0.0	0.0
C	0.198287	1.247516	-2.167454
N	0.602998	2.100178	-2.870271
N	0.444198	-1.14643	-1.985485
H	1.399352	-1.092942	-1.602165
H	0.486477	-1.122439	-2.998012
C	-0.451738	-1.219789	0.623871
N	-0.748891	-2.240763	1.125125
N	-0.447028	1.167596	0.744827
O	-0.541147	1.044387	1.971045
O	-0.587314	2.228636	0.127195
H	2.41295	0.0	0.0
