15

C	-0.211203	-0.003614	-1.506734
C	0.0	0.0	0.0
Br	-2.15655	-0.249613	-1.986444
H	1.094862	0.0	0.0
C	0.152554	1.247883	-2.186666
N	0.500852	2.111621	-2.906673
N	0.550417	-1.119714	-1.969366
H	0.669166	-1.076895	-2.974835
H	1.472255	-1.040347	-1.511985
C	-0.479068	-1.216097	0.616479
N	-0.804423	-2.204921	1.163858
N	-0.460785	1.190239	0.704149
O	-1.05097	1.053459	1.782526
O	-0.123652	2.272487	0.212993
H	2.428242	0.0	0.0
