15

C	-0.459283	0.019541	-1.449979
C	0.0	0.0	0.0
Br	0.706217	1.35147	-2.495715
H	1.091091	0.0	0.0
C	-0.117648	-1.256326	-2.085254
N	0.126357	-2.273088	-2.621481
N	-1.841988	0.286081	-1.610404
H	-2.041072	1.180223	-1.173684
H	-2.084007	0.325201	-2.594381
C	-0.3863	-1.222787	0.668411
N	-0.649655	-2.2252	1.226091
N	-0.409633	1.135682	0.777051
O	-0.187339	1.066561	1.997875
O	-0.795922	2.171916	0.190848
H	2.298409	0.0	0.0
