15

C	-0.269342	0.032286	-1.499374
C	0.0	0.0	0.0
Br	0.272346	-1.911097	-2.168313
H	1.092085	0.0	0.0
C	-1.679625	0.072636	-1.874405
N	-2.81993	0.104064	-2.164734
N	0.496383	1.02516	-2.083688
H	0.485155	0.999845	-3.093674
H	1.44373	1.010166	-1.686908
C	-0.598679	-1.112942	0.697868
N	-1.049641	-2.006346	1.316663
N	-0.379849	1.277449	0.653532
O	-1.277605	1.263442	1.50497
O	0.287877	2.266372	0.345857
H	2.462211	0.0	0.0
