15

C	-0.229847	0.058594	-1.513684
C	0.0	0.0	0.0
Br	0.090172	-1.951378	-2.172342
H	1.092049	0.0	0.0
C	-1.610766	0.261779	-1.938336
N	-2.718626	0.484038	-2.266898
N	0.6655	0.938238	-2.073346
H	0.682212	0.933457	-3.083103
H	1.591528	0.834536	-1.630681
C	-0.616889	-1.108045	0.688328
N	-1.064626	-2.005447	1.303739
N	-0.380421	1.280541	0.655175
O	0.242554	2.282177	0.302097
O	-1.231604	1.252552	1.551479
H	2.486454	0.0	0.0
