14
Coordinates from ORCA-job run
  C   -0.34544706766476     -0.08809036047901      0.05206054691273
  C   1.04919491155643     -0.21711768550316     -0.56638271313000
  F   -0.94532850244018     -1.36303437623018     -0.10100064639368
  H   1.53083206537726      0.76309507751322     -0.58178859470947
  H   0.94988370566714     -0.57626791170299     -1.59320768290539
  N   -0.24492006960073      0.28036295360648      1.41602617829992
  H   -1.16386782094126      0.39125630618651      1.82544208044577
  H   0.26715546106055     -0.41470275460396      1.94696676588086
  C   -1.20893918428130      0.88969222737094     -0.71488673750566
  H   -2.21313203762518      0.90128999462712     -0.28546618040981
  H   -1.29263735940831      0.58027260178775     -1.75742771738715
  H   -0.79015721110644      1.89495247188385     -0.66147449873770
  C   1.88071190302130     -1.15082055130760      0.18938907302375
  N   2.52665120638546     -1.89088799314898      0.83075012661582
