14
Coordinates from ORCA-job run
  C   -0.31233482042394     -0.15131134724304      0.27946781268992
  C   1.19969574817120     -0.29496351954311      0.08875266653399
  F   -0.85269148415005     -1.43505192796212      0.03252301059807
  H   1.58084013706794     -1.01635655526913      0.81817131210605
  H   1.67808015624138      0.66690175883455      0.28559475177997
  N   -0.55788697348905      0.26345651482227      1.61618488324419
  H   -1.54788787658895      0.41233098637657      1.76547762320812
  H   -0.23607406502508     -0.43700864078864      2.27358866999839
  C   -0.95531270847059      0.79293491261888     -0.71061023288473
  H   -2.03443240344716      0.81448670926362     -0.54225247843332
  H   -0.55681566399061      1.80098096339782     -0.58943949006315
  H   -0.77795595636605      0.44857220449147     -1.72955391406301
  C   1.54805850513309     -0.75626132525469     -1.25203646854100
  N   1.82371740533786     -1.10971073374446     -2.33586814617348
