14
Coordinates from ORCA-job run
  C   -0.41754790197502     -0.17039913214766      0.02348694780953
  C   1.02334871764169     -0.19428300607282     -0.52887156728101
  F   -0.92903907098882     -1.43465903701868     -0.26073729381353
  H   1.00401887603858     -0.47434767471922     -1.58537997362194
  H   1.46447705089941      0.80338637421616     -0.44862957472670
  N   -0.53280658505163      0.00704817436009      1.43894108995566
  H   -0.34498949161666      0.96219171227627      1.71095703443446
  H   0.08512554755374     -0.61797712237682      1.94337052219103
  C   -1.26123967071460      0.85368639360252     -0.70463420490262
  H   -1.24871492993863      0.65735549938243     -1.77761961749833
  H   -2.28600107210148      0.77820848787533     -0.34116605465081
  H   -0.89364843737942      1.86739803413285     -0.52799259246888
  C   1.85136050245826     -1.14285262214961      0.21018747129294
  N   2.48665646517458     -1.89375608136084      0.85008781328022
