14
Coordinates from ORCA-job run
  C   -0.44980799361641     -0.28130979953901      0.07606511937354
  C   0.90273915863086     -0.79555081669835     -0.42314922352892
  F   -1.36020477941048     -1.30461839758192     -0.29977610359339
  H   0.82516492446647     -1.01809873886570     -1.48997845546648
  H   1.13344650712322     -1.73594862006684      0.08689927373236
  N   -0.41212175706065     -0.10853186544445      1.47992348575445
  H   -1.28875235517477      0.25532563808995      1.83017549741393
  H   -0.19968970264766     -0.97709329058985      1.95460312031568
  C   -0.90124854162193      0.98327867455651     -0.61842350766121
  H   -0.21370518682827      1.80268890661900     -0.40798074112329
  H   -0.95558762223017      0.81816826821714     -1.69539464782910
  H   -1.89934772345232      1.25488112922353     -0.26686175675832
  C   1.97682639558217      0.16522446630794     -0.19587664532039
  N   2.84028867623992      0.94158444577205     -0.03022541530886
