14
Coordinates from ORCA-job run
  C   -0.44433334245834     -0.28485569981276      0.09145454419723
  C   0.90325131765714     -0.79379815445279     -0.42601232551242
  F   -1.35045781294956     -1.32605376255147     -0.24347798293481
  H   0.80496615173973     -1.03988081456452     -1.48600235564271
  H   1.15672507348629     -1.72020422587830      0.09887667139557
  N   -0.37934374441482     -0.08229282002571      1.49043989714871
  H   -1.25393932604687      0.27683328321536      1.85080763659060
  H   -0.14621844950853     -0.93842841964657      1.97804656365302
  C   -0.92524901698354      0.95987119560993     -0.61882699094187
  H   -0.24918599840953      1.79366791868463     -0.42984241612677
  H   -1.92348409353865      1.22036105880730     -0.25976703838051
  H   -0.98944424500843      0.77651303074100     -1.69204906147801
  C   1.97075378819279      0.18363975222418     -0.24173055274838
  N   2.82795969824233      0.97362765764972     -0.11191658921965
