14
Coordinates from ORCA-job run
  C   -0.35061673224314     -0.20351592942410      0.18519111670108
  C   1.15942080606514     -0.42822261941318      0.07370312170094
  F   -0.94977095584504     -1.26636506490953     -0.53022448505026
  H   1.40872924349965     -1.38874206594776      0.53538205126787
  H   1.67990725439735      0.35615903545792      0.62741236177827
  N   -0.70860571534954     -0.24058239958148      1.55984172948632
  H   -0.50534614289114     -1.14972056978092      1.95821503855920
  H   -1.69740224606018     -0.05471564780870      1.67383025444433
  C   -0.81544162459805      1.07983554043852     -0.46457401560291
  H   -1.90123568080473      1.15976291498356     -0.37513266807886
  H   -0.56162334468923      1.07805072692396     -1.52464177261760
  H   -0.35526877470556      1.94100190377165      0.02141508979782
  C   1.61661359000945     -0.44361805201556     -1.31290719371233
  N   1.98164032321502     -0.43832777269435     -2.42751062867386
