14
Coordinates from ORCA-job run
  C   -0.43103899719490     -0.28551541596633      0.11070027484396
  C   1.09856099888531     -0.46170936300660      0.09011810462265
  F   -0.92141146231817     -1.32637924149184     -0.67863028063665
  H   1.55919695673155      0.28041212738342      0.74801955886717
  H   1.33168773022409     -1.45485880542709      0.48705878747342
  N   -0.99387577656695     -0.44324218911745      1.41622259832676
  H   -0.54538887531403     -1.17983041674582      1.94513176567621
  H   -0.98430748200732      0.41746398223198      1.94365554364650
  C   -0.88562191674711      1.01877252254515     -0.50524186673572
  H   -0.58138220602484      1.06333039281276     -1.55090674986471
  H   -1.97358477908958      1.06928148619691     -0.45011903278077
  H   -0.45704593774703      1.87493318902637      0.02211040693363
  C   1.66895962281368     -0.34405114696864     -1.24947859789474
  N   2.11425212435532     -0.22760712147281     -2.32864051247771
