14
Coordinates from ORCA-job run
  C   -0.45424301402019     -0.41371144547794      0.05201884679255
  C   0.93999000655748     -0.77564053484626     -0.47093136746195
  F   -1.27593786199530     -1.47076897292256     -0.34416748078110
  H   1.23061320897515     -1.72461566547772     -0.01376444216030
  H   0.88645455319005     -0.91743981269291     -1.55274917847581
  N   -0.43161862487182     -0.41620444388959      1.48644468509436
  H   -1.29218618343497     -0.03278984699721      1.85799458403350
  H   0.34436636729024      0.12608232167515      1.84458258462803
  C   -1.02340728511924      0.83566100054000     -0.59495422169280
  H   -2.04413126872448      0.98822566287769     -0.23672812022557
  H   -0.42557619688941      1.71128991473509     -0.33613643919857
  H   -1.05588744289612      0.73184813631121     -1.68146695417552
  C   1.92238899058844      0.25428579567412     -0.15143822804577
  N   2.68017475135018      1.10177789049093      0.14029573166894
