14
Coordinates from ORCA-job run
  C   -0.52553667629698     -0.34443040357602      0.04476921116521
  C   0.86329960528792     -0.80009510008243     -0.44555774051770
  F   -1.36331834361509     -1.39698981319574     -0.33196681968585
  H   0.85326301428160     -0.93976600278943     -1.52985547967913
  H   1.08536398803592     -1.77021289706192      0.00951600806968
  N   -0.63531291635673     -0.20009079101248      1.46188736897842
  H   -0.29996774144047      0.69964817364740      1.77582618752426
  H   -0.14879900713844     -0.93435113757561      1.96031163639919
  C   -1.00549599350260      0.90957825438428     -0.65107908936006
  H   -1.05163376059035      0.74022000857206     -1.72751127655245
  H   -2.00512895539598      1.14888667486381     -0.28754323305233
  H   -0.33872499635420      1.75200673960950     -0.45536175677962
  C   1.89070376979098      0.16601338136452     -0.07304377565495
  N   2.68028801329441      0.97158291285205      0.25060875914533
