14
Coordinates from ORCA-job run
  C   -0.53061701881086     -0.33942287222471      0.02603483508862
  C   0.86246646989605     -0.80103048244855     -0.44624902097793
  F   -1.37338761505786     -1.37108171955507     -0.39469926836002
  H   0.87162915793138     -0.91763866402758     -1.53327064893711
  H   1.06497531899489     -1.78309610280884     -0.00797960710295
  N   -0.66873835738607     -0.22865017178333      1.44371370331516
  H   -0.19930011801768     -0.97931240157424      1.93402580143342
  H   -0.33143460152121      0.65985981725955      1.78631260815439
  C   -0.97948346050459      0.93782793459801     -0.64808937505368
  H   -1.00577440958879      0.79563936389554     -1.72921765169923
  H   -0.30560617340459      1.76586871140705     -0.41814948880820
  H   -1.98325708644505      1.18179971622689     -0.29916872847040
  C   1.89313136235964      0.14505350250884     -0.03365532757408
  N   2.68539653155474      0.93418336852645      0.32239216899201
