14

C	0.0	0.0	0.0
C	-0.555334	-0.323494	-1.391658
F	1.382991	0.0	0.0
H	-1.660491	-0.26295	-1.260133
H	-0.33873	1.009203	0.24794
C	-0.457545	-0.998269	1.038232
H	-1.546401	-1.02882	1.064602
H	-0.077186	-0.690374	2.014946
H	-0.052083	-1.985911	0.80507
C	-0.182219	-1.670331	-1.828212
N	0.104056	-2.753891	-2.177822
C	-0.116698	0.661947	-2.380715
N	0.211714	1.471571	-3.165456
Cl	-3.574229	0.0	0.0
