14

C	0.0	0.0	0.0
C	-0.554532	-0.32444	-1.39153
F	1.383046	0.0	0.0
H	-1.660074	-0.266718	-1.2619
H	-0.33723	1.009876	0.248286
C	-0.458136	-0.997982	1.038647
H	-0.059484	-1.987419	0.801306
H	-0.07204	-0.694268	2.014396
H	-1.547383	-1.02363	1.068188
C	-0.175667	-1.669118	-1.82985
N	0.114098	-2.75163	-2.180169
C	-0.119483	0.662627	-2.381281
N	0.207098	1.469013	-3.169788
Cl	-3.575457	0.0	0.0
