14

C	0.0	0.0	0.0
C	-0.384491	0.317971	-1.481782
F	1.385865	0.0	0.0
H	0.556849	0.152596	-2.02441
H	-0.359766	0.79202	0.654977
C	-0.438096	-1.370135	0.456727
H	-1.524898	-1.429405	0.438632
H	-0.071415	-1.535035	1.473083
H	-0.001755	-2.127202	-0.201488
C	-0.70036	1.736885	-1.67627
N	-0.800474	2.895159	-1.839559
C	-1.348992	-0.569961	-2.138701
N	-1.892647	-1.338437	-2.839339
Cl	-3.398684	0.0	0.0
