14

C	0.0	0.0	0.0
C	-0.432157	-0.391482	-1.451298
F	1.386091	0.0	0.0
H	0.520771	-0.423484	-1.998964
H	-0.341419	1.016905	0.200334
C	-0.438092	-0.95813	1.078573
H	-0.059307	-0.595564	2.036978
H	-0.016877	-1.947819	0.886298
H	-1.526056	-1.006761	1.103374
C	-1.227565	0.627304	-2.139934
N	-1.649144	1.485552	-2.820947
C	-1.001413	-1.731589	-1.572471
N	-1.39699	-2.831356	-1.678582
Cl	-3.407328	0.0	0.0
