14

C	0.0	0.0	0.0
C	-0.4341	-0.156066	-1.490754
F	1.386119	0.0	0.0
H	0.517263	-0.140094	-2.041423
H	-0.340199	0.971386	0.362038
C	-0.437497	-1.117912	0.913199
H	-1.523951	-1.174909	0.926779
H	-0.061658	-0.908531	1.919397
H	-0.006068	-2.060384	0.569758
C	-1.187478	0.989908	-2.011533
N	-1.589459	1.95718	-2.54213
C	-1.060307	-1.435383	-1.813641
N	-1.489579	-2.498282	-2.077233
Cl	-3.398981	0.0	0.0
