14

C	0.0	0.0	0.0
C	-0.555213	-0.326407	-1.390973
F	1.38283	0.0	0.0
H	-1.66055	-0.267874	-1.260321
H	-0.337898	1.009935	0.246647
C	-0.458045	-0.996688	1.039971
H	-0.057482	-1.985818	0.805608
H	-0.074074	-0.690113	2.015608
H	-1.547096	-1.023722	1.068441
C	-0.178455	-1.672484	-1.826494
N	0.109913	-2.756136	-2.1744
C	-0.119879	0.658554	-2.382268
N	0.207016	1.465732	-3.16996
Cl	-3.575402	0.0	0.0
