14

C	0.0	0.0	0.0
C	-0.412019	-0.252347	-1.482567
F	1.386018	0.0	0.0
H	0.54795	-0.28723	-2.013735
H	-0.34248	0.990847	0.296377
C	-0.436715	-1.055905	0.983623
H	-0.021108	-2.023456	0.692466
H	-0.044845	-0.789388	1.967941
H	-1.523807	-1.101201	1.013062
C	-1.140394	0.859714	-2.102457
N	-1.545262	1.778967	-2.709525
C	-1.04342	-1.547161	-1.731892
N	-1.463738	-2.619357	-1.962855
Cl	-3.384815	0.0	0.0
