13

C	0.0	0.0	0.0
C	-0.504523	-0.101293	-1.432389
Cl	1.832961	0.0	0.0
H	-1.615379	-0.142472	-1.28739
H	-0.235693	0.827016	-1.940962
N	-0.549302	1.191219	0.551567
H	-1.589391	0.997179	0.469339
H	-0.32623	1.229843	1.542279
C	-0.325021	-1.232736	0.760205
N	-0.487852	-2.16726	1.455958
C	-0.007548	-1.249957	-2.169225
N	0.365251	-2.168587	-2.799234
H	-2.88917	0.0	0.0
