13

C	0.0	0.0	0.0
C	-0.507424	0.011657	-1.450829
Cl	1.792415	0.0	0.0
H	-0.257533	0.980406	-1.894043
H	-1.616254	-0.04887	-1.296421
N	-0.555119	1.063565	0.777011
H	-1.590488	0.85539	0.703248
H	-0.386555	1.932394	0.274081
C	-0.367375	-1.286089	0.632893
N	-0.532671	-2.323807	1.157498
C	-0.011313	-1.061705	-2.295616
N	0.368145	-1.922392	-3.000029
H	-2.896946	0.0	0.0
