13

C	0.0	0.0	0.0
C	-0.501721	0.09901	-1.452548
Cl	1.793663	0.0	0.0
H	-1.612493	0.028989	-1.306304
H	-0.13019	-0.727721	-2.064699
N	-0.537112	0.997782	0.869033
H	-0.345362	1.905897	0.452898
H	-1.57123	0.818012	0.781458
C	-0.375462	-1.335007	0.513503
N	-0.561109	-2.414547	0.938016
C	-0.148962	1.375159	-2.049777
N	0.131109	2.416349	-2.517838
H	-2.902228	0.0	0.0
