13

C	0.0	0.0	0.0
C	-0.532	-0.1472	-1.424318
Cl	1.787672	0.0	0.0
H	-0.19477	-1.087333	-1.869002
H	-1.642409	-0.168583	-1.257091
N	-0.558836	1.186275	0.553647
H	-1.597749	0.995685	0.469296
H	-0.332516	1.236752	1.542795
C	-0.340689	-1.245516	0.742309
N	-0.519454	-2.242696	1.338211
C	-0.153296	0.969862	-2.274082
N	0.117994	1.837557	-3.018131
H	-2.910637	0.0	0.0
