13

C	0.0	0.0	0.0
C	-0.528129	-0.087904	-1.431549
Cl	1.78978	0.0	0.0
H	-0.261053	0.841662	-1.941552
H	-1.638396	-0.1279	-1.272031
N	-0.564244	1.180057	0.570316
H	-0.344952	1.204744	1.56327
H	-1.603858	0.981881	0.48524
C	-0.339405	-1.245858	0.739198
N	-0.511602	-2.200547	1.404718
C	-0.047553	-1.239532	-2.1762
N	0.33978	-2.15177	-2.806665
H	-2.923472	0.0	0.0
