16
Coordinates from ORCA-job run
  C   1.01612301183840      0.03910606442546      0.12877600765379
  C   -0.32992849636098      0.29837722849749     -0.55775260633223
  Cl  2.26780021124211      1.09528325657216     -0.52411043160776
  H   -0.17306889164670      0.17169561980557     -1.62916269852939
  C   0.97768727804676      0.13632373651221      1.57869472968061
  N   0.95525278344141      0.21103006642540      2.75194287739443
  N   1.36861520589568     -1.42415156356788     -0.25521879228611
  O   1.41668874835942     -2.23907761341567      0.65438957467603
  O   1.51383374936948     -1.62758857456418     -1.44983518234338
  N   -0.69517705469136      1.74287271880665     -0.37765305378269
  O   -0.78062422000631      2.41989067711070     -1.39815720205696
  O   -0.90310819988791      2.12141860364665      0.77158641325009
  C   -1.44503986492276     -0.57498736371998     -0.01643149605723
  H   -2.37832214302547     -0.32063404125028     -0.52248296823418
  H   -1.23688867127020     -1.62895041893205     -0.20819007681078
  H   -1.57284344638158     -0.42160839635226      1.05560490538577
