16
Coordinates from ORCA-job run
  C   1.00055433084811      0.21134308245162      0.00379295970188
  C   -0.46810658192392      0.35220118214673     -0.41406582866997
  Cl  1.94021855235359      1.61588477794011     -0.50067262294124
  H   -0.47943888585876      0.53039865983341     -1.48937715937359
  C   1.19105421198053     -0.04008823046343      1.42285996891919
  N   1.34717120140126     -0.23968391474079      2.57101086717349
  N   1.51695184504258     -1.01954425367331     -0.78860677125525
  O   1.44175351552350     -0.92299539291245     -2.00304611322905
  O   1.90676911030061     -1.97700583458290     -0.13661047309410
  N   -1.02403092469665      1.60295179918405      0.20312556145661
  O   -1.17078642866021      1.59933425006998      1.42251674284284
  O   -1.30235403336042      2.51946447408354     -0.56464239948167
  C   -1.31116903251465     -0.83833319804849     -0.00247759244976
  H   -1.27389615808703     -0.98771674529507      1.07673982309560
  H   -2.34807252886477     -0.66463355480076     -0.29609387154352
  H   -0.96861819348376     -1.74357710119223     -0.50645309115146
