16
Coordinates from ORCA-job run
  C   0.81251771927540     -0.41413503623474     -0.16461574578430
  C   -0.49313625322558      0.31890852404365      0.18264835947905
  Cl  0.52691634996378     -1.79588800265225     -1.20440217633542
  H   -0.26637956757362      0.98338726099114      1.02047496696981
  C   1.74715102268331      0.50979071701744     -0.79503902981721
  N   2.48694827954005      1.26567461277278     -1.30886080174826
  N   1.52253584403975     -0.86159348601393      1.16164682841573
  O   1.71492648012865      0.06779184407311      1.92977626806079
  O   1.83473264647488     -2.02637303565142      1.28885182397022
  N   -1.44841096891955     -0.70712224354242      0.74735333364847
  O   -1.03217108571000     -1.33652145398969      1.71658140551800
  O   -2.54496447909961     -0.83472471838369      0.21691503421617
  C   -1.09911536919034      1.06369649103146     -0.98478979145213
  H   -1.31747715807046      0.39119316955213     -1.81344792490706
  H   -2.03097974467158      1.53389089065863     -0.67325900334402
  H   -0.41309371564511      1.84302446632781     -1.31983354688984
