16
Coordinates from ORCA-job run
  C   0.79672963013570     -0.43313864994871     -0.19737865045683
  C   -0.47653900198655      0.33104749264005      0.19853394033551
  Cl  0.44135076512854     -1.79492562628370     -1.24153321532082
  H   -0.20148747244766      0.98912675817528      1.02711369214841
  C   1.73517007654384      0.47396777933676     -0.84624126646437
  N   2.47894887356712      1.21831498344502     -1.37136834008248
  N   1.53520656600759     -0.91457588934078      1.10179386273185
  O   1.80134040806271     -2.09210608447007      1.21629041691532
  O   1.79136397710103      0.00284937083811      1.86523593904156
  N   -1.43770744035140     -0.66952290145422      0.79826970194781
  O   -2.55226632492581     -0.77464543876850      0.30109081179872
  O   -1.00883219347310     -1.30169080197054      1.75990631588994
  C   -1.10576558692510      1.09349671093449     -0.94508090090581
  H   -1.37192874099973      0.42879222637551     -1.76590794601102
  H   -2.01295728060760      1.58716035461331     -0.59872516174848
  H   -0.41262625482957      1.85584971587800     -1.30399919981931
