16
Coordinates from ORCA-job run
  C   1.04207477490600      0.04459097525410     -0.10052432813380
  C   -0.39256267269374      0.59316791713615     -0.19658270909188
  Cl  1.86434318425900      0.36832181907712     -1.63733941574587
  H   -0.28983616108254      1.65838643403561     -0.41607768202091
  C   1.76343524038410      0.70692565051204      0.97867972386998
  N   2.31089490440541      1.31607992519606      1.82222121583336
  N   1.10157723028468     -1.48025078671518      0.12904039693522
  O   1.70990969625190     -1.86604868128835      1.11359646382976
  O   0.54453925536621     -2.15735987115434     -0.71977508470847
  N   -1.02072445727798      0.53261408197099      1.16577935905475
  O   -1.72033832811485      1.48393183833775      1.49267254345384
  O   -0.81958554890788     -0.49183900477477      1.81486268678585
  C   -1.34437195346306     -0.06569154318966     -1.18082563359820
  H   -1.60108580947501     -1.07419607475976     -0.86371835869539
  H   -2.24947139996889      0.54302697545912     -1.22709200671567
  H   -0.89979795487334     -0.11165965509682     -2.17391717105261
