16
Coordinates from ORCA-job run
  C   1.03923991607214      0.04596442293364     -0.12538390629190
  C   -0.39845952522940      0.59127388437345     -0.19167956289845
  Cl  1.82498491288397      0.36157088815832     -1.68278070660125
  H   -0.30326127764511      1.65485227931737     -0.42201284615792
  C   1.78377115250728      0.71650636513500      0.93279267863329
  N   2.34679093038587      1.33623891448976      1.75821462013839
  N   1.10641769318770     -1.47717654118613      0.11272919826391
  O   0.53774116152099     -2.16128486974021     -0.72259035093698
  O   1.73414956736337     -1.85494108140706      1.08827858703414
  N   -0.99361432959967      0.54014093238263      1.18568515096731
  O   -1.67740445831616      1.49795590970323      1.52695362332755
  O   -0.78535416101091     -0.48447193940703      1.83225309794392
  C   -1.37127060302197     -0.07821290248516     -1.14778043754147
  H   -0.95040472596848     -0.13088279755271     -2.15081293589123
  H   -2.27921181102553      0.52735867229890     -1.17731802183166
  H   -1.61711444210411     -1.08489213701398     -0.81654818815759
