16
Coordinates from ORCA-job run
  C   1.01791929163780      0.10248272258705     -0.06001572229228
  C   -0.44785923962734      0.32721819154113     -0.44939520795514
  Cl  2.05982352382882      1.30905067103463     -0.81334022842039
  H   -0.49481647708014      0.32124093827140     -1.53858837943561
  C   1.25649135888741      0.05278434647774      1.37310613870236
  N   1.45956124363031      0.01031678068126      2.53052944711810
  N   1.36806803333796     -1.28497661456325     -0.66401228489593
  O   1.29288238380329     -1.35628907307339     -1.88015794937241
  O   1.63205227615372     -2.18143282591537      0.12378171202946
  N   -0.84948907584288      1.71462130682201     -0.04184007261694
  O   -0.85423088373228      1.95750736384549      1.16166799994100
  O   -1.16440492497147      2.48386658598178     -0.94527834633135
  C   -1.38715190329839     -0.67802215923566      0.18807530585825
  H   -2.41376868556616     -0.44317894346213     -0.09959357018795
  H   -1.31048350197934     -0.64616660907490      1.27542324696238
  H   -1.16459341918123     -1.68802268191784     -0.16036208910357
