16
Coordinates from ORCA-job run
  C   1.01605848388348      0.12095941150338     -0.01875211740925
  C   -0.44067001090290      0.35833221656498     -0.43200844129525
  Cl  2.05873170127581      1.40631665440755     -0.62774371697516
  H   -0.45670660110507      0.44290747223181     -1.51874862661080
  C   1.21286488793920     -0.05618139724426      1.41059067722421
  N   1.38451943662849     -0.21095391969044      2.56350388532585
  N   1.41106845665462     -1.19996565996899     -0.73518987778834
  O   1.68449501403085     -2.15620580499719     -0.02490611134553
  O   1.36036126654521     -1.16457814772966     -1.95424120881525
  N   -0.87693391415331      1.70080723475174      0.07742904162945
  O   -1.20232299097232      2.53009567574249     -0.76729064410353
  O   -0.89593407273145      1.85070585980049      1.29584321072455
  C   -1.38210207175810     -0.70895338806096      0.09149852745347
  H   -1.34554401074905     -0.75789421030596      1.18030918304672
  H   -2.40197290375371     -0.47155673232674     -0.21712594505269
  H   -1.12591267083166     -1.68583526467820     -0.32216783600846
