16
Coordinates from ORCA-job run
  C   0.84774086931737     -0.37852889888627     -0.00017836753122
  C   -0.52494605051871      0.30938564557199      0.06878780736558
  Cl  0.76754122177654     -1.91033965808912     -0.84746992812776
  H   -0.43853934854786      1.10743171830661      0.81102222374779
  C   1.81163992000271      0.50662157396307     -0.64219816488438
  N   2.57101287038687      1.22957376524154     -1.17470398626686
  N   1.39517217592701     -0.58387608629790      1.45613228725535
  O   1.71423139180642     -1.70039691689312      1.80566701142781
  O   1.46398878493755      0.46060447920371      2.08450352209882
  N   -1.49697198657203     -0.67956003130210      0.67046787586782
  O   -1.18816715946604     -1.11558131039234      1.77631404407875
  O   -2.50215493125178     -0.96806857244739      0.03266775304708
  C   -1.01050884777651      0.82781526846430     -1.26565056189852
  H   -0.32748674333062      1.59571992179412     -1.63194634168159
  H   -1.99808442741764      1.27182000359247     -1.14672034389753
  H   -1.08346773927324      0.02637909817042     -1.99969483060111
