16
Coordinates from ORCA-job run
  C   0.83907290333419     -0.39508399326632     -0.03450236476970
  C   -0.51665027320259      0.31801598882932      0.09232178678668
  Cl  0.70686971263784     -1.89005784096500     -0.93939050032168
  H   -0.39702470900487      1.08374912057051      0.86338695090101
  C   1.80821250035046      0.49437134202961     -0.66230223433610
  N   2.57588264951449      1.22186197398971     -1.17641590265806
  N   1.41310108820026     -0.66996171137087      1.40019373573590
  O   1.71161454208343     -1.80643566776338      1.69950881715637
  O   1.51379775741666      0.34642735664791      2.06904310147028
  N   -1.49635258785842     -0.67369405701207      0.67642683776355
  O   -1.17099733324941     -1.16217466707238      1.75533050521811
  O   -2.51892996976623     -0.91953975860976      0.04855610764053
  C   -1.01960312235875      0.89907956445794     -1.20938283139923
  H   -0.32702936921720      1.66488353072848     -1.56189862454688
  H   -1.12861689465864      0.12878865467624     -1.97174606673044
  H   -1.99334689422116      1.36077016413000     -1.05012931791038
