16
Coordinates from ORCA-job run
  C   1.01511622721894      0.00942962152975      0.14037713925580
  C   -0.33955781012640      0.48917665955081     -0.39367261809216
  Cl  2.23701056641937      1.26936577844109     -0.02659534965737
  H   -0.18374542161942      0.80620801485198     -1.42510959806394
  C   0.98061407634413     -0.48370970826756      1.50741054122441
  N   0.96821752169842     -0.89432482432475      2.60916574355179
  N   1.40152619897573     -1.16830803305743     -0.79609832312354
  O   1.55527204786264     -0.87017738716449     -1.96963299234938
  O   1.46332758819859     -2.27984160391960     -0.29158864099718
  N   -0.73966549627108      1.73124858584348      0.34755081159480
  O   -0.94323565281272      1.61429411595405      1.55265885450950
  O   -0.85497541225800      2.75610321661239     -0.31837617210716
  C   -1.43090551327101     -0.55421116366419     -0.25416701184021
  H   -1.55782817851891     -0.84601809608167      0.78886774631932
  H   -1.19795688689938     -1.43817281793716     -0.85018540466798
  H   -2.37221385494088     -0.14106235836670     -0.62160472555671
