17

C	-0.489471	-0.114168	-1.420938
C	0.0	0.0	0.0
F	-1.841325	-0.331612	-1.513715
H	1.091586	0.0	0.0
N	-0.241736	1.256839	-2.081183
O	0.906876	1.483214	-2.435572
O	-1.204297	2.010115	-2.154663
C	0.203835	-1.09722	-2.260789
N	0.693287	-1.863663	-3.003193
N	-0.418514	-1.21886	0.718951
O	-0.595435	-1.149972	1.935976
O	-0.511212	-2.265529	0.070018
C	-0.447938	1.255623	0.718818
H	-1.531752	1.412271	0.702239
H	-0.108567	1.183191	1.749925
H	0.057199	2.115865	0.272636
F	2.467333	0.0	0.0
