17

C	-0.524815	0.011274	-1.409524
C	0.0	0.0	0.0
F	-0.032892	1.121147	-2.051395
H	1.091548	0.0	0.0
N	-0.03872	-1.156537	-2.278472
O	-0.708777	-1.368491	-3.288449
O	1.002736	-1.702308	-1.960393
C	-1.9945	0.066053	-1.504948
N	-3.158128	0.22896	-1.526438
N	-0.511356	-1.179268	0.696014
O	-1.054361	-2.067637	0.023323
O	-0.357181	-1.24028	1.913665
C	-0.381469	1.261565	0.755399
H	-0.014201	2.122367	0.196721
H	-1.461339	1.356861	0.920748
H	0.135309	1.239248	1.713149
F	2.468309	0.0	0.0
