17

C	-0.542042	-0.000856	-1.401494
C	0.0	0.0	0.0
F	-0.062734	1.104827	-2.060194
H	1.091538	0.0	0.0
N	-0.06181	-1.17524	-2.264537
O	0.961104	-1.747904	-1.931332
O	-0.722226	-1.367043	-3.284745
C	-2.013923	0.04515	-1.47569
N	-3.178463	0.20224	-1.478084
N	-0.511603	-1.17143	0.709817
O	-1.054301	-2.066913	0.04461
O	-0.356551	-1.222995	1.927268
C	-0.350777	1.273261	0.749451
H	-1.425678	1.398697	0.922524
H	0.036457	2.12013	0.18344
H	0.173147	1.245291	1.703211
F	2.469724	0.0	0.0
