17

C	-0.528222	0.00349	-1.408129
C	0.0	0.0	0.0
F	-0.03438	1.106412	-2.060399
H	1.091483	0.0	0.0
N	-0.046154	-1.176745	-2.262726
O	1.001501	-1.712199	-1.94552
O	-0.727057	-1.409891	-3.260693
C	-1.997979	0.058733	-1.502566
N	-3.160665	0.221755	-1.546071
N	-0.502451	-1.183818	0.695758
O	-1.057964	-2.067263	0.023528
O	-0.329402	-1.254667	1.911208
C	-0.389663	1.257579	0.756217
H	-0.028913	2.121573	0.198718
H	-1.46988	1.3452	0.920059
H	0.125038	1.239138	1.715168
F	2.470054	0.0	0.0
