17

C	-0.389332	0.006716	-1.453287
C	0.0	0.0	0.0
F	0.119635	-1.082035	-2.080635
H	1.092581	0.0	0.0
N	-1.917387	-0.033929	-1.715305
O	-2.526318	0.977607	-1.384409
O	-2.389102	-1.04336	-2.212567
C	0.081815	1.232235	-2.11329
N	0.459835	2.210868	-2.641031
N	-0.481816	-1.299114	0.576452
O	-1.698426	-1.523895	0.526835
O	0.340966	-2.055987	1.082166
C	-0.535337	1.136373	0.842626
H	-1.622085	1.116554	0.940213
H	-0.227962	2.092379	0.414561
H	-0.071049	1.056018	1.828077
F	2.510104	0.0	0.0
