15

C	0.0	0.0	0.0
C	-0.266337	0.028331	-1.603894
Br	1.935611	0.0	0.0
H	0.564339	-0.578146	-1.976693
N	-0.48259	1.14636	0.859087
O	-0.636333	2.228574	0.320499
O	-0.565583	0.904986	2.054987
C	-0.460614	-1.270314	0.535599
N	-0.609885	-2.385059	0.880437
C	-0.001433	1.376057	-2.142918
N	0.252682	2.382668	-2.69248
N	-1.466342	-0.510055	-2.172239
H	-1.390343	-1.520526	-2.119622
H	-2.200424	-0.247319	-1.471866
F	-2.429231	0.0	0.0
