15

C	0.0	0.0	0.0
C	-0.453332	-0.09364	-1.49671
Br	1.929563	0.0	0.0
H	0.445927	0.00086	-2.113918
N	-0.371168	1.309767	0.687337
O	-0.594963	1.268873	1.885143
O	-0.289256	2.314437	-0.005493
C	-0.427289	-1.119652	0.829034
N	-0.574303	-2.044866	1.539234
C	-1.360176	0.976134	-1.954734
N	-1.960742	1.724434	-2.636903
N	-1.007177	-1.421652	-1.711814
H	-1.203149	-1.521574	-2.703227
H	-1.891259	-1.367488	-1.195671
F	-2.33269	0.0	0.0
