15

C	0.0	0.0	0.0
C	-0.280515	-0.090293	-1.599066
Br	1.935625	0.0	0.0
H	0.580289	-0.665727	-1.946901
N	-0.476358	1.2012	0.786672
O	-0.607776	2.252454	0.185302
O	-0.574129	1.030285	1.993559
C	-0.450882	-1.231604	0.628488
N	-0.609979	-2.319866	1.045581
C	-0.105127	1.22971	-2.233067
N	0.0866	2.20285	-2.86258
N	-1.453469	-0.739444	-2.109041
H	-2.193958	-0.457468	-1.423805
H	-1.314385	-1.736903	-1.992718
F	-2.419119	0.0	0.0
