15

C	0.0	0.0	0.0
C	-0.271874	0.023831	-1.602955
Br	1.935486	0.0	0.0
H	0.566181	-0.570946	-1.976973
N	-0.485448	1.144371	0.860186
O	-0.580543	0.897285	2.053508
O	-0.626961	2.229008	0.324058
C	-0.454575	-1.272353	0.536705
N	-0.620085	-2.386797	0.874011
C	-0.024022	1.373106	-2.148443
N	0.215467	2.378715	-2.707488
N	-1.464596	-0.536525	-2.162639
H	-1.357674	-1.544293	-2.137857
H	-2.198891	-0.300846	-1.45196
F	-2.433473	0.0	0.0
