15

C	0.0	0.0	0.0
C	-0.451723	-0.083418	-1.498585
Br	1.929287	0.0	0.0
H	0.44747	0.012726	-2.114544
N	-0.370495	1.305857	0.69481
O	-0.596791	1.257819	1.891997
O	-0.285573	2.315037	0.008831
C	-0.431751	-1.122306	0.82279
N	-0.56771	-2.049018	1.533872
C	-1.361561	0.988036	-1.944807
N	-1.976118	1.739674	-2.609721
N	-1.009084	-1.410112	-1.717739
H	-1.893833	-1.349083	-1.203173
H	-1.205774	-1.507765	-2.707318
F	-2.337642	0.0	0.0
