17

C	-0.418267	0.017207	-1.466502
C	0.0	0.0	0.0
F	-0.039279	-1.168601	-2.079963
H	1.095005	0.0	0.0
C	-1.878741	0.181782	-1.640392
N	-3.014584	0.448492	-1.782369
C	0.329269	1.139628	-2.171979
H	1.389829	1.022109	-1.929135
H	-0.014191	2.118285	-1.837051
H	0.16658	1.05227	-3.2484
N	-0.5084	-1.217556	0.697563
O	-0.038863	-1.438766	1.810343
O	-1.350271	-1.928211	0.133087
N	-0.377726	1.156726	0.748604
H	-1.1753	1.65583	0.380039
H	0.427745	1.761377	0.861131
H	2.678456	0.0	0.0
