17

C	-0.394918	-0.091268	-1.466172
C	0.0	0.0	0.0
F	-1.793796	-0.166819	-1.615432
H	1.101235	0.0	0.0
C	-0.01422	1.202429	-2.08098
N	0.238276	2.211579	-2.62559
C	0.279012	-1.200942	-2.248662
H	-0.111494	-2.160371	-1.92542
H	0.100965	-1.062097	-3.317823
H	1.35143	-1.148181	-2.034694
N	-0.409387	-1.193335	0.789025
O	-0.797272	-2.214835	0.204696
O	-0.24353	-1.121966	2.004781
N	-0.427443	1.189845	0.66834
H	-1.148758	1.686234	0.166972
H	0.376323	1.787775	0.816391
H	2.596451	0.0	0.0
