17

C	-0.475266	0.088053	-1.45102
C	0.0	0.0	0.0
F	-0.085031	1.349627	-1.911078
H	1.109697	0.0	0.0
C	0.187759	-0.874518	-2.353855
N	0.666906	-1.550467	-3.18523
C	-1.982219	0.006806	-1.586465
H	-2.40986	0.756005	-0.919357
H	-2.271798	0.225447	-2.616078
H	-2.328677	-0.988343	-1.312966
N	-0.391541	-1.221223	0.609242
O	-0.462464	-1.268222	1.860293
O	-0.491577	-2.234318	-0.120073
N	-0.388971	1.163732	0.754117
H	-0.835668	0.827898	1.603318
H	0.477122	1.613963	1.042437
H	2.379389	0.0	0.0
