17

C	-0.471094	-0.054502	-1.452633
C	0.0	0.0	0.0
F	-0.095291	1.168275	-2.019784
H	1.109906	0.0	0.0
C	0.208833	-1.086358	-2.262422
N	0.688811	-1.833724	-3.032665
C	-1.975984	-0.170597	-1.586488
H	-2.306086	-1.14781	-1.233084
H	-2.264151	-0.043848	-2.633203
H	-2.419354	0.623223	-0.98352
N	-0.387439	-1.150369	0.729074
O	-0.455802	-1.072225	1.979079
O	-0.474764	-2.237099	0.105311
N	-0.41246	1.232469	0.632945
H	0.431843	1.795911	0.724791
H	-0.68908	0.976261	1.573181
H	2.375745	0.0	0.0
