17

C	-0.478773	-0.099896	-1.441948
C	0.0	0.0	0.0
F	-1.864437	-0.376896	-1.468577
H	1.097751	0.0	0.0
C	-0.327711	1.23493	-2.057919
N	-0.241586	2.235151	-2.666647
C	0.250324	-1.115481	-2.297251
H	-0.003239	-0.963205	-3.348389
H	1.324887	-0.983009	-2.13699
H	-0.028618	-2.118198	-1.985879
N	-0.388182	-1.226326	0.752314
O	-0.056078	-2.320133	0.286785
O	-0.949336	-1.087841	1.84679
N	-0.4329	1.19878	0.636868
H	-1.309847	1.060773	1.121016
H	0.275793	1.465203	1.313348
H	2.596878	0.0	0.0
