17

C	-0.402456	-0.104268	-1.468375
C	0.0	0.0	0.0
F	-1.811047	-0.164261	-1.572462
H	1.091598	0.0	0.0
C	-0.018041	1.169381	-2.113086
N	0.227028	2.165613	-2.684546
C	0.208131	-1.259577	-2.229526
H	1.28625	-1.252691	-2.041259
H	-0.207179	-2.197172	-1.86674
H	0.001074	-1.149177	-3.296428
N	-0.491751	-1.223321	0.703398
O	-1.41298	-1.121304	1.51452
O	0.07704	-2.283374	0.423799
N	-0.445273	1.172589	0.669871
H	-1.311897	1.546659	0.311695
H	0.295343	1.861713	0.646132
H	2.664006	0.0	0.0
