15
Coordinates from ORCA-job run
  C   -0.43669976552309      0.31732666096081     -0.23335107044665
  C   1.05562636136477      0.12274386661111      0.00539245343291
  F   -0.59860517962555      0.12813429217471     -1.62365593336362
  H   1.57029996963260      0.94318956445868     -0.52283295920107
  H   1.24960674946556      0.24508569003719      1.07522053363670
  N   -0.89412570075268      1.63974234350329      0.06641332405187
  H   -1.25075637670189      1.71223462202382      1.00750431775070
  H   -0.17624953431272      2.33615766475123     -0.08510974933995
  C   -1.29967587807837     -0.71384969414032      0.45655722429923
  H   -0.99774026872575     -1.71028841319546      0.14191341239738
  H   -2.34323639136966     -0.54027938600848      0.18929921458000
  H   -1.18740500932674     -0.64681561578112      1.54179967905390
  N   1.48055844289010     -1.20802050860325     -0.40866350036078
  H   1.36595507952688     -1.28238059907529     -1.41172846837307
  H   2.46144750153652     -1.34198048771690     -0.19875847811756
