15
Coordinates from ORCA-job run
  C   -0.49755945657649      0.10073235850298     -0.10166242389490
  C   0.88923347032401     -0.52707745267614     -0.19071431806100
  F   -0.94733142827276      0.24455660750101     -1.44848147941070
  H   0.81597859595426     -1.35772459420598     -0.89801587206259
  H   1.14385493699606     -0.94297484624930      0.78922845363152
  N   -0.40397555140218      1.36231255613313      0.53360549844114
  H   0.28917375990807      1.90868560141604      0.03353260181495
  H   -1.29643979747840      1.83928867146148      0.50752535432525
  C   -1.50420703023692     -0.79997344155784      0.57866589242165
  H   -2.50244907114336     -0.36355737814534      0.49791856272655
  H   -1.52558656314207     -1.77904075847779      0.09579177237829
  H   -1.25490845989805     -0.91844045636295      1.63344697402354
  N   1.87513902189881      0.45710484662800     -0.63847016325639
  H   2.56486074096603      0.62798641313744      0.07841445618423
  H   2.35421683210300      0.14612187289524     -1.46978530926155
