15

C	-0.603773	-0.042942	-1.397467
C	0.0	0.0	0.0
Br	0.150281	1.422531	-2.432226
H	1.09129	0.0	0.0
H	-0.296605	0.959723	0.437615
N	-0.212209	-1.332722	-2.116406
O	-0.726584	-1.519298	-3.217451
O	0.552584	-2.094341	-1.538088
C	-2.117126	0.04463	-1.419876
H	-2.430789	0.956794	-0.909972
H	-2.48278	0.057322	-2.444712
H	-2.537509	-0.818214	-0.895556
C	-0.547515	-1.06302	0.837142
N	-1.044232	-1.88916	1.508007
Cl	3.326198	0.0	0.0
