15

C	-0.357278	-0.110867	-1.473561
C	0.0	0.0	0.0
Br	-2.303296	-0.12426	-1.759657
H	1.095029	0.0	0.0
H	-0.361433	0.939532	0.417322
N	0.121454	1.175114	-2.148897
O	0.697981	1.06172	-3.224535
O	-0.135723	2.229572	-1.57833
C	0.277284	-1.309911	-2.124448
H	1.356389	-1.23971	-1.964659
H	-0.099114	-2.211482	-1.641494
H	0.058939	-1.344849	-3.189286
C	-0.516978	-1.125167	0.761275
N	-0.976468	-2.023401	1.362918
Cl	3.277903	0.0	0.0
