15

C	-0.632622	-0.019183	-1.384733
C	0.0	0.0	0.0
Br	0.160779	1.40138	-2.453776
H	1.091459	0.0	0.0
H	-0.298573	0.942492	0.472269
N	-0.289207	-1.325709	-2.097896
O	0.680266	-1.950723	-1.690399
O	-1.012566	-1.642747	-3.040597
C	-2.138808	0.139843	-1.366084
H	-2.537735	0.164205	-2.377416
H	-2.585024	-0.69915	-0.825338
H	-2.38975	1.069841	-0.853042
C	-0.526251	-1.098289	0.806063
N	-0.996697	-1.962375	1.447403
Cl	3.342874	0.0	0.0
