15

C	-0.424821	-0.159744	-1.456071
C	0.0	0.0	0.0
Br	-0.021807	-1.942745	-2.090585
H	1.105836	0.0	0.0
H	-0.317676	0.994857	0.329463
N	-1.939569	0.084483	-1.541515
O	-2.708632	-0.826033	-1.819934
O	-2.272824	1.239045	-1.277699
C	0.289979	0.860956	-2.322052
H	-0.000477	0.752575	-3.369019
H	1.364758	0.699954	-2.208897
H	0.040965	1.865256	-1.975352
C	-0.566929	-0.99964	0.891833
N	-1.050278	-1.780542	1.624007
Cl	3.300026	0.0	0.0
