15

C	-0.397052	0.026767	-1.466466
C	0.0	0.0	0.0
Br	-0.094736	-1.709001	-2.290038
H	1.093468	0.0	0.0
H	-0.314069	0.945696	0.452269
N	-1.886722	0.332899	-1.644797
O	-2.552205	0.528883	-0.630089
O	-2.307682	0.41037	-2.794323
C	0.386741	1.089094	-2.209929
H	0.129842	2.070281	-1.797622
H	0.148767	1.070871	-3.272583
H	1.450901	0.908198	-2.041661
C	-0.558774	-1.099467	0.770679
N	-1.007663	-1.98589	1.395848
Cl	3.318099	0.0	0.0
