17

C	-0.481056	0.091068	-1.464213
C	0.0	0.0	0.0
F	-1.819966	0.583103	-1.418199
H	1.090625	0.0	0.0
C	0.340954	1.049349	-2.295181
H	0.025189	0.970731	-3.340098
H	0.188137	2.06922	-1.954432
H	1.397038	0.794143	-2.195781
N	-0.439663	-1.20668	-2.024817
H	-0.637481	-1.173468	-3.015325
H	-1.078772	-1.840184	-1.562049
C	-0.528731	-1.186519	0.659067
N	-0.945787	-2.185842	1.114295
N	-0.434619	1.2155	0.770279
O	-0.018046	2.293767	0.364054
O	-1.156536	1.058838	1.751702
Cl	3.21678	0.0	0.0
