17

C	-0.330353	-0.011136	-1.513434
C	0.0	0.0	0.0
F	-1.715235	-0.094347	-1.647778
H	1.091705	0.0	0.0
C	0.165998	1.224412	-2.22581
H	-0.393458	2.103987	-1.912931
H	0.02481	1.059897	-3.294846
H	1.223292	1.380062	-2.003673
N	0.234285	-1.181942	-2.12725
H	1.246748	-1.127542	-2.038274
H	-0.073798	-2.013198	-1.632913
C	-0.522675	-1.197958	0.640494
N	-0.904693	-2.209283	1.099548
N	-0.515786	1.212077	0.70475
O	0.068705	2.266858	0.475966
O	-1.492123	1.084583	1.44436
Cl	3.202894	0.0	0.0
