17

C	-0.475428	-0.04013	-1.46437
C	0.0	0.0	0.0
F	-0.139324	1.239335	-1.971907
H	1.090787	0.0	0.0
C	0.3346	-1.054307	-2.237736
H	0.061548	-0.995077	-3.295372
H	1.397842	-0.841633	-2.116838
H	0.118576	-2.05933	-1.871974
N	-1.869691	-0.278261	-1.575496
H	-2.14737	-0.217001	-2.547107
H	-2.391343	0.392815	-1.024736
C	-0.516321	-1.126644	0.763519
N	-0.907465	-2.045117	1.381744
N	-0.486313	1.276622	0.63621
O	-1.707052	1.390222	0.786618
O	0.345593	2.118864	0.936496
Cl	3.279182	0.0	0.0
