17

C	-0.499889	-0.063537	-1.477194
C	0.0	0.0	0.0
F	-0.242695	1.208785	-1.976924
H	1.090973	0.0	0.0
C	0.342464	-1.063943	-2.2335
H	0.051498	-1.031188	-3.284837
H	1.396972	-0.808718	-2.116307
H	0.186642	-2.07451	-1.846983
N	-1.899999	-0.303991	-1.661196
H	-2.103119	-1.283768	-1.511487
H	-2.436888	0.237865	-0.992706
C	-0.510628	-1.148842	0.731694
N	-0.927367	-2.110742	1.261698
N	-0.529071	1.254624	0.622244
O	0.246017	2.184182	0.787863
O	-1.739178	1.274597	0.875919
Cl	3.266268	0.0	0.0
