17

C	-0.408414	-0.019793	-1.486765
C	0.0	0.0	0.0
F	0.032367	-1.292911	-1.92848
H	1.092017	0.0	0.0
C	-1.897118	0.008912	-1.753053
H	-2.376778	-0.840786	-1.265071
H	-2.344301	0.932725	-1.390441
H	-2.062531	-0.074206	-2.830742
N	0.280692	1.036339	-2.118098
H	0.156961	0.997258	-3.121518
H	1.271415	1.004938	-1.883886
C	-0.547423	-1.135545	0.72404
N	-0.991271	-2.062219	1.292188
N	-0.484093	1.273821	0.630183
O	-1.630818	1.277397	1.085636
O	0.279915	2.22911	0.617052
Cl	3.2362	0.0	0.0
