17

C	-0.332454	-0.007998	-1.513527
C	0.0	0.0	0.0
F	-1.718763	-0.067622	-1.646015
H	1.091677	0.0	0.0
C	0.186679	1.22055	-2.222458
H	-0.358118	2.109199	-1.90877
H	0.046003	1.061112	-3.292281
H	1.245882	1.357885	-1.995975
N	0.21196	-1.186639	-2.130225
H	-0.092371	-2.014257	-1.627632
H	1.22671	-1.139578	-2.065051
C	-0.527012	-1.195406	0.641539
N	-0.912078	-2.206498	1.098575
N	-0.51546	1.214346	0.700807
O	0.081077	2.264968	0.483551
O	-1.505479	1.09343	1.422369
Cl	3.204623	0.0	0.0
