17

C	-0.463296	-0.034017	-1.464201
C	0.0	0.0	0.0
F	-0.071153	1.223568	-1.979623
H	1.092312	0.0	0.0
C	0.325912	-1.083059	-2.213793
H	0.091634	-1.007223	-3.280144
H	0.047806	-2.076204	-1.862162
H	1.391975	-0.924621	-2.059949
N	-1.859242	-0.229501	-1.61423
H	-2.101038	-0.212046	-2.599078
H	-2.365912	0.494682	-1.12373
C	-0.516059	-1.131219	0.754764
N	-0.917659	-2.048532	1.368446
N	-0.452644	1.26693	0.686433
O	0.372691	1.870601	1.353304
O	-1.630622	1.600066	0.547122
Cl	3.275364	0.0	0.0
