17

C	-0.387277	0.048354	-1.494945
C	0.0	0.0	0.0
F	-0.061767	-1.254794	-1.960837
H	1.092023	0.0	0.0
C	-1.863146	0.223693	-1.774182
H	-2.432218	-0.571885	-1.291306
H	-2.026267	0.16023	-2.853373
H	-2.215148	1.190509	-1.416467
N	0.405647	1.043024	-2.101602
H	0.311586	1.011428	-3.107714
H	1.383544	0.936939	-1.835042
C	-0.5598	-1.16469	0.663576
N	-1.016787	-2.115099	1.178961
N	-0.485412	1.247045	0.678278
O	-1.603735	1.208884	1.197329
O	0.247414	2.225648	0.63534
Cl	3.232815	0.0	0.0
