17

C	-0.503258	-0.035364	-1.477163
C	0.0	0.0	0.0
F	-0.254101	1.248561	-1.951869
H	1.090967	0.0	0.0
C	0.342105	-1.016366	-2.255915
H	0.198271	-2.035077	-1.885637
H	1.395661	-0.754211	-2.142112
H	0.042833	-0.968363	-3.30455
N	-1.903028	-0.279834	-1.661123
H	-2.099622	-1.265351	-1.536589
H	-2.441013	0.241415	-0.977052
C	-0.510106	-1.162307	0.710262
N	-0.927518	-2.134935	1.219729
N	-0.529502	1.243056	0.645865
O	-1.738357	1.254601	0.905254
O	0.243111	2.172458	0.822706
Cl	3.267517	0.0	0.0
