15
Coordinates from ORCA-job run
  C   0.87653296449714     -0.40557589135066     -0.42253132225571
  C   -0.34326277424022      0.05582288556302      0.39313970303286
  F   0.79727465418754      0.04215365857115     -1.71829807816011
  H   -0.16661861665740     -0.18306998770741      1.44512872669572
  C   1.02359638854380     -1.87070735671911     -0.40650684478066
  N   1.17239978760262     -3.03372089456864     -0.33655728906084
  C   2.07249304557195      0.19561948190657      0.20014156215315
  N   3.00024325008222      0.70002257020087      0.71469517063543
  N   -1.56756678280802     -0.72994727218135      0.01088773774489
  O   -2.47280469367781     -0.72076249491793      0.83778547805349
  O   -1.58843804320651     -1.26638165950936     -1.09312106799362
  C   -0.64393989998659      1.53377382580301      0.20317830279809
  H   0.21626094099703      2.13751936983002      0.49707880473544
  H   -1.49238705527229      1.80721750533742      0.83047303503655
  H   -0.88378316563344      1.73803625974240     -0.84049391863468
