15
Coordinates from ORCA-job run
  C   0.80057149487163     -0.75160064889339      0.24387887371228
  C   -0.45525470991517      0.09611339591276      0.48869157443841
  F   0.62299275807076     -1.97971796297516      0.84220289736246
  H   -0.54974799747325      0.23678007058742      1.56715371493109
  C   1.93707677418414     -0.06932582522435      0.88925435842570
  N   2.81495164129149      0.50440069087891      1.41885960277951
  C   1.11680501829569     -0.94069059080516     -1.18129683207653
  N   1.44199958568386     -1.04833454610510     -2.30491498216672
  N   -1.66155975161649     -0.70622812594091      0.09390159809047
  O   -2.59572217600801     -0.70851704227038      0.88844157945995
  O   -1.62956424488334     -1.25511309057936     -1.00288124574586
  C   -0.45648624785787      1.40945837140743     -0.26968838511773
  H   -0.42327924331602      1.23021282369221     -1.34561359919335
  H   0.40258001530391      2.01776197138700      0.01993181951796
  H   -1.36436291663134      1.96480050892809     -0.02892097441764
