15
Coordinates from ORCA-job run
  C   0.88174803468690     -0.30850030529399     -0.48595764576632
  C   -0.33762255963838     -0.00749843054110      0.40263398059850
  F   0.76094244632469      0.30523607918386     -1.70799653622855
  H   -0.13139060573587     -0.37830217061591      1.41000665579115
  C   1.08140353479975     -1.75598538841354     -0.66881781891952
  N   1.27265626866558     -2.91138112924502     -0.75881752978778
  C   2.06736605302170      0.24883711955636      0.19472363676409
  N   2.98662101471374      0.71449801119520      0.75868055351356
  N   -1.53998440451175     -0.78179316632089     -0.06385706862525
  O   -1.56342032043429     -1.16549496101784     -1.22971471114369
  O   -2.42825903832632     -0.91857172901739      0.77019283867917
  C   -0.69515604552467      1.46978143508288      0.41717113645704
  H   -0.96280654199265      1.80209873461178     -0.58603174719491
  H   -1.54032692847844      1.62458227408409      1.08789466753846
  H   0.14822909243001      2.06149362675150      0.77688958832406
