15
Coordinates from ORCA-job run
  C   0.77666438717151     -0.77767343215798      0.24027093600748
  C   -0.45468931272268      0.10488191063571      0.48704178506312
  F   0.55888189513625     -2.00545625723649      0.82542227631507
  H   -0.55012923262336      0.23819356644589      1.56637902483767
  C   1.92935773507885     -0.13598452494292      0.89837088172638
  N   2.82087334698278      0.40631649467393      1.43808549219650
  C   1.09552103926473     -0.96128958575816     -1.18512758299781
  N   1.42584098421246     -1.06585996558892     -2.30750186216632
  N   -1.68267735631820     -0.65695243767566      0.07931731973138
  O   -1.65747920915144     -1.20773149778955     -1.01665719765057
  O   -2.62487188403263     -0.62661403807205      0.86362427245326
  C   -0.41338960788860      1.42475950627475     -0.25872973815496
  H   -0.38078329944398      1.25467355969226     -1.33620066428592
  H   -1.30541242361841      2.00458065659552     -0.01650410472241
  H   0.46229293795264      2.00415604490367      0.04020916164711
