15
Coordinates from ORCA-job run
  C   0.79066537555187     -0.77460969922713      0.19349956773016
  C   -0.43738327106598      0.09195361981509      0.50590188243330
  F   0.60399705419782     -2.01652291784903      0.76021818711407
  H   -0.49345947999152      0.19894436454741      1.59087108742049
  C   1.96249617522924     -0.13747378903804      0.82105927998086
  N   2.86735985699472      0.40335963661661      1.33957169611225
  C   1.05491571451909     -0.92742320645491     -1.24640584872906
  N   1.33903378588009     -1.01077558908157     -2.38318586576611
  N   -1.67325471007442     -0.67263671360733      0.12755029401845
  O   -1.69473561460140     -1.17664805101296     -0.99076426268859
  O   -2.57524127937677     -0.69217807265639      0.95842376264269
  C   -0.43336449060524      1.42794909775271     -0.21125535808423
  H   -1.31964696611333      1.99569432549961      0.07650589453492
  H   0.44861585811484      2.00771498985959      0.06764576302773
  H   -0.43999800865898      1.28165200483635     -1.29263607974693
