11
Coordinates from ORCA-job run
  C   0.62244379327440     -0.67449483265527     -0.40614993419998
  C   -0.31794033260660     -0.28295554712933      0.71951507720558
  Cl  -0.29727644097561     -1.25139758786922     -1.81947328964709
  H   -0.93599341480073     -1.12918627203521      1.01398627218873
  H   1.20147052183060     -1.53161553304614     -0.05070078318550
  H   0.24699040222731      0.08217205175248      1.58114725486453
  C   1.57056310919549      0.37073314088631     -0.78210219856336
  N   2.40237305161493      1.15219895751038     -1.05680822630456
  N   -1.26631217639130      0.81372566366533      0.34403768772666
  O   -2.34119908758827      0.81139007675574      0.93381896466546
  O   -0.88511942578020      1.63942988216494     -0.47727082475045
