11
Coordinates from ORCA-job run
  C   0.55050983002120     -0.75000290793529     -0.37182291653580
  C   -0.15873434287102     -0.11908935273925      0.81326625115169
  Cl  -0.61825856820409     -1.58939450514000     -1.42364973548121
  H   0.55351514059242      0.42048937490177      1.44280757677482
  H   1.20996600709870     -1.52502055177636      0.02914008187375
  H   -0.67399785853502     -0.87800942647456      1.39899036907950
  C   1.37863817907476      0.17814696118116     -1.13705592099729
  N   2.12041837554671      0.87644175970489     -1.72033894508376
  N   -1.20243713447498      0.87584293697194      0.40969129566726
  O   -0.98803722243201      1.54378727207012     -0.59516591085372
  O   -2.17258240581667      0.96580843923560      1.15413785440476
