11
Coordinates from ORCA-job run
  C   0.63086754414337     -0.66282722949306     -0.40820724038231
  C   -0.33228363737006     -0.29894132262875      0.70772099038822
  Cl  -0.26364159220554     -1.19086382232878     -1.85675887546681
  H   -0.95252359675092     -1.15334673275265      0.97191688570010
  H   1.19741690231260     -1.53378527576094     -0.06658457559127
  H   0.21503772396324      0.05241264577260      1.58627238241972
  C   1.59254650571001      0.38658382934143     -0.73466752454415
  N   2.43344087361516      1.17347322683121     -0.96224210023404
  N   -1.27639988168447      0.80079610826787      0.33203801250853
  O   -0.85564081875969      1.67657238921171     -0.41482302431861
  O   -2.38882002297370      0.74992618353936      0.84533506952062
