12

C	0.0	0.0	0.0
C	-0.533761	0.070675	-1.414487
Br	1.915943	0.0	0.0
H	-1.654102	0.078629	-1.188211
H	-0.391017	-0.848295	0.555526
H	-0.207947	0.996043	-1.892106
N	-0.412729	1.225461	0.780195
O	-0.485914	1.093604	1.996293
O	-0.511701	2.280323	0.162398
C	-0.139606	-1.082356	-2.196905
N	0.15506	-2.029737	-2.828877
H	-2.756753	0.0	0.0
