12

C	0.0	0.0	0.0
C	-0.34695	0.045124	-1.497386
Br	1.925602	0.0	0.0
H	-1.413327	0.273313	-1.562397
H	-0.349913	-0.874694	0.529864
H	0.244506	0.828544	-1.976822
N	-0.53645	1.191614	0.694533
O	-0.54758	2.246737	0.035147
O	-0.5591	1.138992	1.934286
C	-0.085947	-1.235744	-2.143125
N	0.100126	-2.257955	-2.690681
H	-2.287528	0.0	0.0
