13

C	0.0	0.0	0.0
C	-0.546673	-0.09805	-1.419198
Br	1.959063	0.0	0.0
H	-0.106666	-0.987446	-1.882595
H	-0.309452	-0.862513	0.590685
H	-1.622756	-0.260103	-1.289014
C	-0.394466	1.226501	0.691807
N	-0.609692	2.238357	1.248287
C	-0.30718	1.144021	-2.263297
H	-0.833016	1.998175	-1.831098
H	0.754444	1.390234	-2.350355
H	-0.705679	0.988162	-3.269288
Cl	-3.612095	0.0	0.0
