16

C	-0.319077	-0.084148	-1.48583
C	0.0	0.0	0.0
Br	0.287723	1.631657	-2.40531
H	1.09775	0.0	0.0
N	0.425092	-1.198403	-1.957293
H	0.408552	-1.245665	-2.969703
H	1.391516	-1.088227	-1.621359
C	-1.735206	-0.210088	-1.835961
N	-2.853037	-0.408407	-2.139675
N	-0.43675	-1.181024	0.727408
H	-0.660349	-1.911406	0.058539
H	0.377688	-1.50423	1.25062
N	-0.582188	1.173265	0.686453
O	-1.432641	1.861617	0.115338
O	-0.174804	1.360994	1.832246
H	2.644559	0.0	0.0
