16

C	-0.33463	0.116995	-1.471672
C	0.0	0.0	0.0
Br	-2.384051	0.610384	-1.661894
H	1.093681	0.0	0.0
N	0.471085	1.046246	-2.135953
H	1.320772	1.229825	-1.599556
H	0.671619	0.781669	-3.089092
C	-0.314695	-1.209421	-2.094826
N	-0.237538	-2.200861	-2.723574
N	-0.496192	-1.186362	0.593599
H	-1.393539	-1.018874	1.031694
H	0.164686	-1.488791	1.300715
N	-0.362161	1.24467	0.73345
O	0.073767	2.306058	0.28862
O	-1.011055	1.135582	1.779504
H	2.565218	0.0	0.0
