16

C	-0.258609	0.002732	-1.506938
C	0.0	0.0	0.0
Br	-2.212179	0.26096	-1.914492
H	1.094053	0.0	0.0
N	0.521518	0.928507	-2.284904
H	0.309954	1.849843	-1.915167
H	1.492284	0.732491	-2.008316
C	0.030475	-1.355269	-1.990497
N	0.282298	-2.437689	-2.373471
N	-0.449831	-1.128174	0.731895
H	0.31423	-1.783276	0.838851
H	-1.259223	-1.575504	0.323281
N	-0.396799	1.269223	0.656945
O	-0.491016	1.277812	1.881585
O	-0.498783	2.287182	-0.045486
H	2.553684	0.0	0.0
