14

C	-0.370891	0.058056	-1.468914
C	0.0	0.0	0.0
Br	-2.334153	0.439591	-1.720134
H	1.095876	0.0	0.0
H	-0.302123	0.936837	0.478187
C	0.439125	1.155679	-2.138446
H	0.171096	2.120995	-1.704025
H	1.494452	0.949264	-1.907133
H	0.265131	1.182159	-3.215107
C	-0.150304	-1.225721	-2.130123
N	0.031769	-2.254986	-2.666936
C	-0.559677	-1.124377	0.722564
N	-0.993816	-2.033922	1.32719
H	2.696373	0.0	0.0
