14

C	-0.382108	0.040331	-1.465481
C	0.0	0.0	0.0
Br	-2.352419	0.389778	-1.707644
H	1.095834	0.0	0.0
H	-0.301714	0.940843	0.470833
C	0.40347	1.147158	-2.148911
H	0.122112	2.110351	-1.717822
H	0.216658	1.164421	-3.224147
H	1.463991	0.959712	-1.927295
C	-0.144481	-1.244484	-2.119205
N	0.059369	-2.2737	-2.649543
C	-0.552761	-1.117724	0.738396
N	-0.982024	-2.022875	1.353285
H	2.69221	0.0	0.0
