14

C	-0.539682	0.017978	-1.428664
C	0.0	0.0	0.0
Br	0.188352	-1.523848	-2.427865
H	1.092727	0.0	0.0
H	-0.293772	0.937858	0.488063
C	-2.062191	-0.06124	-1.516726
H	-2.407329	-0.984035	-1.049708
H	-2.494812	0.79076	-0.983595
H	-2.394467	-0.038862	-2.556569
C	-0.080302	1.226802	-2.113228
N	0.261635	2.230818	-2.620195
C	-0.534172	-1.116217	0.757463
N	-0.953583	-2.021528	1.380176
H	2.681115	0.0	0.0
