14

C	-0.527703	-0.054683	-1.421812
C	0.0	0.0	0.0
F	0.071758	0.890193	-2.22891
H	1.089871	0.0	0.0
H	-1.604671	0.140174	-1.447466
C	-0.285627	-1.386899	-2.00633
N	-0.168677	-2.442804	-2.50411
N	-0.348728	-1.126253	0.818531
H	0.491555	-1.679729	0.959137
H	-1.084069	-1.703748	0.434587
N	-0.476379	1.247969	0.643896
O	-1.191084	2.031418	-0.006615
O	-0.079169	1.458621	1.788491
H	2.583247	0.0	0.0
