14

C	-0.576804	-0.016494	-1.412075
C	0.0	0.0	0.0
F	-0.254512	1.072567	-2.192757
H	1.09002	0.0	0.0
H	-1.67268	-0.066625	-1.352505
C	-0.117634	-1.231951	-2.11257
N	0.195641	-2.165491	-2.750911
N	-0.422357	-1.211592	0.644187
H	-1.149167	-1.0037	1.317716
H	0.382378	-1.573892	1.148107
N	-0.434574	1.215085	0.716842
O	-0.963811	1.092081	1.834247
O	-0.172963	2.302403	0.195174
H	2.573464	0.0	0.0
