14

C	-0.487019	-0.027238	-1.422648
C	0.0	0.0	0.0
F	-1.888221	-0.039204	-1.474001
H	1.091406	0.0	0.0
H	-0.143271	-0.981012	-1.83007
C	-0.018742	1.043878	-2.314971
N	0.297431	1.806402	-3.148734
N	-0.386621	-1.196914	0.682124
H	0.341073	-1.400026	1.361024
H	-1.254835	-1.057777	1.182842
N	-0.411245	1.237125	0.689636
O	-0.744149	1.159972	1.881015
O	-0.295251	2.299859	0.067924
H	2.555753	0.0	0.0
