15

C	0.0	0.0	0.0
C	-0.551803	-0.410458	-1.364089
Br	1.960919	0.0	0.0
H	-1.616169	-0.142288	-1.3329
H	-0.045659	0.198167	-2.119544
C	-0.496491	1.385945	0.390092
H	-0.078866	1.692623	1.350606
H	-1.588711	1.343973	0.450074
H	-0.193583	2.105242	-0.375044
C	-0.364874	-0.991385	1.017708
N	-0.604537	-1.795707	1.840771
N	-0.318716	-1.825547	-1.63436
H	-0.477727	-1.996363	-2.619365
H	-1.032552	-2.34842	-1.137672
Br	-3.934503	0.0	0.0
