15

C	0.0	0.0	0.0
C	-0.435487	-0.248162	-1.444138
Br	1.973511	0.0	0.0
H	-1.528551	-0.183193	-1.440762
H	-0.033212	0.585242	-2.038802
C	-0.424226	1.367454	0.514127
H	-1.515435	1.398867	0.565904
H	0.012555	1.557333	1.49638
H	-0.054143	2.130569	-0.176863
C	-0.399625	-1.091338	0.882475
N	-0.679547	-1.963937	1.617748
N	-0.008758	-1.558864	-1.905978
H	-0.697393	-1.958801	-2.524216
H	0.886234	-1.516149	-2.372564
Br	-3.840379	0.0	0.0
