15

C	0.0	0.0	0.0
C	-0.499425	-0.294198	-1.426857
Br	1.975815	0.0	0.0
H	-1.578816	-0.106032	-1.397202
H	-0.028658	0.442192	-2.08749
C	-0.491399	1.351057	0.491277
H	-1.586036	1.306218	0.524858
H	-0.093328	1.579238	1.481847
H	-0.172612	2.125986	-0.209971
C	-0.368379	-1.07731	0.91692
N	-0.630233	-1.950824	1.658499
N	-0.275555	-1.632108	-1.935456
H	0.672726	-1.931424	-1.744984
H	-0.909942	-2.268612	-1.468225
Br	-3.86622	0.0	0.0
