15

C	0.0	0.0	0.0
C	-0.510094	0.257108	-1.434357
Br	1.976187	0.0	0.0
H	-1.587595	0.058257	-1.39231
H	-0.041081	-0.474061	-2.099416
C	-0.509593	1.011469	1.009793
H	-0.162836	0.766049	2.015262
H	-0.153242	2.009531	0.748985
H	-1.605215	0.977631	0.97416
C	-0.344702	-1.36658	0.398668
N	-0.565308	-2.478708	0.709321
N	-0.305933	1.595419	-1.948135
H	-0.960608	2.229343	-1.509364
H	0.637886	1.914915	-1.765292
Br	-3.896494	0.0	0.0
