15

C	0.0	0.0	0.0
C	-0.510862	0.203778	-1.442257
Br	1.973646	0.0	0.0
H	-1.586926	0.003038	-1.393301
H	-0.038925	-0.548427	-2.080742
C	-0.506776	1.047016	0.973582
H	-0.14459	0.847686	1.983647
H	-0.16334	2.036454	0.665674
H	-1.601821	1.002809	0.951586
C	-0.340227	-1.352682	0.450429
N	-0.52226	-2.460367	0.7989
N	-0.311433	1.522583	-2.004568
H	0.635228	1.847574	-1.84396
H	-0.962475	2.172788	-1.584289
Br	-3.877946	0.0	0.0
