15

C	-0.414031	-0.06345	-1.455493
C	0.0	0.0	0.0
Cl	-2.270119	-0.670892	-1.507632
H	1.094244	0.0	0.0
H	-0.318539	-0.908426	0.515917
N	-0.303078	1.179618	-2.09025
H	-0.797467	1.915465	-1.603115
H	-0.586687	1.141195	-3.059173
C	0.377217	-1.131065	-2.172304
H	1.436305	-0.88894	-2.022562
H	0.174776	-2.111451	-1.740458
H	0.123673	-1.157462	-3.235282
C	-0.535466	1.162249	0.682902
N	-0.95907	2.130367	1.198308
H	2.776081	0.0	0.0
