15

C	-0.462479	0.049642	-1.453963
C	0.0	0.0	0.0
Cl	0.025215	-1.598423	-2.172384
H	1.09223	0.0	0.0
H	-0.347846	-0.91471	0.489689
N	-1.871138	0.242239	-1.571421
H	-2.368063	-0.478422	-1.061421
H	-2.151316	0.198133	-2.544622
C	0.309718	1.097389	-2.227059
H	0.038168	2.082356	-1.838504
H	1.378591	0.931317	-2.071639
H	0.067036	1.052142	-3.292852
C	-0.47991	1.157947	0.740877
N	-0.839688	2.088864	1.361595
H	2.817943	0.0	0.0
