15

C	-0.412634	-0.06915	-1.455567
C	0.0	0.0	0.0
Cl	-2.27341	-0.663492	-1.502651
H	1.094257	0.0	0.0
H	-0.320887	-0.906352	0.517768
N	-0.290573	1.170524	-2.093527
H	-0.57831	1.131264	-3.061686
H	-0.777497	1.911744	-1.607018
C	0.37318	-1.14399	-2.168632
H	0.120084	-1.173923	-3.231221
H	1.434329	-0.907534	-2.021152
H	0.165394	-2.121234	-1.733025
C	-0.530642	1.165031	0.682223
N	-0.933031	2.13004	1.219637
H	2.772329	0.0	0.0
