17

C	-0.405635	0.054691	-1.467513
C	0.0	0.0	0.0
Br	-2.277624	0.641408	-1.666625
H	1.094635	0.0	0.0
H	-0.302506	0.960824	0.429302
C	0.491941	0.980242	-2.256593
H	0.362943	1.994129	-1.874874
H	0.245139	0.962394	-3.319276
H	1.528812	0.679983	-2.095625
N	-0.329005	-1.356416	-2.0469
O	0.730082	-1.651048	-2.595468
O	-1.272389	-2.121207	-1.864885
C	-0.562153	-1.149269	0.819876
H	-1.651699	-1.205337	0.761468
H	-0.148653	-2.105182	0.495303
H	-0.271651	-1.008448	1.86326
Cl	3.482594	0.0	0.0
