17

C	-0.575701	-0.000905	-1.408001
C	0.0	0.0	0.0
Br	0.245684	-1.403427	-2.498719
H	1.090609	0.0	0.0
H	-0.31907	0.94805	0.456431
C	-2.078764	-0.163538	-1.474638
H	-2.434525	-0.072484	-2.499052
H	-2.557391	0.610056	-0.868039
H	-2.350118	-1.145428	-1.087779
N	-0.182864	1.319831	-2.077463
O	-1.087087	1.989643	-2.585254
O	0.996178	1.633629	-2.0367
C	-0.483032	-1.167942	0.853565
H	-1.5551	-1.130714	1.067046
H	0.055049	-1.14678	1.803531
H	-0.251556	-2.121028	0.372484
Cl	3.567467	0.0	0.0
