13

C	0.0	0.0	0.0
C	-0.492261	-0.006561	-1.435608
Cl	1.802477	0.0	0.0
H	-0.129211	-0.913825	-1.927369
H	-1.592206	-0.002976	-1.372884
H	-0.12467	0.867615	-1.979001
C	-0.378191	1.24247	0.686843
N	-0.538098	2.26055	1.249676
C	-0.492263	-1.219176	0.758037
H	-0.124603	-1.214393	1.787299
H	-0.129306	-2.118196	0.25127
H	-1.592215	-1.164118	0.727771
H	-3.199043	0.0	0.0
