13

C	0.0	0.0	0.0
C	-0.536239	0.01609	-1.418612
Cl	1.802196	0.0	0.0
H	-1.635083	0.053424	-1.310728
H	-0.165125	0.881995	-1.971792
H	-0.233495	-0.901454	-1.930195
C	-0.354686	1.25105	0.69164
N	-0.522519	2.268215	1.253982
C	-0.53624	-1.192809	0.768065
H	-0.165125	-1.200775	1.795555
H	-1.635084	-1.08159	0.742306
H	-0.233498	-2.114013	0.2631
H	-3.283289	0.0	0.0
