14

C	-0.276626	0.031464	-1.480512
C	0.0	0.0	0.0
Cl	-2.075754	-0.055426	-1.908989
H	1.097648	0.0	0.0
H	-0.373747	-0.951457	0.391233
C	0.211147	1.273297	-2.091381
N	0.549695	2.288343	-2.575647
C	0.346426	-1.115804	-2.148949
N	0.796684	-2.05574	-2.69065
C	-0.537897	1.200838	0.752986
H	-0.042961	2.112684	0.408612
H	-1.622202	1.330684	0.662254
H	-0.291968	1.087788	1.811608
F	2.573196	0.0	0.0
