14

C	-0.241279	-0.030578	-1.486659
C	0.0	0.0	0.0
Cl	-2.025879	0.059344	-1.967636
H	1.097543	0.0	0.0
H	-0.369246	0.955897	0.38484
C	0.40553	1.113397	-2.138243
N	0.873417	2.049377	-2.671465
C	0.260286	-1.273998	-2.084379
N	0.610924	-2.288547	-2.560372
C	-0.554618	-1.194226	0.748481
H	-1.647647	-1.274203	0.704697
H	-0.119461	-2.121042	0.363379
H	-0.254891	-1.116744	1.797499
F	2.570267	0.0	0.0
