14

C	-0.378133	0.174749	-1.467978
C	0.0	0.0	0.0
Cl	0.357266	1.68198	-2.13967
H	1.098768	0.0	0.0
H	-0.355113	-0.997248	0.292003
C	0.119806	-0.95633	-2.258959
N	0.45872	-1.886869	-2.890726
C	-1.828372	0.282879	-1.684971
N	-2.99798	0.355357	-1.791873
C	-0.571671	1.077686	0.901591
H	-0.183039	2.057594	0.616657
H	-1.667906	1.121614	0.905585
H	-0.231842	0.88574	1.922322
F	2.599603	0.0	0.0
