14
Coordinates from ORCA-job run
  C   0.67400064148957     -0.70961175117368      0.26775459900251
  C   -0.47917349315784      0.05478340120948     -0.33961146247746
  H   0.78059263620876     -1.67158248271260     -0.23943707923184
  H   -0.19434052317412      0.47073077245461     -1.31292532842730
  H   0.53152519676858     -0.87038379948615      1.33298036167720
  N   1.98397779386718     -0.01232718219527      0.09336321614671
  O   2.80755829843121     -0.15846180608716      0.98759904211558
  O   2.15508302451975      0.60756327975706     -0.95326679065649
  N   -0.77784604565069      1.27684062502944      0.49871984114605
  O   0.09414503971261      1.66969885255457      1.26679811078881
  O   -1.86379713626493      1.81259279674592      0.30322680850127
  N   -1.66608120455941     -0.76986979700445     -0.32224051678461
  H   -1.57845130672345     -1.50007728060883     -1.01855975265792
  H   -2.46619292146723     -0.19789562848296     -0.56540104914252
