14
Coordinates from ORCA-job run
  C   0.91337582174178      0.15057873874858      0.43294005205146
  C   -0.39682900888736      0.23909501201130     -0.32628689229770
  H   1.56852766139632      0.99869939909449      0.23773581366077
  H   -0.20766639273598      0.41951133226067     -1.39213250854763
  H   0.72827065094446      0.05005655514828      1.50125619742696
  N   1.66344581055374     -1.07239501865954      0.01394341252761
  O   2.50834577058687     -1.48897599365507      0.79608437469008
  O   1.41789668115200     -1.54267301501244     -1.09716744331999
  N   -1.09642292407657      1.50154428717287      0.13652348169182
  O   -2.31486949241022      1.46617984779913      0.26351192617805
  O   -0.38740077919361      2.49104734271696      0.29289386627921
  N   -1.22840478190975     -0.89620171566000     -0.02798946384699
  H   -2.19886350671759     -0.65901907453897     -0.19167464709287
  H   -0.96840551044410     -1.65844769742626     -0.64063816940077
