14
Coordinates from ORCA-job run
  C   0.62963190314102     -0.73290446049928      0.11368089385873
  C   -0.52583985374839      0.09706949685963     -0.40244548478673
  H   0.46788014477089     -1.05345327476963      1.14080766911138
  H   -0.33775415462291      0.46303004173665     -1.40928362801343
  H   0.78007299176681     -1.59964182480524     -0.53335422489060
  N   1.91777826421721      0.02627652888234      0.10868713419399
  O   2.03075206348461      0.92799823037667     -0.71923911158716
  O   2.77573288671734     -0.33898084747597      0.90341534621755
  N   -0.62371119246975      1.35761376562711      0.44135177653662
  O   -0.38859447810617      1.23432968099754      1.64205908545777
  O   -0.99129100286471      2.37646295613684     -0.12781967776779
  N   -1.78712972722684     -0.56815813557362     -0.32396376321017
  H   -1.82878766844685     -1.28844275914095      0.38128388343441
  H   -2.11774017661226     -0.90219939835208     -1.21417989855457
