14
Coordinates from ORCA-job run
  C   0.68043179795770     -0.62770126617576      0.17133699189667
  C   -0.58331972135089      0.09301245740914     -0.28618923674203
  H   0.72736194044086     -0.74748439415584      1.25319475734738
  H   -0.40227576456305      0.52908415985571     -1.27003261392823
  H   0.72127529761171     -1.60330717721285     -0.31707807689600
  N   1.93911888678418      0.06924079360500     -0.24219452429384
  O   1.96979564766286      0.51050776607329     -1.38670664650041
  O   2.85683809413501      0.09221263316013      0.56810713804109
  N   -0.75709382021421      1.30948985655862      0.63765228742981
  O   -1.86947642635202      1.58890306625218      1.05476407953409
  O   0.28360651105763      1.92151731708435      0.87089909562423
  N   -1.76874669765988     -0.68138723326959     -0.30265465244197
  H   -1.95599498760619     -1.10305901518381     -1.19760121726613
  H   -1.84152075790370     -1.35302896400056      0.44650261819534
