14
Coordinates from ORCA-job run
  C   0.93057830537250      0.21864164213276      0.21687095669318
  C   -0.50142926751874      0.25453254203298     -0.31505088919454
  H   0.94381229473752      0.18590807671684      1.30509401697158
  H   -0.49898515232026      0.35883174895800     -1.39866365811974
  H   1.52396556633758      1.05048003758419     -0.16616358132913
  N   1.54600375223549     -1.04099851584902     -0.27941396647425
  O   1.82533442303338     -1.90397796798057      0.54936425328815
  O   1.68240063638775     -1.13644761739633     -1.49730406039815
  N   -1.08161995279007      1.54430120674401      0.21965963208323
  O   -1.20771239368141      2.47911418433723     -0.56575702612733
  O   -1.34839371913677      1.55339202466043      1.41760726627572
  N   -1.34101303496545     -0.82480925670788      0.07871566858560
  H   -1.15555355143533     -1.15335745759654      1.01583766694612
  H   -1.31738790625618     -1.58661064763608     -0.58179627920045
