15

C	0.0	0.0	0.0
C	-0.576606	-0.203506	-1.419088
Cl	1.785358	0.0	0.0
H	-1.686624	-0.157698	-1.263119
C	-0.401143	1.325856	0.48389
N	-0.627526	2.413726	0.866491
C	-0.475961	-1.104631	0.936146
H	-1.568176	-1.12505	0.919922
H	-0.122997	-0.897311	1.947493
H	-0.064072	-2.060049	0.60463
C	-0.213435	-1.516495	-1.95043
N	0.068468	-2.571091	-2.384326
C	-0.160539	0.848194	-2.345082
N	0.171258	1.688757	-3.09552
Br	-3.691036	0.0	0.0
