15

C	0.0	0.0	0.0
C	-0.318972	0.074865	-1.534727
Cl	1.789635	0.0	0.0
H	0.471814	-0.534726	-1.990562
C	-0.442335	1.184482	0.73211
N	-0.682099	2.166784	1.330789
C	-0.517048	-1.293912	0.605271
H	-0.164485	-2.138179	0.006869
H	-0.13989	-1.396799	1.625131
H	-1.609181	-1.248662	0.603796
C	-0.109624	1.430465	-2.058095
N	0.108924	2.492165	-2.512391
C	-1.542429	-0.528593	-2.09202
N	-2.229291	-1.113277	-2.84965
Br	-3.746779	0.0	0.0
