11
Coordinates from ORCA-job run
  C   -0.27918428557963      1.20096435966974     -0.02722329058753
  C   0.22112002266562     -0.21322246019531     -0.29194335253733
  Cl  0.96414868191945      2.35851768754579     -0.53858898308005
  H   0.44280176358277     -0.33563645230919     -1.35697101327717
  H   -0.47432509571831      1.34382954222401      1.03496683472021
  H   -1.18151527437121      1.38427539486138     -0.60305862474698
  N   -0.88368618386848     -1.22565632286612     -0.00158312570270
  O   -2.03054835491414     -0.83945031097661     -0.19602343786116
  O   -0.53638492382342     -2.34555354574423      0.34432555039196
  C   1.40014559133470     -0.55019010849560      0.49651439132586
  N   2.35742805877266     -0.77587778371386      1.13758505135488
