11
Coordinates from ORCA-job run
  C   -0.22786571862501      1.18635049620916      0.09706822287769
  C   0.20396752991571     -0.20397482066889     -0.35792077184404
  Cl  0.95548410014819      2.38319124799166     -0.45394347237083
  H   0.31528736192521     -0.24036174281179     -1.44221296046498
  H   -0.28935330859243      1.22221013563501      1.18313023457403
  H   -1.19435625508288      1.42517117519802     -0.34758963902685
  N   -0.92151710517117     -1.15625591092260     -0.01559292911864
  O   -1.13955364310955     -1.32936438010685      1.17798641822041
  O   -1.54356236707136     -1.62971277513184     -0.95956997255120
  C   1.42588524196359     -0.65308434087981      0.29882599458030
  N   2.41658416369970     -1.00516908451206      0.82081887512411
