11
Coordinates from ORCA-job run
  C   -0.14768398847111      1.21591071128382     -0.22097089139951
  C   0.21202295914360     -0.25367129830241     -0.36957445953947
  Cl  -0.29356335767864      1.66013670980456      1.48681906062730
  H   0.23288122631471     -0.50298444157522     -1.43580661833012
  H   -1.10204922743913      1.39720368128003     -0.71190286650902
  H   0.63421168385036      1.82521301790469     -0.67396334626316
  N   -0.91216265545040     -1.10179396690213      0.20255387806096
  O   -2.01050615194856     -0.88618956009528     -0.29484525801046
  O   -0.64324459025342     -1.91122040426312      1.07809073324381
  C   1.48569558225263     -0.60109612334339      0.24589647189248
  N   2.54439851967996     -0.84050832579155      0.69270329622722
