11
Coordinates from ORCA-job run
  C   -0.21376487693639      1.19211266145754      0.04466628730791
  C   0.28961422490306     -0.20846144235549     -0.28976485691495
  Cl  1.10789520600265      2.35606235295123     -0.14186387029700
  H   0.69753483166060     -0.24346081726681     -1.30068377465134
  H   -1.01239375577716      1.46116518593692     -0.64726209857420
  H   -0.57305115296626      1.22476615696681      1.07158850642543
  N   -0.91218995850374     -1.12806887432166     -0.28525280318130
  O   -1.45947786264714     -1.29783370838517      0.79811039673794
  O   -1.25898210685607     -1.58024945496185     -1.37035413427783
  C   1.26856068840586     -0.69594109043865      0.67476482127937
  N   2.06625476271458     -1.07909096958287      1.44605152614597
