18

C	0.0	0.0	0.0
C	-0.224313	-0.277601	-1.531005
F	1.399703	0.0	0.0
H	0.595107	0.283479	-1.983503
N	-0.401948	1.322194	0.377547
H	-1.40368	1.397061	0.199684
H	-0.27869	1.401302	1.382627
N	-0.435569	-1.107993	0.80095
H	-0.184943	-0.911389	1.7656
H	-1.458717	-1.097866	0.746758
N	-1.411149	0.328729	-2.245227
O	-2.120928	-0.415625	-2.912592
O	-1.495609	1.553425	-2.226478
C	-0.110068	-1.75098	-1.857499
H	-0.991765	-2.285509	-1.511262
H	-0.012544	-1.893714	-2.934768
H	0.766597	-2.153233	-1.351623
Br	-3.681576	0.0	0.0
