15

C	-0.345853	0.140575	-1.491105
C	0.0	0.0	0.0
Br	-0.363999	-1.73646	-2.392409
H	1.097317	0.0	0.0
H	-1.380483	0.426343	-1.678684
N	0.558003	1.023652	-2.073576
H	1.524286	0.81999	-1.819683
H	0.443403	1.145275	-3.068838
C	-0.547982	-1.213405	0.743272
H	-0.060886	-2.1166	0.38266
H	-0.332132	-1.106751	1.808138
H	-1.628641	-1.313294	0.609936
C	-0.46348	1.234083	0.634639
N	-0.852594	2.221905	1.138366
Cl	3.34899	0.0	0.0
