15

C	-0.463725	-0.003774	-1.450832
C	0.0	0.0	0.0
Br	0.031281	1.65403	-2.358013
H	1.095453	0.0	0.0
H	0.122654	-0.768236	-1.975452
N	-1.90455	-0.150106	-1.563298
H	-2.161163	-1.068999	-1.217945
H	-2.173123	-0.099562	-2.539237
C	-0.416518	-1.302093	0.70217
H	0.089225	-1.359417	1.667108
H	-0.087434	-2.160882	0.109868
H	-1.494883	-1.359265	0.872145
C	-0.517638	1.149521	0.735681
N	-0.915267	2.064095	1.35586
Cl	3.356447	0.0	0.0
