15

C	-0.317007	-0.033331	-1.488923
C	0.0	0.0	0.0
Br	-2.264785	-0.234323	-1.83578
H	1.100017	0.0	0.0
H	-0.107089	0.945898	-1.931684
N	0.377012	-1.140072	-2.085543
H	0.310776	-1.087913	-3.095713
H	1.359206	-1.072673	-1.810211
C	-0.470324	-1.229089	0.775318
H	-1.555979	-1.238992	0.889944
H	-0.158523	-2.124719	0.238532
H	-0.003642	-1.231934	1.76218
C	-0.477608	1.234807	0.609222
N	-0.874911	2.21873	1.113253
Cl	3.327269	0.0	0.0
