15

C	-0.345393	0.118835	-1.49304
C	0.0	0.0	0.0
Br	-0.351435	-1.772034	-2.366766
H	1.097409	0.0	0.0
H	-1.382164	0.396948	-1.68357
N	0.555739	0.996358	-2.088237
H	1.521632	0.79798	-1.83023
H	0.440794	1.101715	-3.085266
C	-0.547928	-1.201662	0.761659
H	-0.059495	-2.110528	0.416427
H	-1.628584	-1.303849	0.627847
H	-0.334542	-1.078016	1.825313
C	-0.470753	1.241869	0.616345
N	-0.912666	2.213886	1.107336
Cl	3.349236	0.0	0.0
