12
Coordinates from ORCA-job run
  C   0.55649707011944      0.23508380796653     -0.05923826498756
  C   -0.78319134559725      0.44357242785629      0.66113636566268
  Cl  1.70328121815995      1.47530828256556      0.68511223335457
  H   -0.63599904002953      0.24578097523664      1.72740170774443
  H   -1.09373514983981      1.48549844705319      0.56096125499900
  C   0.44786096070078      0.58510563291277     -1.47831238804019
  N   0.35564658472695      0.86201794250523     -2.61602615881446
  N   0.99059950968844     -1.10172777385248      0.07165654441900
  H   1.84594084285124     -1.28562186806809     -0.43682691937684
  H   1.09821991083039     -1.37082541963974      1.04178626617352
  C   -1.81905665493434     -0.43958441900197      0.13112738074045
  N   -2.66706390667627     -1.13360803553394     -0.28777802187459
