12
Coordinates from ORCA-job run
  C   0.49289580641309      0.09486172479667     -0.08249215256207
  C   -0.85762785646827     -0.29490099374656      0.53395354234401
  Cl  1.01172899711740      1.67256446966314      0.69278900523044
  H   -0.71501553150568     -0.44256359679895      1.60877004633779
  H   -1.15924625241029     -1.24812054517463      0.09080612476295
  C   0.35126973806644      0.36023611299636     -1.51690739902181
  N   0.23719154061525      0.54784288894199     -2.67063814227065
  N   1.41377192060362     -0.96943118463480      0.11368812151214
  H   2.30427842581667     -0.77867636313847     -0.32970657458721
  H   1.56489972653231     -1.13774916064029      1.10161710552620
  C   -1.89694549059627      0.70503558165450      0.31699806842227
  N   -2.74820102418428      1.49290106608103      0.14112225430595
