12
Coordinates from ORCA-job run
  C   0.45655009701356      0.31222007507438     -0.07916390054629
  C   -1.05652763140743      0.07323010713284     -0.18049936545893
  Cl  0.75549744057892      1.83947254681742      0.80052802038857
  H   -1.23052265818665     -0.82375489036709     -0.78525513432557
  H   -1.52354353393518      0.91600520349930     -0.69551003308276
  C   0.98813643064800      0.48421902025738     -1.44626172289373
  N   1.41447239622142      0.54298607873676     -2.54035591597353
  N   1.06847236735389     -0.75715816473971      0.66230582502519
  H   2.06227828092314     -0.59503140065865      0.77636853129411
  H   0.93082508404522     -1.64177373292225      0.18493286995205
  C   -1.66693135739899     -0.10377663957025      1.13391451325365
  N   -2.19970691585590     -0.24663820326014      2.16899631236724
