12
Coordinates from ORCA-job run
  C   0.62733392675704      0.34274041397746     -0.03324436617288
  C   -0.75789010492397      0.45049204225812      0.64783509188265
  Cl  1.65881464999085      1.58619622939956      0.75310305329169
  H   -1.18540322433966      1.44458829470436      0.49420707520799
  H   -0.62280161824674      0.30279997329127      1.72327917985623
  C   0.49424841067414      0.68198911362665     -1.45559241835161
  N   0.34657203768097      0.95800185157018     -2.58746801115928
  N   1.28346848837100     -0.92805318853920      0.08152676313127
  H   1.34785779424312     -1.21552741744607      1.05094891517933
  H   0.79932075485251     -1.63591395717248     -0.45917250557832
  C   -1.65422187089345     -0.57391579293555      0.11936968921966
  N   -2.33729924416581     -1.41339756273430     -0.33479246650673
