13

C	-0.550787	0.031423	-1.401669
C	0.0	0.0	0.0
Cl	-0.019244	1.572554	-2.157932
H	1.091014	0.0	0.0
H	-0.073329	-0.750381	-1.997574
H	-0.360794	0.847874	0.582921
N	-2.005484	0.010786	-1.437909
H	-2.311277	0.03746	-2.404633
H	-2.286357	-0.88654	-1.056636
N	-0.437289	-1.204896	0.707741
O	-0.759655	-2.204532	0.044022
O	-0.408687	-1.192966	1.937859
F	2.540045	0.0	0.0
