13

C	-0.210857	0.107481	-1.510662
C	0.0	0.0	0.0
Cl	-0.208112	-1.63658	-2.249605
H	1.088701	0.0	0.0
H	-1.189008	0.462709	-1.835722
H	-0.411439	0.896857	0.467259
N	0.853887	0.904312	-1.952455
H	0.945358	0.942864	-2.956344
H	1.734725	0.632166	-1.468457
N	-0.697589	-1.142942	0.610892
O	-1.932989	-1.12607	0.555036
O	-0.042055	-2.029399	1.152356
F	2.674491	0.0	0.0
