13

C	-0.479391	0.07749	-1.412674
C	0.0	0.0	0.0
Cl	-2.423327	0.363082	-1.374823
H	1.092096	0.0	0.0
H	-0.173934	1.03811	-1.821712
H	-0.343214	0.86646	0.560754
N	-0.128011	-0.964644	-2.258033
H	-0.310957	-1.865472	-1.842187
H	-0.510418	-0.87137	-3.185766
N	-0.479104	-1.163907	0.742639
O	-0.704437	-1.022951	1.945334
O	-0.576358	-2.253232	0.160916
F	2.521314	0.0	0.0
