13

C	-0.450709	-0.001151	-1.45009
C	0.0	0.0	0.0
Cl	-0.12299	1.650435	-2.077274
H	1.089702	0.0	0.0
H	0.196775	-0.669732	-2.01285
H	-0.407367	0.833546	0.571284
N	-1.829763	-0.331413	-1.750876
H	-1.950492	-1.305334	-1.491848
H	-2.430396	0.229258	-1.153727
N	-0.432492	-1.224218	0.663228
O	-0.722808	-1.178735	1.861213
O	-0.442245	-2.27038	0.000987
F	2.534884	0.0	0.0
