13

C	-0.489792	0.061876	-1.410251
C	0.0	0.0	0.0
Cl	-2.441068	0.286262	-1.360092
H	1.091659	0.0	0.0
H	-0.21918	1.030376	-1.82573
H	-0.350521	0.866205	0.556322
N	-0.112728	-0.974155	-2.253504
H	-0.529334	-0.913328	-3.169008
H	-0.244904	-1.876781	-1.821471
N	-0.471367	-1.16475	0.748239
O	-0.522587	-2.26403	0.179045
O	-0.738093	-1.01251	1.941002
F	2.521544	0.0	0.0
