17

C	-0.415841	-0.033314	-1.45833
C	0.0	0.0	0.0
Cl	-0.090186	1.553194	-2.216847
H	1.093896	0.0	0.0
H	-0.360923	0.928485	0.445832
C	0.278463	-1.106366	-2.262838
H	1.354149	-0.942338	-2.156511
H	0.026363	-2.094424	-1.877174
H	-0.012579	-1.057854	-3.312208
N	-1.93706	-0.209069	-1.514839
O	-2.383923	-1.198833	-2.093249
O	-2.616121	0.625119	-0.925226
C	-0.505494	-1.201471	0.793851
H	-0.124942	-1.128952	1.814826
H	-1.598138	-1.242224	0.843146
H	-0.136206	-2.14317	0.383644
Cl	3.501083	0.0	0.0
