17

C	-0.584131	-0.061857	-1.404997
C	0.0	0.0	0.0
Cl	0.327154	-1.21607	-2.402537
H	1.091394	0.0	0.0
H	-0.306362	-0.931138	0.490926
C	-2.049709	-0.44977	-1.443403
H	-2.642887	0.215837	-0.820305
H	-2.435838	-0.411596	-2.462318
H	-2.137797	-1.47061	-1.071506
N	-0.420996	1.323199	-2.035091
O	0.688293	1.659752	-2.418597
O	-1.425682	2.038447	-2.034787
C	-0.478584	1.205653	0.806923
H	-0.091325	1.11285	1.823811
H	-1.566824	1.298608	0.859239
H	-0.071139	2.131719	0.396981
Cl	3.524159	0.0	0.0
