14
Coordinates from ORCA-job run
  C   0.54117945281261     -0.47840402502211      0.48929240018200
  C   -0.81076881012723     -0.09935647745734     -0.09308935822044
  F   0.49533673949375     -0.32566345127577      1.86836485999873
  H   -0.76565527594822     -0.22538923657602     -1.18027539988686
  H   -1.51661624499493     -0.83663255434525      0.29974038218964
  N   0.84103512951645     -1.85237166270153      0.22808030471378
  H   1.79623878653958     -2.07440105691667      0.48079195995148
  H   0.69233645080586     -2.07838076108814     -0.74635088461787
  C   1.59664024298596      0.46009728055201      0.01734340577498
  N   2.43260517337692      1.16446166896640     -0.41258170343879
  C   -1.23950593468050      1.31781088441771      0.26499806084356
  H   -0.55719640659958      2.06054007300092     -0.15371396094214
  H   -1.26835886106847      1.44828089902547      1.34698702941815
  H   -2.23727044211218      1.51940841942032     -0.12858709596620
