14
Coordinates from ORCA-job run
  C   0.54731336889237     -0.45745723908687      0.53348021354801
  C   -0.38434298393509      0.74269705545385      0.43606030862457
  F   -0.08361558515812     -1.46285609007553      1.25208435546319
  H   -0.59123685916105      1.06893535253023      1.45895442815046
  H   0.15595942856107      1.55992462201919     -0.05426604041182
  N   0.84877965532760     -0.99360606133022     -0.75877454183103
  H   1.17703186367335     -0.26919941685138     -1.38439120977999
  H   1.55101940636170     -1.72066064190322     -0.69531872376702
  C   1.75852425719952     -0.09861276294344      1.32185357889613
  N   2.73928059690661      0.21341968385529      1.88804416156163
  C   -1.68173012798668      0.41549235027402     -0.29488676569926
  H   -2.18654892300231     -0.42241781140419      0.18639881360896
  H   -1.50145393041061      0.14667837629009     -1.33513889028043
  H   -2.34998016726836      1.27866258317219     -0.27009968808339
