14
Coordinates from ORCA-job run
  C   0.58197748559175     -0.38873400853971      0.59621274829439
  C   -0.29544447418593      0.83360152777114      0.35768086713981
  F   -0.14765537726709     -1.26897540987653      1.42938522359810
  H   0.31559826597150      1.59514931237745     -0.13289762828521
  H   -0.57840170990150      1.21526685648231      1.34181159641155
  N   0.98239678074070     -1.01229585520545     -0.60915669690995
  H   0.17657280684716     -1.30929915097733     -1.14341049539964
  H   1.57852450835625     -1.81044824453467     -0.42943370539901
  C   1.78703231777116     -0.01821295918414      1.36752204909437
  N   2.73317872571988      0.29259337138858      1.98806528335613
  C   -1.54089509604775      0.51909991072100     -0.46507883335910
  H   -2.21300132159151      1.37886759884471     -0.46646719152532
  H   -1.29591102921396      0.30274264731061     -1.50712187430242
  H   -2.08297188279068     -0.32835559657797     -0.04211134271370
