14
Coordinates from ORCA-job run
  C   0.53600862619735     -0.45043929628226      0.55783349273841
  C   -0.36990743544854      0.76267839758475      0.39847053334050
  F   -0.11896929930797     -1.40686564836279      1.32086790256294
  H   -0.57402709133130      1.14155703124496      1.40361148811866
  H   0.18940379285799      1.54419028904522     -0.12745856603055
  N   0.83163324602058     -1.05419262676470     -0.70530505053491
  H   1.17403094415710     -0.36760608088275     -1.36496092085489
  H   1.51946384788058     -1.79064779142998     -0.60435585536074
  C   1.75127836104103     -0.07973315468011      1.33446461796265
  N   2.73728161314176      0.23789341096610      1.88825215360401
  C   -1.67079274991157      0.42786313285640     -0.32283003885369
  H   -1.49154969426767      0.10692888543775     -1.34840407479142
  H   -2.19445887109983     -0.37618243287247      0.19468560692153
  H   -2.32139528992954      1.30455588413989     -0.34187128882251
