14
Coordinates from ORCA-job run
  C   0.55141987213199     -0.63228765188771      0.62880859661219
  C   -0.87919208870361     -0.11984033910706      0.63881346393875
  F   0.68424804308902     -1.57079315892998      1.64064721111009
  H   -1.50835378664186     -0.99429078540848      0.45228074993809
  H   -1.08302167700770      0.22623729586824      1.65557940215988
  N   0.86568098412394     -1.29405035188016     -0.59988930383997
  H   0.64645528631334     -0.71178962481591     -1.39660806975824
  H   1.84662416582248     -1.54401054503616     -0.63522905507167
  C   1.49984038268113      0.46570573293827      0.96860118768083
  N   2.24337049519137      1.35030864839715      1.17979052341986
  C   -1.15372331597804      0.99015329550650     -0.37021579127951
  H   -2.16837002283854      1.37029916406566     -0.24030159604977
  H   -1.07803618811886      0.63551803967243     -1.40077832063489
  H   -0.46694215006463      1.82984028061722     -0.24049899822565
