14
Coordinates from ORCA-job run
  C   0.60494568844497     -0.44877824010244      0.35001859379193
  C   -0.79184258959497     -0.09221334432593     -0.13620810615198
  F   0.60331530509149     -0.32948485667527      1.75830833465054
  H   -1.46571450696616     -0.85140668922730      0.27713308568625
  H   -0.79901815606312     -0.20031495284931     -1.22347692941081
  N   0.98408826307931     -1.74489103782986     -0.07233262693960
  H   0.29747964845643     -2.42892115602747      0.21972827244240
  H   1.89517817832604     -2.00071449267814      0.28731424816951
  C   1.60753724419980      0.52695941619501     -0.12867546829239
  N   2.39100423770939      1.31217573981290     -0.51144242750439
  C   -1.24246925190788      1.29989335040581      0.28708856428798
  H   -0.60522808411688      2.07177805399368     -0.14971426669992
  H   -2.26529683300526      1.48230773852653     -0.04761207403859
  H   -1.21397914365316      1.40361047078182      1.37187080000908
