14
Coordinates from ORCA-job run
  C   0.56469353227459     -0.44612480926604      0.49523531775813
  C   -0.82849736540562     -0.11907264141535     -0.01715284793331
  F   0.62733063467212     -0.14970808285397      1.84974527752105
  H   -0.86802175614681     -0.35851886001179     -1.08528484332305
  H   -1.50173573621958     -0.80517822731746      0.50435783847704
  N   0.84281550350391     -1.84269199701300      0.35787978236560
  H   1.81364407503852     -2.04498464621676      0.56378234168650
  H   0.62615570749219     -2.16614836526643     -0.57561973307196
  C   1.57957950019936      0.42868821283506     -0.15464494000291
  N   2.37679450425973      1.07743090667264     -0.72313124304631
  C   -1.22766657699371      1.33157476914382      0.22174347710836
  H   -2.25536026661151      1.49759029135823     -0.10624342966142
  H   -0.58393293950339      2.02009050864482     -0.32987555624725
  H   -1.16579881655980      1.57705294070622      1.28220855836951
