14
Coordinates from ORCA-job run
  C   0.54348878739578     -0.48456803306230      0.47501045001463
  C   -0.81742888065817     -0.09015633299520     -0.07548380735020
  F   0.52770606744081     -0.34241665749230      1.85612645782229
  H   -0.79675999034595     -0.20879060263515     -1.16420024166126
  H   -1.52106210870769     -0.82391111109879      0.32765086043769
  N   0.82656725106643     -1.85830874715800      0.19662940131059
  H   0.65222996494395     -2.07654892170031     -0.77533454808468
  H   1.78564111108686     -2.09042787916869      0.42442021093506
  C   1.59659902082018      0.44871201629342     -0.01207042244726
  N   2.43439889660050      1.13862029307083     -0.46146705318545
  C   -1.22581447646037      1.32825719250717      0.30127712945799
  H   -1.22073231304219      1.45421587451573      1.38422436177203
  H   -2.23399283623462      1.53780006461555     -0.06059903472060
  H   -0.55184049390554      2.06852284430803     -0.13518376430085
