14
Coordinates from ORCA-job run
  C   0.46352978851251     -0.67849649766606      0.65799788405318
  C   -0.91569849050592     -0.04500383837189      0.58263611702508
  F   0.44998443046363     -1.63207293568849      1.66369155867306
  H   -1.60361302328670     -0.86280544082911      0.35181108760079
  H   -1.15189558985934      0.31547867315129      1.58738260235907
  N   0.79946402109379     -1.35732183119157     -0.55622873573576
  H   1.75136641214619     -1.70235483330871     -0.52349136049383
  H   0.70012359266165     -0.74704899870807     -1.35614471461355
  C   1.47820490586487      0.33275115080761      1.06907234615464
  N   2.28027709079357      1.15266717102904      1.32300779689242
  C   -1.03076864117451      1.08492145980369     -0.43456940961524
  H   -0.92353699086565      0.72450449453015     -1.46031893423333
  H   -2.01455028531270      1.55204055616053     -0.36491273668157
  H   -0.28288722053139      1.86174087028159     -0.25893350138496
