15
Coordinates from ORCA-job run
  C   -0.49477918887590      0.09143903313512      0.32150129017211
  C   0.99670107249864     -0.05714926609270      0.60407933450733
  Br  -1.38511509447245     -0.00584999390402      2.15839098484478
  H   1.30577393156016      0.77430198839099      1.25733713207706
  H   1.15996948429599     -0.98326016399026      1.15874261579491
  N   -0.73514369878238      1.33947837751914     -0.30667394462985
  H   -1.70456728478879      1.44710499059865     -0.57708571823321
  H   -0.47260071609559      2.11540631481864      0.28914400010208
  C   -1.06847219386266     -1.04774308633049     -0.49447080467275
  H   -0.88607309852614     -2.00113592535026      0.00123772267548
  H   -0.57941285004607     -1.05447711695863     -1.46881067609816
  H   -2.14694960912237     -0.92670964993701     -0.61939948378794
  N   1.70704858757058     -0.13257334920563     -0.66741717018001
  H   1.61530086865842      0.75133332601889     -1.15178312360089
  H   2.69031978998855     -0.30816547871243     -0.50379215897093
