15
Coordinates from ORCA-job run
  C   -0.59137820029950      0.07727306929397      0.41102741276665
  C   0.93292411943856      0.06290034744858      0.59344794823777
  Br  -1.36082295209747     -0.08258281902289      2.21536002159902
  H   1.20486805353188      0.91150413364315      1.22688584017873
  H   1.23447452990856     -0.85148790468397      1.12010184623482
  N   -1.09928509236796      1.30394770872306     -0.16803207901510
  H   -0.57152209232830      1.44697371264965     -1.02612683720459
  H   -0.89103580103967      2.08260573681403      0.44892368715992
  C   -1.06647497024225     -1.09803027897508     -0.42255050624585
  H   -2.15439402831401     -1.09218705629953     -0.48018146152607
  H   -0.66742046130553     -0.99752313623898     -1.43630987999783
  H   -0.73156999685237     -2.04667385193059      0.00250637032384
  N   1.55800221656189      0.22393515896563     -0.72151349798123
  H   1.77830324455188     -0.67828712059259     -1.12206611532289
  H   2.42433143085429      0.73863230020555     -0.64147274920719
