15
Coordinates from ORCA-job run
  C   -0.59304544130874      0.07216138406314      0.40884941988110
  C   0.93104059832447      0.07945523957409      0.59446786324778
  Br  -1.36374520849000     -0.08460791393347      2.21409915578018
  H   1.24300594331122     -0.82697474107469      1.12879836975229
  H   1.19007778371314      0.93632216626825      1.22221210293470
  N   -1.11633373048093      1.28743731944648     -0.17957146267447
  H   -0.91571598571091      2.07404461511535      0.42977792637026
  H   -0.59312125356308      1.42902385164312     -1.04063303498891
  C   -1.05139718990485     -1.11574487269120     -0.41599036013384
  H   -0.64933248351579     -1.01874021276397     -1.42899838077615
  H   -0.70696713517858     -2.05686426186723      0.01795972743280
  H   -2.13911559505770     -1.12274939734640     -0.47740112122742
  N   1.55697429868199      0.23848965524940     -0.71993516721899
  H   2.41285778363663      0.77081167798926     -0.64392545755372
  H   1.79481761554312     -0.66306450967215     -1.11170958082561
