15
Coordinates from ORCA-job run
  C   -0.45800520283315      0.11668557154049      0.33581014982698
  C   1.02924213264632      0.01408740168757      0.69863994232179
  Br  -1.44285389076570     -0.04409556171557      2.11795490356188
  H   1.19467216322494     -0.90068547219865      1.27114748958825
  H   1.27758717182261      0.85028821110023      1.36110919429827
  N   -0.71224824767961      1.35962377278947     -0.29586913894868
  H   -0.48165423200399      2.14008444882725      0.30729854742112
  H   -1.67638634935849      1.44753822378479     -0.59150646105639
  C   -0.95548172905672     -1.03045150293100     -0.52110138143140
  H   -0.73934734203404     -1.98836409853252     -0.04674960077944
  H   -0.46702487382647     -0.98628131806569     -1.49726084962227
  H   -2.03477230015553     -0.96292644402234     -0.67201291682771
  N   1.92816793303595      0.03307273506361     -0.44268354652503
  H   1.66487461245767      0.78519105151977     -1.06732572111908
  H   1.87223015452622     -0.83576701884740     -0.95745061070829
