15
Coordinates from ORCA-job run
  C   -0.36815764629699      0.03147510192197      0.19550441575946
  C   1.10017303711522     -0.35263398632526     -0.03129952640565
  Br  -0.65648110084240      0.28324908542663      2.13148684849655
  H   1.29659288756340     -1.31125914069103      0.45560391661219
  H   1.20434069168318     -0.51796650178141     -1.11358925752847
  N   -0.59861431119542      1.32527657810892     -0.42381957648759
  H   -0.52362467078415      1.21595427552239     -1.43179834971074
  H   -1.53363750092778      1.65712172871135     -0.21544721968681
  C   -1.31150294685838     -1.07196365366559     -0.26067835787985
  H   -2.35209572538323     -0.78925105071686     -0.08872664438503
  H   -1.11614362123114     -2.00989206792058      0.26330448711391
  H   -1.16993128275628     -1.23610771578974     -1.33488502150324
  N   2.09898208621996      0.61001203344819      0.38358678331657
  H   1.79816902757194      1.52818046221524      0.07643850121018
  H   2.13193107612208      0.63780485153578      1.39531900107851
