15
Coordinates from ORCA-job run
  C   -0.40802060350647      0.25785614820241      0.28880905268819
  C   1.10366288242286      0.44866939654170      0.09437792970956
  Br  -0.71810909317619     -0.25998971613012      2.17547016913232
  H   1.24130425484657      0.81680820443438     -0.93179684117052
  H   1.41633346093626      1.25040289327386      0.76684805816218
  N   -1.03632051064068      1.54701493326078      0.10896855956332
  H   -0.80106428838455      1.90623324147681     -0.81102283384252
  H   -2.04493114260337      1.46730065641672      0.17245900797218
  C   -0.97846559283467     -0.85859883686674     -0.57389380899928
  H   -0.80155399088346     -0.61364224974772     -1.62762883496667
  H   -0.52224999954948     -1.82465552466671     -0.35337104738432
  H   -2.05489126530193     -0.95190013973510     -0.41661147640520
  N   1.97393749433904     -0.69293143469363      0.27743218484443
  H   1.86912045916517     -1.06429351237668      1.21308053057112
  H   1.76124793517091     -1.42827405938996     -0.38312064987479
