15
Coordinates from ORCA-job run
  C   -0.43814515175264      0.11123331770657      0.45252253707087
  C   1.06867610101524     -0.07193245393989      0.68651003724312
  Br  -1.29405067048862      0.05298232704979      2.22395474745424
  H   1.37707439795851      0.66447467297184      1.43066806374711
  H   1.24629199514708     -1.06640665614401      1.10595474021220
  N   -0.67130264822447      1.44696230717428     -0.08035728045415
  H   -1.65789013209294      1.67347626994301     -0.02334163820873
  H   -0.42260117006157      1.44259931846467     -1.06490450104799
  C   -1.04860699109007     -1.00890551082767     -0.38043495122442
  H   -0.59908045917345     -1.00353612875874     -1.37945797413179
  H   -0.87933158171185     -1.98745515551811      0.07393735567821
  H   -2.12395372305731     -0.86047204277276     -0.49570922883798
  N   1.90624778343971      0.10194110738019     -0.48761505021708
  H   1.85763917027726      1.05076769142967     -0.83217183999718
  H   1.67703307981514     -0.54472906415885     -1.22955501728643
