15

C	-0.51629	-0.006475	-1.421643
C	0.0	0.0	0.0
Br	0.279293	-1.381498	-2.475543
H	1.093655	0.0	0.0
H	-0.365827	0.914378	0.467875
N	-2.044051	-0.145711	-1.382573
O	-2.592454	0.805854	-0.832898
O	-2.588207	-1.132257	-1.842677
N	-0.317204	1.32764	-2.134948
O	0.293454	2.19994	-1.533511
O	-0.820767	1.418465	-3.249217
N	-0.563145	-1.177414	0.67121
H	-0.712498	-0.947355	1.644644
H	0.139225	-1.908067	0.652734
Cl	3.403892	0.0	0.0
