15

C	-0.50462	0.03061	-1.427091
C	0.0	0.0	0.0
Br	-0.076658	-1.589574	-2.35358
H	1.095775	0.0	0.0
H	-0.3409	-0.953298	0.408461
N	-2.024738	0.216207	-1.394086
O	-2.479929	1.265965	-1.825661
O	-2.65142	-0.692333	-0.870646
N	0.023975	1.215726	-2.228168
O	-0.131695	1.18622	-3.441347
O	0.514503	2.129896	-1.576216
N	-0.607606	1.096448	0.752826
H	-0.733814	0.798805	1.71114
H	0.041381	1.872443	0.755166
Cl	3.408626	0.0	0.0
