15

C	-0.558276	0.045014	-1.408447
C	0.0	0.0	0.0
Br	-2.445221	0.469917	-1.417535
H	1.090973	0.0	0.0
H	-0.315619	0.917994	0.500607
N	0.117837	1.103936	-2.265375
O	0.302192	0.840558	-3.447931
O	0.363302	2.156663	-1.694998
N	-0.313822	-1.290802	-2.099934
O	0.864129	-1.616559	-2.095104
O	-1.252381	-1.906564	-2.580895
N	-0.492018	-1.220224	0.629657
H	-1.175042	-1.017318	1.344232
H	0.295481	-1.695411	1.053628
Cl	3.375825	0.0	0.0
