15

C	-0.462656	-0.020336	-1.456576
C	0.0	0.0	0.0
Br	0.31475	1.376467	-2.495082
H	1.089985	0.0	0.0
H	-0.369483	-0.919104	0.460418
N	-0.192365	-1.351516	-2.153589
O	-0.624408	-1.452076	-3.295838
O	0.395978	-2.208489	-1.51377
N	-1.990262	0.064764	-1.471688
O	-2.531622	1.134425	-1.707375
O	-2.55109	-0.971338	-1.126199
N	-0.437221	1.162021	0.744302
H	-1.402156	1.413172	0.585314
H	0.152647	1.951418	0.526615
Cl	3.373031	0.0	0.0
