16

C	-0.355704	-0.109709	-1.480863
C	0.0	0.0	0.0
F	-1.738881	-0.291991	-1.639971
H	1.092215	0.0	0.0
C	-0.029125	1.193138	-2.09856
N	0.257871	2.212075	-2.607985
C	0.384754	-1.198793	-2.233562
H	-0.01817	-2.169224	-1.958062
H	1.439885	-1.149529	-1.944763
H	0.272083	-1.034634	-3.306707
N	-0.360825	-1.171781	0.789106
O	-0.013424	-2.271429	0.33735
O	-0.846883	-1.002226	1.915486
C	-0.535904	1.200566	0.603625
N	-0.897262	2.214197	1.078379
H	2.412336	0.0	0.0
