16

C	-0.361982	-0.077917	-1.479365
C	0.0	0.0	0.0
F	-1.75495	-0.140221	-1.638456
H	1.092213	0.0	0.0
C	0.074489	1.196012	-2.091151
N	0.448964	2.186623	-2.598939
C	0.271601	-1.223365	-2.243108
H	0.139393	-1.052261	-3.313328
H	-0.202131	-2.156396	-1.952681
H	1.333755	-1.261879	-1.987937
N	-0.367676	-1.172242	0.779011
O	-0.008595	-2.270638	0.329572
O	-0.872955	-1.007661	1.898653
C	-0.52224	1.202294	0.613591
N	-0.870304	2.216881	1.095712
H	2.404858	0.0	0.0
