16

C	-0.393071	-0.096772	-1.472133
C	0.0	0.0	0.0
F	0.294358	-1.139674	-2.06877
H	1.092248	0.0	0.0
C	-1.83644	-0.352699	-1.654057
N	-2.989118	-0.485074	-1.840549
C	0.026088	1.179785	-2.183705
H	-0.561943	2.035182	-1.851771
H	1.08356	1.344155	-1.960446
H	-0.109163	1.039475	-3.258073
N	-0.416291	-1.141865	0.806946
O	-0.717218	-2.188347	0.219484
O	-0.31769	-1.019192	2.033284
C	-0.447158	1.227957	0.612381
N	-0.7125	2.265509	1.101833
H	2.411759	0.0	0.0
