16

C	-0.405273	0.229814	-1.457661
C	0.0	0.0	0.0
F	-0.052969	1.552046	-1.740722
H	1.103553	0.0	0.0
C	0.358769	-0.613025	-2.400755
N	0.86481	-1.205944	-3.279605
C	-1.89466	0.093056	-1.71709
H	-2.213184	-0.931027	-1.529137
H	-2.106774	0.357031	-2.756042
H	-2.42716	0.780144	-1.056133
N	-0.365091	-1.285014	0.502881
O	-0.368445	-1.449051	1.736373
O	-0.458915	-2.211998	-0.332451
C	-0.464371	1.06307	0.855079
N	-0.806848	1.970797	1.521187
H	2.314053	0.0	0.0
