16

C	-0.402538	0.182508	-1.463815
C	0.0	0.0	0.0
F	-0.072635	1.502388	-1.781725
H	1.109686	0.0	0.0
C	0.381493	-0.671166	-2.381592
N	0.895163	-1.272212	-3.250599
C	-1.886218	0.010087	-1.729665
H	-2.437362	0.702923	-1.090546
H	-2.185707	-1.014919	-1.517456
H	-2.094924	0.242748	-2.776345
N	-0.350792	-1.272986	0.538444
O	-0.440361	-2.222445	-0.271714
O	-0.342004	-1.405465	1.776148
C	-0.466926	1.084083	0.825187
N	-0.809418	2.01064	1.465312
H	2.305121	0.0	0.0
