16

C	-0.380786	-0.18072	-1.472664
C	0.0	0.0	0.0
F	-0.056861	1.03011	-2.092548
H	1.09763	0.0	0.0
C	0.420118	-1.221559	-2.149795
N	0.924005	-2.0213	-2.84699
C	-1.859544	-0.430665	-1.706945
H	-2.150095	-1.383466	-1.265683
H	-2.430604	0.383	-1.255579
H	-2.054813	-0.453072	-2.781477
N	-0.369774	-1.105504	0.824876
O	-0.448238	-0.92849	2.053895
O	-0.388921	-2.225669	0.270987
C	-0.47752	1.254574	0.525939
N	-0.809063	2.318138	0.905552
H	2.31767	0.0	0.0
