13

C	-0.500968	-0.016924	-1.437534
C	0.0	0.0	0.0
Br	0.262915	-1.503955	-2.413889
H	1.09118	0.0	0.0
H	-0.335552	0.925631	0.475996
C	-1.955603	-0.080862	-1.54464
N	-3.129956	-0.127812	-1.595004
N	-0.086381	1.288834	-2.161203
O	0.517129	2.124991	-1.50357
O	-0.446253	1.380009	-3.329056
C	-0.526882	-1.144477	0.731021
N	-0.974279	-2.051924	1.327342
Cl	3.227116	0.0	0.0
