13

C	-0.552798	0.013225	-1.416907
C	0.0	0.0	0.0
Br	0.249914	-1.421229	-2.447794
H	1.091093	0.0	0.0
H	-0.313793	-0.9403	0.464793
C	-2.002862	-0.133755	-1.461693
N	-3.169332	-0.279326	-1.439005
N	-0.204189	1.328166	-2.139624
O	0.729564	1.969063	-1.683686
O	-0.884861	1.592876	-3.124428
C	-0.545133	1.115848	0.765025
N	-1.01647	2.003411	1.372506
Cl	3.274946	0.0	0.0
