13

C	-0.42955	0.028046	-1.454356
C	0.0	0.0	0.0
Br	-2.368545	-0.210154	-1.656736
H	1.0956	0.0	0.0
H	-0.335792	-0.938603	0.445039
C	-0.061568	1.252614	-2.145826
N	0.184366	2.272595	-2.675637
N	0.20468	-1.17806	-2.171169
O	0.6514	-0.981591	-3.291644
O	0.156071	-2.2362	-1.566244
C	-0.538353	1.134231	0.731214
N	-0.983873	2.041059	1.329766
Cl	3.199629	0.0	0.0
