13

C	-0.543715	-0.003818	-1.41906
C	0.0	0.0	0.0
Br	0.251611	-1.464932	-2.422333
H	1.091164	0.0	0.0
H	-0.316002	-0.93299	0.477604
C	-1.995559	-0.131579	-1.478461
N	-3.164536	-0.259487	-1.476769
N	-0.170632	1.29131	-2.166247
O	-0.815151	1.523146	-3.183347
O	0.743638	1.946849	-1.699267
C	-0.546182	1.128309	0.745747
N	-1.02803	2.020386	1.338178
Cl	3.276103	0.0	0.0
