13

C	-0.491228	-0.027917	-1.445147
C	0.0	0.0	0.0
Br	0.154568	1.482913	-2.443781
H	1.09279	0.0	0.0
H	-0.337647	-0.919115	0.488663
C	-0.099622	-1.258282	-2.121354
N	0.184124	-2.248681	-2.687107
N	-2.045443	-0.031296	-1.408385
O	-2.657263	0.970227	-1.73737
O	-2.519519	-1.075144	-0.972963
C	-0.530362	1.153861	0.711909
N	-0.978116	2.068953	1.296376
Cl	3.221522	0.0	0.0
