13

C	-0.532704	-0.006651	-1.425484
C	0.0	0.0	0.0
Br	0.2933	-1.453965	-2.419385
H	1.091165	0.0	0.0
H	-0.30644	-0.945343	0.45989
C	-1.981672	-0.159368	-1.496554
N	-3.147965	-0.310062	-1.496486
N	-0.187152	1.301894	-2.165681
O	0.608263	2.049337	-1.621099
O	-0.744919	1.461089	-3.244577
C	-0.570271	1.101103	0.766165
N	-1.068594	1.963177	1.388572
Cl	3.256005	0.0	0.0
