13

C	-0.441758	-0.021948	-1.450942
C	0.0	0.0	0.0
Br	-2.382171	-0.277772	-1.624393
H	1.095311	0.0	0.0
H	-0.33311	-0.921879	0.48022
C	-0.086788	1.181446	-2.185147
N	0.194451	2.16398	-2.766292
N	0.187266	-1.24656	-2.14065
O	0.19767	-2.274454	-1.482848
O	0.569771	-1.096581	-3.291521
C	-0.538347	1.157984	0.693639
N	-0.991266	2.081735	1.259753
Cl	3.199793	0.0	0.0
