13

C	-0.539564	0.02675	-1.42225
C	0.0	0.0	0.0
Br	0.240698	-1.394543	-2.485382
H	1.09111	0.0	0.0
H	-0.331171	0.908387	0.513156
C	-1.993767	-0.085254	-1.484289
N	-3.166179	-0.178405	-1.491297
N	-0.183141	1.365266	-2.109001
O	-0.70049	1.548987	-3.202035
O	0.565032	2.119118	-1.510791
C	-0.512916	-1.16629	0.707281
N	-0.95666	-2.086046	1.287051
Cl	3.226074	0.0	0.0
