14

C	0.0	0.0	0.0
C	-0.647091	0.052534	-1.358352
Br	1.955054	0.0	0.0
H	-1.762743	-0.009781	-1.048771
H	-0.274963	0.951748	0.45679
H	-0.430856	0.980204	-1.886175
C	-0.485578	-1.114137	0.915011
H	-0.118782	-0.943883	1.931087
H	-0.144271	-2.087448	0.568524
H	-1.578738	-1.033279	0.874219
N	-0.294045	-1.027354	-2.291992
O	-0.080619	-2.158877	-1.854433
O	-0.278521	-0.747044	-3.494959
F	-2.912957	0.0	0.0
