14

C	0.0	0.0	0.0
C	-0.592579	0.086035	-1.379723
Br	1.953337	0.0	0.0
H	-1.701756	0.12356	-1.125429
H	-0.296706	0.883016	0.561628
H	-0.318429	-0.760019	-2.00866
C	-0.490787	-1.26794	0.679221
H	-0.129966	-1.321264	1.708938
H	-0.132502	-2.152248	0.142325
H	-1.585988	-1.183026	0.640993
N	-0.186624	1.299486	-2.109725
O	0.112397	1.184941	-3.302316
O	-0.200441	2.3717	-1.50319
F	-2.88738	0.0	0.0
