16
Coordinates from ORCA-job run
  C   0.76156416088916     -0.20150707295877     -0.78689586642844
  C   -0.65638734046514      0.28952547997748     -0.47320981416707
  F   0.60844768824467     -1.35997705766227     -1.54904079370604
  H   -1.14251436887009      0.50607555711266     -1.42707849162682
  H   1.24809659300432      0.53807770706504     -1.42810281147631
  C   1.60913398100396     -0.51776820389147      0.42134639672062
  H   1.72380877028343      0.35743149822396      1.06378098958798
  H   2.60005079263039     -0.83565074631854      0.09361268585778
  H   1.16672009348736     -1.32650359524159      1.00365218138021
  N   -0.50157354334613      1.63073482106139      0.18506000404121
  O   -0.14172223845919      2.55155084807305     -0.54727976636784
  O   -0.69121287396522      1.71688184639788      1.39631669442561
  C   -1.48585054106142     -0.65776418976327      0.36224254260938
  H   -1.06440033508900     -0.79637878527089      1.35572981360844
  H   -2.50089351097431     -0.27489059635478      0.47703889048229
  H   -1.53226732731280     -1.62083751044987     -0.14817265494100
