16
Coordinates from ORCA-job run
  C   0.97773024371589      0.23288611585679     -0.01466542457472
  C   -0.49619589662233      0.27117278045614     -0.36630954225994
  F   1.63963097353717      1.03160306846416     -0.94798767490113
  H   -0.62901674628272     -0.03042518368405     -1.40688441597239
  H   1.12781800192957      0.69955100101258      0.96244724988407
  C   1.56778175872447     -1.15707357422635     -0.06668139774442
  H   1.35199813733634     -1.63201514872606     -1.02645606360823
  H   1.18140196329839     -1.78410494681599      0.73820184120666
  H   2.65066083733425     -1.08721858016183      0.04535587838920
  N   -0.94643895876689      1.70340771872167     -0.32555832939735
  O   -1.47580478457489      2.15918461057204     -1.33509822263856
  O   -0.77627544930058      2.30517634770351      0.73232396520160
  C   -1.37526948325236     -0.52874389982903      0.57881435308827
  H   -2.42856482318975     -0.35250983563521      0.35233418740410
  H   -1.18900226192129     -0.23693856075116      1.61375739901298
  H   -1.18145351196527     -1.59595191295721      0.46640619690987
