16
Coordinates from ORCA-job run
  C   0.65520472852137     -0.72544939526073     -0.15228753969557
  C   -0.58914372978573      0.14467588331838     -0.31708827616864
  F   0.60128376285153     -1.38129944786758      1.07259519812025
  H   -0.61950477553654      0.49641799175476     -1.35039501267083
  H   0.59794270355923     -1.50062182497751     -0.92545024606417
  C   1.96380129813918      0.02528417042120     -0.24000405437891
  H   2.79322305001548     -0.68198324943769     -0.20351758935425
  H   2.06021260169586      0.71090661414262      0.60324339656049
  H   2.02573065016403      0.60018796629319     -1.16580186930530
  N   -0.41661772300199      1.39361401284547      0.49395566082894
  O   -0.03155784306933      2.39765590206417     -0.10531591113505
  O   -0.62257274178340      1.31756612856374      1.70261642372704
  C   -1.86814960788562     -0.56481020138508      0.07777663802608
  H   -1.82467467458844     -0.86420852174039      1.12226139876467
  H   -2.73145817408346      0.08588634092719     -0.07228384475649
  H   -1.99471952521219     -1.45582236966175     -0.54130437249827
