16
Coordinates from ORCA-job run
  C   0.96113688154192      0.24098155229872     -0.17069593822983
  C   -0.54694436040736      0.22607837226709     -0.32232270417770
  F   1.47292201175540      0.94282603498434     -1.26296000639689
  H   -0.80871884068991     -0.18565908193727     -1.29875381112657
  H   1.22886515904414      0.81060082556695      0.72312150409937
  C   1.57279573137155     -1.14043527994779     -0.15667493162458
  H   2.65882616080436     -1.04828772595261     -0.20245968583837
  H   1.31460056418009     -1.68017750032662      0.75567247313860
  H   1.24067817710186     -1.71890295737903     -1.02175798885655
  N   -1.02359616459930      1.64918930670122     -0.36941931680289
  O   -1.69478269632525      1.98960194781809     -1.33928113852445
  O   -0.72830412686475      2.36174507840697      0.58722550922694
  C   -1.27241866581434     -0.47936389664087      0.81001628080082
  H   -0.95805646520560     -0.07725359591713      1.77461590419314
  H   -1.06850092079573     -1.55025348876595      0.78369628035154
  H   -2.35050244509707     -0.33968959117611      0.70997756976741
