17

C	0.0	0.0	0.0
C	-0.440476	-0.074245	-1.541593
Cl	1.796046	0.0	0.0
H	0.044835	0.86254	-1.8807
C	-0.315882	1.282011	0.752065
H	0.063091	2.098888	0.130572
H	0.282249	1.294122	1.658491
H	-1.3514	1.464953	0.998405
N	-0.313072	-1.268767	0.832485
O	-0.32526	-2.323612	0.23196
O	-0.410841	-1.125228	2.045214
C	-1.748471	0.00164	-2.224563
N	-2.283231	0.118507	-3.277557
N	0.340143	-1.132727	-2.234743
H	-0.129066	-2.018565	-2.068619
H	0.216735	-0.94063	-3.225529
Br	-3.329273	0.0	0.0
