17

C	0.0	0.0	0.0
C	-0.404083	-0.062369	-1.495033
Cl	1.774038	0.0	0.0
H	-1.487923	-0.141526	-1.57952
C	-0.335519	1.253051	0.787719
H	-1.3779	1.528009	0.848063
H	0.078657	1.123078	1.793121
H	0.233118	2.075953	0.337094
N	-0.384471	-1.5146	0.792553
O	0.343162	-2.367801	0.282269
O	-1.089738	-1.713175	1.741699
C	0.065184	-1.214532	-2.298622
N	0.215938	-2.018787	-3.14525
N	-0.012754	1.219358	-2.107395
H	-0.59616	1.383102	-2.917832
H	0.956505	1.227981	-2.403898
Br	-3.249123	0.0	0.0
