15
Coordinates from ORCA-job run
  C   -0.41698287679573      0.06364453822947     -0.69020648050471
  C   0.92192461587188      0.41069549022016     -0.01684042271458
  H   -0.26801082818887     -0.82222651317768     -1.32070237479953
  H   1.64940191111880      0.65084598718870     -0.79828021152461
  H   0.78698042343857      1.32179006432786      0.57602986004105
  C   -0.81232355565277      1.16001604821580     -1.58053926501838
  N   -1.12694685329491      2.05532317117379     -2.27210060474708
  C   -1.54202997196005     -0.22374390640047      0.30982851840091
  H   -1.31351633481653     -1.11231528660366      0.89949902614997
  H   -1.67103451053602      0.62238135847537      0.98912107339313
  H   -2.48794994309387     -0.39411339824759     -0.20724205529324
  C   1.45963029934197     -0.71646181264000      0.85927261879351
  H   1.52950043412373     -1.65221995698598      0.29731301754407
  H   2.46042718711486     -0.47197078196466      1.22167442100254
  H   0.82993000332895     -0.89164500181111      1.73317287927695
