15
Coordinates from ORCA-job run
  C   -0.49150619554980     -0.01470482551156     -0.46612893679280
  C   0.51845610893606     -0.35539741825532      0.63919323340673
  H   -0.25468591122410     -0.62169345327718     -1.34917343438330
  H   0.36413690750377     -1.40521951416136      0.91156252313409
  H   0.27779412094546      0.24132664269942      1.52568201559172
  C   -0.34859766263136      1.38938598119957     -0.86457660328126
  N   -0.24086408687679      2.52138667106098     -1.15766982069053
  C   -1.93488313929506     -0.29909171032805     -0.03942417299305
  H   -2.04212855591478     -1.35574644846919      0.21637030701483
  H   -2.19816978560282      0.29747411789407      0.83670526291778
  H   -2.63932299200314     -0.06362473868148     -0.83921697069575
  C   1.96758760313026     -0.12622187878370      0.22534416841066
  H   2.14920236401332      0.92457259571662     -0.01065679557205
  H   2.22135386653010     -0.71997113481621     -0.65705904365959
  H   2.65062735803889     -0.41247488628661      1.02804826759250
