15
Coordinates from ORCA-job run
  C   -0.50984708325338      0.14353079416588     -0.42354091979459
  C   0.59404782065572     -0.54350525778572      0.39361606863547
  H   -0.24282659299299      0.07988809242884     -1.48596163320633
  H   0.32363196118303     -0.49357105820664      1.45394584499302
  H   0.59551147796176     -1.60323663079704      0.11574850417637
  C   -0.57494427496274      1.56875407515514     -0.08454825639424
  N   -0.62771009915575      2.70344132169929      0.21333113085784
  C   -1.87817726241342     -0.51274920021955     -0.21458449158840
  H   -2.64856405282493     -0.02344355904446     -0.81332262346269
  H   -2.17176735173735     -0.45595934839856      0.83581287737297
  H   -1.83076061368817     -1.56495901740549     -0.50433368797002
  C   1.97572876049649      0.06091931747532      0.17125679187576
  H   2.25878353018696      0.01347030835584     -0.88386699136778
  H   2.00355675162020      1.10766325310513      0.48190274341786
  H   2.73233702892458     -0.47924309052795      0.74454464245477
