15

C	0.0	0.0	0.0
C	-0.251036	0.311395	-1.52122
Br	2.011867	0.0	0.0
H	0.49873	-0.285338	-2.04465
H	0.019016	1.360252	-1.663794
N	-0.294885	1.24028	0.915532
O	-0.312178	2.358334	0.415672
O	-0.469484	0.993428	2.103933
N	-0.636493	-1.136894	0.449176
H	-0.477273	-1.246379	1.444206
H	-1.673733	-0.87046	0.297626
N	-1.530962	0.027021	-2.122269
H	-2.268403	0.288854	-1.448602
H	-1.621093	-0.981798	-2.170523
F	-2.926939	0.0	0.0
