15

C	0.0	0.0	0.0
C	-0.479876	0.227419	-1.430089
Br	1.990692	0.0	0.0
H	-1.562383	0.357324	-1.293096
H	-0.301247	-0.733447	-1.919214
N	-0.295017	1.27696	0.869218
O	-0.464457	2.355327	0.309188
O	-0.330043	1.109126	2.082928
N	-0.6073	-1.118823	0.541603
H	-1.655583	-0.862013	0.387959
H	-0.408955	-1.157075	1.535447
N	0.212667	1.270962	-2.185967
H	-0.157678	2.164532	-1.888814
H	-0.030881	1.147602	-3.161568
F	-2.838479	0.0	0.0
