15

C	0.0	0.0	0.0
C	-0.520578	0.370963	-1.428716
Br	1.948413	0.0	0.0
H	0.325323	0.704597	-2.031921
H	-1.203428	1.202892	-1.290605
N	-0.258217	1.240651	0.948794
O	-0.471391	0.991552	2.130409
O	-0.183503	2.364928	0.467326
N	-0.571861	-1.153457	0.50717
H	-1.611595	-0.90496	0.42108
H	-0.318871	-1.254722	1.483656
N	-1.268592	-0.670512	-2.101211
H	-2.128876	-0.708256	-1.54515
H	-0.789185	-1.555937	-1.98299
F	-2.806133	0.0	0.0
