15

C	0.0	0.0	0.0
C	-0.431418	0.004796	-1.455767
Br	2.07049	0.0	0.0
H	-0.015486	0.888963	-1.942403
H	-1.520498	0.098264	-1.361797
N	-0.199118	1.459103	0.58213
O	-0.165933	2.417944	-0.181004
O	-0.368793	1.534318	1.794031
N	-0.599588	-0.946903	0.768592
H	-0.423252	-0.749826	1.747037
H	-1.663118	-0.737667	0.523517
N	-0.086638	-1.256113	-2.105248
H	0.841473	-1.196381	-2.504686
H	-0.747196	-1.422002	-2.853141
F	-2.802933	0.0	0.0
