16

C	0.0	0.0	0.0
C	-0.548487	-0.009517	-1.421608
Br	1.950084	0.0	0.0
H	-1.63981	-0.140092	-1.198684
H	-0.241925	-0.966371	0.445175
N	-0.558934	1.128567	0.68585
H	-0.333619	1.035547	1.671572
H	-1.585834	0.910369	0.569264
N	-0.09429	-1.236188	-2.133188
O	-0.14838	-2.304073	-1.521783
O	0.272817	-1.139259	-3.307813
C	-0.26874	1.240317	-2.218149
H	-0.60843	2.086282	-1.621311
H	0.796297	1.355546	-2.428968
H	-0.810694	1.222422	-3.164403
F	-2.831244	0.0	0.0
