16

C	0.0	0.0	0.0
C	-0.179884	-0.078352	-1.568749
Br	2.027339	0.0	0.0
H	0.520619	-0.827037	-1.93672
H	-0.253861	-0.99299	0.374727
N	-0.660314	0.967473	0.75504
H	-0.581897	1.86156	0.284525
H	-1.684463	0.64029	0.644177
N	0.307029	1.180278	-2.222227
O	-0.152297	2.255043	-1.831962
O	1.097537	1.068427	-3.160462
C	-1.553097	-0.365971	-2.153671
H	-1.836292	-1.384951	-1.886295
H	-1.475201	-0.290187	-3.244897
H	-2.32161	0.260603	-1.706734
F	-2.945081	0.0	0.0
