16

C	0.0	0.0	0.0
C	-0.201788	-0.519362	-1.482858
Br	1.983308	0.0	0.0
H	0.491149	-1.34807	-1.620957
H	-0.274561	-0.841058	0.638308
N	-0.649941	1.152551	0.461747
H	-0.547149	1.88537	-0.230214
H	-1.670594	0.829837	0.437997
N	0.296916	0.493139	-2.468123
O	1.051152	0.097536	-3.358591
O	-0.119558	1.648879	-2.379335
C	-1.578012	-0.949707	-1.971092
H	-1.497556	-1.122305	-3.05285
H	-2.349782	-0.242252	-1.662872
H	-1.844665	-1.888725	-1.477766
F	-2.951655	0.0	0.0
