16

C	0.0	0.0	0.0
C	-0.152862	-0.048569	-1.566298
Br	2.075737	0.0	0.0
H	0.496643	-0.842893	-1.932784
H	-0.237062	-1.002076	0.360103
N	-0.662237	0.951401	0.757001
H	-1.694593	0.610209	0.646371
H	-0.584485	1.851357	0.299764
N	0.421688	1.180244	-2.208216
O	0.076744	2.280294	-1.774146
O	1.155005	1.022005	-3.184018
C	-1.53855	-0.220668	-2.168568
H	-1.435851	-0.172346	-3.259976
H	-1.937434	-1.190214	-1.877297
H	-2.245726	0.496826	-1.765436
F	-2.922925	0.0	0.0
