17
Coordinates from ORCA-job run
  C   0.93979044772062     -0.13629465012590     -0.31256000419351
  C   -0.39770014338010      0.21561151863830      0.33022968275907
  F   0.83018099529109     -0.20997445072612     -1.66231354493396
  H   -0.20656489526152      0.27123772989530      1.40697646260352
  C   2.01245188185972      0.79986394046251      0.04124427091307
  N   2.84208415424556      1.58460095964770      0.31663211662756
  N   1.36259389340026     -1.52120145810890      0.19145230313534
  O   1.63481377866403     -1.56516409328240      1.38426000541442
  O   1.33708788274445     -2.44191155344678     -0.60812774547575
  C   -1.42458278888645     -0.88078625230014      0.05134759851098
  H   -1.53310165433688     -1.05175234395534     -1.02158034057588
  H   -1.15819213329251     -1.82637039159044      0.52792794122547
  H   -2.39469235831617     -0.57457440415132      0.44738625592810
  C   -0.86445879524220      1.57762414553577     -0.17945846314066
  H   -0.13458154365379      2.36381759824400      0.02627032000136
  H   -1.04824310113293      1.54650827863615     -1.25509942268524
  H   -1.79788562042317      1.85076542662761      0.31641256388612
