17
Coordinates from ORCA-job run
  C   0.97301404703956      0.00310856030319     -0.44160435819333
  C   -0.54202166284524      0.11684946159751     -0.35246106257845
  F   1.43894534442371      0.71194190098560     -1.50679928501775
  H   -0.89193264175357     -0.20207696146828     -1.34189333889443
  C   1.66199177867722      0.44437253748962      0.77457705868163
  N   2.16338090481805      0.86830326438238      1.74865693945815
  N   1.33245961287095     -1.46136650405950     -0.70388955267109
  O   1.69596616218864     -2.12724417505050      0.25826491352025
  O   1.15348078869542     -1.84354020357336     -1.85109029681436
  C   -0.93255908058935      1.57484932499873     -0.12003688493263
  H   -0.48210876066401      2.23515733033013     -0.86231802360277
  H   -0.62890699976305      1.90801672743477      0.87584685913219
  H   -2.01757539661666      1.67466514597520     -0.19150954375326
  C   -1.11259498726229     -0.80515879206111      0.72153960433850
  H   -0.93599286142928     -1.85982673840976      0.50442233854791
  H   -0.68447102751675     -0.58158378249636      1.70221723473942
  H   -2.19207522027332     -0.65546709637825      0.78507739804002
