17
Coordinates from ORCA-job run
  C   0.98669271454381     -0.03865062387558     -0.40903300953172
  C   -0.52690591198926      0.11814583053250     -0.37441350473175
  F   1.50606062660093      0.61820017519047     -1.48293021253799
  H   -0.85326920404275     -0.22602706329405     -1.36341292408055
  C   1.64704425357175      0.43010090474372      0.81278563483383
  N   2.12856707379032      0.87852418186162      1.78592562892611
  N   1.31404871028359     -1.52024075961524     -0.60607753154476
  O   1.63067831427818     -2.15905395951056      0.39038903917147
  O   1.15775418632998     -1.94028313283084     -1.74330757400244
  C   -0.88444459290476      1.59309634834707     -0.20499185834531
  H   -0.39090492901827      2.21488315530773     -0.95326219116318
  H   -0.60517923323475      1.95259348801635      0.78887715581838
  H   -1.96328007210802      1.71944361345630     -0.31741579243437
  C   -1.15691069849602     -0.75051121545766      0.71066443855129
  H   -0.99885338655699     -1.81617088742815      0.53746652986133
  H   -0.75804863218554     -0.50128103743723      1.69756674976731
  H   -2.23404921886221     -0.57376901800645      0.73016942144235
