17
Coordinates from ORCA-job run
  C   0.89847391375184     -0.13359361176036     -0.41716782391438
  C   -0.36120847288339      0.22583352102504      0.36337956021749
  F   0.62710338804125     -0.29597480962028     -1.73618674269393
  H   -0.04336991063638      0.35427074533795      1.40330423605864
  C   1.97596880749049      0.84881990202861     -0.25641673858712
  N   2.80800605551460      1.66899603096087     -0.13450398937125
  N   1.42409117748761     -1.47280667078422      0.11298762703362
  O   1.33134618629796     -2.44303004507240     -0.62031303826278
  O   1.84117977059134     -1.43390305902679      1.26334813816716
  C   -1.37972642622799     -0.90974630181716      0.27871590119043
  H   -1.61661166954156     -1.14638837391993     -0.76051444253711
  H   -2.30146803783423     -0.60409479125087      0.77737747810529
  H   -1.02630190746140     -1.81891565042960      0.76936500989638
  C   -0.92882769717776      1.54206193228548     -0.16458047444152
  H   -1.23611072417241      1.44134985948644     -1.20725584234308
  H   -0.20555858858227      2.35743448098647     -0.09209693255122
  H   -1.80598586465770      1.82068684157073      0.42255807403339
