17
Coordinates from ORCA-job run
  C   0.88341734029703     -0.23871893546568     -0.64122565662389
  C   -0.53673848721432      0.26377494420741     -0.38344066816109
  F   0.90077302683996     -1.02801849442056     -1.74682176716984
  H   -0.81302367941389      0.71662103855682     -1.34442929921057
  C   1.86546771386795      0.83770041302061     -0.80336525083225
  N   2.61878062157603      1.72088969281596     -0.98297856285027
  N   1.33798186574357     -1.10744568803500      0.53509267319738
  O   1.24688333333231     -2.31682954286636      0.39710646019164
  O   1.69643678669383     -0.49130549304647      1.53203497211352
  C   -0.61465241810872      1.33282244938935      0.70242545598815
  H   -1.63926991047564      1.70741183281953      0.75373017508501
  H   0.04290892770651      2.17916747384929      0.49471561347251
  H   -0.35181157142038      0.92743285646606      1.68030204496639
  C   -1.47417976876941     -0.90986678737042     -0.10405950289760
  H   -1.30039236692158     -1.32554991909923      0.89162401265571
  H   -1.35595531659243     -1.70847563654696     -0.83700539847443
  H   -2.50762609714083     -0.55961020427436     -0.14170530145037
