17
Coordinates from ORCA-job run
  C   0.87704061599800     -0.26836581554647     -0.63856971374118
  C   -0.53223460014405      0.26723570815741     -0.38741349325830
  F   0.87583109530957     -1.07896074430090     -1.72884307868784
  H   -0.80174027061008      0.70757413701365     -1.35610259040962
  C   1.87970960041816      0.78511119369830     -0.82386059035316
  N   2.64951905311585      1.65014577468361     -1.02105098908743
  N   1.31757734201004     -1.12297994544975      0.55323007046498
  O   1.69177006916686     -0.49483907574917      1.53682321851397
  O   1.20178492058992     -2.33272262471659      0.43921423318454
  C   -0.58588807806491      1.35729063348171      0.67885760063024
  H   -1.60256513876705      1.75330905392960      0.72588783102413
  H   -0.32878099173078      0.96475075704283      1.66347105572134
  H   0.08806426601240      2.18620313506873      0.45418014640629
  C   -1.49245523850428     -0.88200187769371     -0.08480372906819
  H   -2.51852186987299     -0.51091926083585     -0.12386223712319
  H   -1.39423176631616     -1.69490924573042     -0.80506070563228
  H   -1.32287900861053     -1.28492180305299      0.91690297141570
