17
Coordinates from ORCA-job run
  C   0.90043618998292     -0.26413303404273     -0.60653575272993
  C   -0.52370640900142      0.25376524477862     -0.40765075906587
  F   0.94560409370524     -1.08950015706199     -1.68474853992210
  H   -0.76886869054790      0.67544165738499     -1.39102385874379
  C   1.89370105132395      0.80095925856676     -0.77477738559151
  N   2.65783018383352      1.67372677565321     -0.95966663870366
  N   1.31496395850015     -1.09607693926404      0.61061655011992
  O   1.22052569977004     -2.30884591874118      0.50975325776070
  O   1.64782349407313     -0.44917814861519      1.59688030496748
  C   -0.62680700061577      1.35866374762557      0.63950609531928
  H   -0.39383923521453      0.98509711085578      1.63740513313155
  H   0.04081736382993      2.19465284996046      0.42234304122075
  H   -1.65043010091752      1.73917360898410      0.64950630398450
  C   -1.47599837374716     -0.90534775119385     -0.11792884888367
  H   -1.33190937582727     -1.29140601259878      0.89437393789361
  H   -1.34355793202242     -1.72685558862039     -0.82282264300429
  H   -2.50558491712490     -0.55013670367133     -0.19423019775296
