17
Coordinates from ORCA-job run
  C   0.92439199563500     -0.15028899360063     -0.35082690711581
  C   -0.38170340198145      0.22550001746474      0.34105287328490
  F   0.75261384484782     -0.26671322008638     -1.69120578086105
  H   -0.14218326577612      0.31223910192639      1.40605315132315
  C   2.01309407799565      0.79395475518541     -0.07683296332660
  N   2.85400464117891      1.58610380128615      0.13551679804151
  N   1.36785733896823     -1.51959113440076      0.17714926269511
  O   1.29373320852660     -2.46714769877630     -0.58747028379436
  O   1.70363472204325     -1.52495143630918      1.35434418720252
  C   -1.42401508906781     -0.87331737280991      0.14075129495568
  H   -2.37111559257263     -0.55458097228118      0.58002852441973
  H   -1.13622509247313     -1.80957881190411      0.62311008101609
  H   -1.58866068370257     -1.06722080628841     -0.92098641172019
  C   -0.86678436814510      1.57457592429920     -0.18625637473860
  H   -0.12965067364936      2.36482056998718     -0.02645585764874
  H   -1.78200869722244      1.86094860220312      0.33561782006434
  H   -1.08898296460487      1.51624767410466     -1.25358941379769
