17
Coordinates from ORCA-job run
  C   0.98968656949362     -0.04636344321426     -0.40069165485373
  C   -0.51951186825955      0.14779593409102     -0.37443453947895
  F   1.53726923686613      0.64148634970525     -1.44068583854577
  H   -0.84363798455573     -0.14619946795088     -1.38022070250255
  C   1.64910833161039      0.35195833700928      0.84623094046399
  N   2.12983009803219      0.74444969088330      1.84364187838185
  N   1.28142834525499     -1.52689589465723     -0.65735426529067
  O   1.56984038017433     -2.21490944425999      0.31459055145107
  O   1.12907775813558     -1.89460554559168     -1.81303018202054
  C   -0.84132044315024      1.62310598692385     -0.14608803754244
  H   -0.56444124399391      1.93223699975441      0.86525565005229
  H   -1.91523798635083      1.78194366692856     -0.26388991383453
  H   -0.32369999763392      2.26337077579574     -0.86169094022353
  C   -1.18331191093386     -0.74904147498431      0.66682115279925
  H   -1.05054832384951     -1.81016934181336      0.44998172712567
  H   -2.25574466190668     -0.54531297445552      0.68342034925601
  H   -0.78878629893299     -0.55185015416415      1.66714382476261
