17
Coordinates from ORCA-job run
  C   0.92547080497860     -0.12397137429956     -0.35658642374938
  C   -0.38521823907064      0.21273096801328      0.34625363144933
  F   0.75089892245788     -0.22163809457873     -1.69804230770132
  H   -0.14289184535501      0.28892688375951      1.41136867934599
  C   1.99578235092679      0.83769809362700     -0.07083674012780
  N   2.82215477136330      1.64242132056682      0.15132877577192
  N   1.40019807416200     -1.49240819198020      0.14668253121951
  O   1.73337351693598     -1.51167497862528      1.32458216848652
  O   1.35273434108400     -2.42645112051376     -0.63625867526503
  C   -1.40350976538053     -0.90634376921206      0.13406906902469
  H   -1.09558717090306     -1.84027987078874      0.60861927700432
  H   -2.35813677205813     -0.61246368566304      0.57453951734188
  H   -1.56247342032667     -1.09406998075424     -0.92971653025514
  C   -0.90256200421750      1.55816400997727     -0.15907163154870
  H   -0.17921249271183      2.36088842094249      0.00115538704707
  H   -1.13640937716965      1.50813432327844     -1.22427293354767
  H   -1.81661169471554      1.82033704625081      0.37718620550388
