17
Coordinates from ORCA-job run
  C   0.88180400262641     -0.23697127379781     -0.64322698661333
  C   -0.53786137342856      0.26490705366268     -0.38134631157466
  F   0.89687906528553     -1.02347886151813     -1.75099671326984
  H   -0.81628942180428      0.72022815948230     -1.34052827586343
  C   1.86361204008021      0.83963850740280     -0.80535151446574
  N   2.62127000960012      1.71842423923173     -0.98824803520913
  N   1.33891056890584     -1.10844856895021      0.52991386448854
  O   1.70029083078220     -0.49442067769819      1.52715512153331
  O   1.24769291550703     -2.31749046938041      0.38939639101101
  C   -0.61299518868169      1.33091483564848      0.70776603886398
  H   0.04431344318250      2.17761757812941      0.50069349573745
  H   -1.63736486559090      1.70554149319847      0.76262866186500
  H   -0.34797402618046      0.92292746914324      1.68394820107150
  C   -1.47520359130589     -0.90923938285434     -0.10363405194471
  H   -2.50827324658202     -0.55730442608928     -0.13442707305017
  H   -1.29723693189484     -1.33081072469487      0.88889517361994
  H   -1.36157423050117     -1.70403495091588     -0.84163798619971
