12
Coordinates from ORCA-job run
  C   0.88951838160176     -0.00813371558273      0.49600404232284
  C   -0.30886337211602      0.10201174471757     -0.45282961554748
  Cl  1.84897665355270      1.48484748023768      0.39548744818595
  H   0.01819548635896      0.33016104133989     -1.46895905319389
  H   0.51738312187522     -0.09447642212029      1.51913153584457
  C   1.69845121170864     -1.16840336780024      0.14520193021429
  N   2.33909891360573     -2.10823072664718     -0.14869159758287
  N   -1.16340043949634      1.27499050155931     -0.00769793106163
  O   -1.46797657938519      1.29488961133290      1.17770110231335
  O   -1.47096387493409      2.08186908023902     -0.87399458609536
  C   -1.12636084827852     -1.10424271286729     -0.40989297428803
  N   -1.77305865449285     -2.08428251440865     -0.37046030111174
