12
Coordinates from ORCA-job run
  C   0.95404793833741     -0.53882281101708     -0.22806453845629
  C   -0.54022680757151     -0.23280557527991     -0.37852162799414
  Cl  1.15975969103369     -2.30261903387222     -0.12158598324106
  H   -0.91682337691137     -0.73960166377986     -1.27302828612083
  H   1.47253839597065     -0.20033624434410     -1.12455151503009
  C   1.51070920977193      0.12885130243104      0.94247893997308
  N   1.94857748581967      0.68203035061228      1.88158691345404
  N   -0.73521857211032      1.25696178438701     -0.65299380205582
  O   -1.79315209274850      1.75136314306259     -0.29592924982929
  O   0.17084307769192      1.80477217330315     -1.26938335927216
  C   -1.31407816570733     -0.62948509243778      0.78842427866609
  N   -1.91797678357623     -0.98030833306511      1.73256822990646
