12
Coordinates from ORCA-job run
  C   0.93571166834552     -0.53909048870055     -0.22995984335318
  C   -0.55752790495630     -0.22326709340731     -0.39431831806089
  Cl  1.15335200242642     -2.30153994799695     -0.18046539684379
  H   -0.91204257129667     -0.68794242398200     -1.31819592872921
  H   1.45779918035057     -0.16678481630501     -1.11286454006656
  C   1.47430055333506      0.09432033270504      0.96807367623551
  N   1.90448597723953      0.62670721059621      1.92287115024218
  N   -0.68237310954148      1.27807831693358     -0.61651596346862
  O   -1.32476088494147      1.93521304965315      0.18895866228880
  O   -0.09421700696223      1.68505649147390     -1.61224146617080
  C   -1.35654293008993     -0.65312380296802      0.74210790155741
  N   -1.99818497390901     -1.04662682800213      1.64355006636912
