12
Coordinates from ORCA-job run
  C   0.87190904281263     -0.01714066717438      0.52519989581048
  C   -0.29795220511181      0.13454056685901     -0.45275720838316
  Cl  1.75604667790866      1.52212742152879      0.61666713722755
  H   0.05049959408718      0.48424371383164     -1.42634556059462
  H   0.47074708925088     -0.22798579804937      1.51887614206276
  C   1.75111058664266     -1.09473567172888      0.08993124223298
  N   2.44905724040119     -1.96763495695404     -0.27198638144465
  N   -1.22745557900867      1.21048556622359      0.07878820317536
  O   -1.54982111940417      2.08765673687869     -0.71046703899357
  O   -1.57085404947010      1.09036054314080      1.24759158914140
  C   -1.05299587740569     -1.10731152870269     -0.56591613943897
  N   -1.65029140070275     -2.11560592585316     -0.64958188079557
