12
Coordinates from ORCA-job run
  C   0.91835975972939     -0.57658325285619     -0.21270580955513
  C   -0.56606278817344     -0.22369807705777     -0.38213758755455
  Cl  1.08428967166421     -2.34124395374468     -0.09096398987291
  H   -0.93976078618866     -0.71535397145151     -1.28422737091533
  H   1.44539861567082     -0.25709738012305     -1.11320658110857
  C   1.48269650752284      0.08996810990014      0.95496783792895
  N   1.92820736631072      0.65252278582913      1.88515629670001
  N   -0.64792966305319      1.27027047393878     -0.66561936385845
  O   -0.05744370761789      1.61728517435147     -1.68245226545057
  O   -1.26243153944257      1.97952107425567      0.11698655096298
  C   -1.36981868896917     -0.58245660112615      0.77532962270473
  N   -2.01550474745308     -0.91313438191581      1.69887266001884
