12
Coordinates from ORCA-job run
  C   0.84616212594779     -0.60013935225058      0.13751949292498
  C   -0.48236910753018     -0.05199855057127     -0.41187013289864
  Cl  0.74848495546509     -0.82034499543298      1.89723362203541
  H   -0.34503366490534      0.22438922681605     -1.46187576488740
  H   0.99296402556810     -1.59174234346499     -0.29967087958425
  C   1.98478693801133      0.23687882878500     -0.22725075891802
  N   2.93167023215041      0.85402912988639     -0.54648549208170
  N   -0.84374823089014      1.23838585600687      0.30209256536347
  O   -1.81608194575755      1.23105766679215      1.04296850086577
  O   -0.09133089907537      2.17434574308802      0.06286148701101
  C   -1.54906337563289     -1.03345495892606     -0.27879561357670
  N   -2.37744105335126     -1.86340625072859     -0.21672702625388
