12
Coordinates from ORCA-job run
  C   0.96445462847600     -0.47937344652584     -0.24461885680349
  C   -0.53394584522262     -0.20513343072178     -0.43559720868923
  Cl  1.25193603588794     -2.22897006010471     -0.35553503995577
  H   -0.83482349923907     -0.58899309592840     -1.41393358707184
  H   1.50099528370843     -0.00389278121332     -1.06729078492762
  C   1.43526315579302      0.05463203448725      1.02791307693349
  N   1.80613687209540      0.50970317443372      2.04557540339701
  N   -0.71215517175790      1.30497262078502     -0.51574986655728
  O   -1.40428881438056      1.85637752482078      0.32694882648376
  O   -0.11051510178809      1.82825615347637     -1.44698613182656
  C   -1.35415670780927     -0.77539261676359      0.62087575630453
  N   -2.00990083576328     -1.27318607674551      1.45839841271302
