12
Coordinates from ORCA-job run
  C   0.88357106338516      0.01454690684912      0.50437399430171
  C   -0.31132350288835      0.11097188921327     -0.45041302582530
  Cl  1.75181704467518      1.56552041746539      0.50716179130877
  H   0.01005593379657      0.41768111907881     -1.44752327833092
  H   0.50883686507559     -0.15718839695632      1.51579080148602
  C   1.76398597315477     -1.07182866014732      0.09405874796252
  N   2.46180412614469     -1.95295125792750     -0.24752586965706
  N   -1.23744934008011      1.20218757415216      0.05370573330974
  O   -1.55643460882236      1.12917140978906      1.23328727706710
  O   -1.58078834461017      2.04420679669487     -0.76443869512961
  C   -1.05560916035430     -1.14202554729990     -0.48780423528842
  N   -1.63946604947666     -2.16129225091161     -0.50867324120455
