12
Coordinates from ORCA-job run
  C   1.00695663371775     -0.47510983653360     -0.10922548512781
  C   -0.44979928087558     -0.20007353279703     -0.49814140248156
  Cl  1.28745976809736     -2.23032750643606     -0.17971513246198
  H   -0.62936032322335     -0.59921601835223     -1.50177791007569
  H   1.65957244119738     -0.00730406607497     -0.84571535734844
  C   1.30441117709602      0.05454718878183      1.21624289717645
  N   1.53884052587872      0.49779116124417      2.27845838235489
  N   -0.67201206929801      1.30573401905573     -0.62311945415221
  O   0.29403142207737      1.95152742503265     -1.01154075397936
  O   -1.79515427615365      1.72233054509952     -0.38671053757390
  C   -1.39974330791753     -0.76802074556224      0.44676065177887
  N   -2.14520271059647     -1.25187863345778      1.21448410189080
