12
Coordinates from ORCA-job run
  C   0.84626537202860     -0.58802076370915      0.20137164522311
  C   -0.47314500117219     -0.09293338436812     -0.41656162173600
  Cl  0.71473983974454     -0.68164183203914      1.96979685588845
  H   -0.31666636267638      0.08774187520832     -1.48441019241985
  H   1.01009420326989     -1.60697139779713     -0.16039354938648
  C   1.98427175912527      0.23354738878983     -0.19876334493222
  N   2.92593648482006      0.84811924332318     -0.53795500289274
  N   -0.84674160792793      1.25496635383366      0.17243554872719
  O   -1.79578119337926      1.30057423105067      0.94188296967407
  O   -0.12797885481875      2.17952934763928     -0.18669540424303
  C   -1.54246180986698     -1.05961762177869     -0.21441470494548
  N   -2.37753282914689     -1.87529344015271     -0.08729319895701
