12
Coordinates from ORCA-job run
  C   0.76589938873799     -0.64003030868457      0.31271855285573
  C   -0.39685972819931     -0.03816877120495     -0.49538560569375
  Cl  0.32027523053812     -0.79030799247959      2.02543322157218
  H   -0.04409647713008      0.19377878992436     -1.50520770377528
  H   0.93107090730847     -1.65373976357565     -0.06284517705662
  C   2.00373903436018      0.11640724481867      0.15335574644713
  N   3.03089911059498      0.66570059718981      0.00292940222336
  N   -0.80916852999845      1.29327201344363      0.10625480166194
  O   -1.90869087264310      1.36752628598992      0.63543232077722
  O   0.03480210386096      2.17469758959357      0.00588635971123
  C   -1.52648424911871     -0.95453664724625     -0.54914793809374
  N   -2.40138591831104     -1.73359903776895     -0.62942398062944
