12
Coordinates from ORCA-job run
  C   0.83742199346617     -0.60684430237862      0.15863407110895
  C   -0.47522360788956     -0.05065615577383     -0.41972667238673
  Cl  0.70561072598868     -0.80706976511878      1.91849328875232
  H   -0.31744161985063      0.21391208731142     -1.46998184038961
  H   0.98052653778826     -1.60490000393980     -0.26483683141639
  C   1.99160556070538      0.21345830324444     -0.19446983324828
  N   2.95120195819202      0.81613729293441     -0.50327018422675
  N   -0.83649196617599      1.25029090759436      0.27486257298115
  O   -0.06736035714327      2.17483873941696      0.04446075317644
  O   -1.82524605222630      1.26145871116918      0.99358741751546
  C   -1.55380202232356     -1.02045929186659     -0.29628063683373
  N   -2.39080115053120     -1.84216652259315     -0.24047210503281
