12
Coordinates from ORCA-job run
  C   0.92645270262461     -0.06181394981595      0.41656943068820
  C   -0.33817994455373      0.08111714387945     -0.43711885909456
  Cl  2.04537028220853      1.26212557261028      0.02272443197948
  H   -0.08829771107006      0.12489318283454     -1.49882600582874
  H   0.65069992048841      0.03953318377261      1.46849660174509
  C   1.54955639071256     -1.35652700320752      0.17336655837220
  N   2.04130977990588     -2.40415130996095     -0.02835052218154
  N   -0.99503091912667      1.40667864389010     -0.09901416877668
  O   -1.17843602488504      1.62364551884066      1.09162585463377
  O   -1.28299222042249      2.12684545937165     -1.04514630110489
  C   -1.28806795883189     -0.98750011741758     -0.15251438770154
  N   -2.04338429705011     -1.85484632479728      0.08718736726921
