12
Coordinates from ORCA-job run
  C   0.84453049082421     -0.57564102276603      0.22367682699032
  C   -0.46142333550255     -0.08957112551643     -0.42828548329425
  Cl  0.66472717056658     -0.65963985299711      1.98861944824294
  H   -0.27742748202960      0.10598623126178     -1.48933314204885
  H   1.02135947081029     -1.59627017901998     -0.12700904504527
  C   1.99156020153455      0.24475867925342     -0.15201136727612
  N   2.94589665565588      0.84690891257049     -0.47772573535288
  N   -0.86952418357400      1.24700417206533      0.16507280064815
  O   -0.11367971167850      2.17108018407757     -0.10719307220831
  O   -1.87837682846494      1.28435744795047      0.85440780429573
  C   -1.52318722453039     -1.07268759733854     -0.26936505843535
  N   -2.34445522361157     -1.90728584954101     -0.18085397651613
