12
Coordinates from ORCA-job run
  C   0.84707205011514     -0.58526605608643      0.18895110918661
  C   -0.47574781925322     -0.08179383322852     -0.41420474252502
  Cl  0.72515584191017     -0.68620963558567      1.95788179672459
  H   -0.32547772957949      0.12405617517099     -1.47859610290142
  H   1.00319618006597     -1.60359186836508     -0.17794526518925
  C   1.98823843510702      0.22957448686371     -0.21572536531116
  N   2.93710118617328      0.82913494993720     -0.56165977068252
  N   -0.85280561730539      1.25150512336631      0.20674676381945
  O   -1.83957378372621      1.29047487708674      0.92714784203248
  O   -0.09683210830611      2.17147757464393     -0.07872391814188
  C   -1.53975138140773     -1.05814843343669     -0.23033643326614
  N   -2.37057525379339     -1.88121336036646     -0.12453591374576
