16

C	0.0	0.0	0.0
C	-0.518643	-0.199356	-1.403448
F	1.357749	0.0	0.0
H	-1.584452	0.039199	-1.401744
H	0.003871	0.509958	-2.044797
N	-0.267119	1.491495	0.440225
O	-0.227467	2.365058	-0.418738
O	-0.407229	1.690114	1.644567
N	-0.521696	-0.901579	0.923404
H	-0.308168	-0.596205	1.865241
H	-1.540425	-0.899118	0.802367
C	-0.286743	-1.631724	-1.874769
H	-0.865026	-2.334235	-1.274746
H	0.771287	-1.903376	-1.80355
H	-0.598105	-1.734349	-2.91755
Cl	-3.65815	0.0	0.0
