16

C	0.0	0.0	0.0
C	-0.4957	0.148828	-1.413582
F	1.39893	0.0	0.0
H	-1.559561	0.389168	-1.362446
H	0.035418	0.994514	-1.85176
N	-0.229066	1.345462	0.782368
O	-0.201931	2.395921	0.151792
O	-0.322143	1.254261	2.003477
N	-0.517775	-1.091623	0.682347
H	-0.316857	-1.004199	1.671432
H	-1.536308	-1.068587	0.554042
C	-0.266924	-1.126276	-2.217971
H	-0.888573	-1.936899	-1.838178
H	0.77836	-1.441121	-2.171355
H	-0.530837	-0.956143	-3.264896
Cl	-3.614381	0.0	0.0
