16

C	0.0	0.0	0.0
C	-0.51644	0.226493	-1.403837
F	1.389593	0.0	0.0
H	-1.532861	0.612185	-1.317832
H	-0.60321	-0.771674	-1.841115
N	-0.239869	1.266103	0.8962
O	-0.100082	1.089536	2.105378
O	-0.4727	2.345318	0.364086
N	-0.516222	-1.145067	0.599628
H	-1.532863	-1.123482	0.458047
H	-0.325954	-1.119258	1.595124
C	0.368786	1.101349	-2.283569
H	-0.090804	1.199066	-3.270641
H	1.360183	0.664009	-2.414229
H	0.480654	2.099695	-1.863602
Cl	-3.613919	0.0	0.0
