13
Coordinates from ORCA-job run
  C   0.54681263719278     -0.43823259112197     -0.75446509150037
  C   -0.53830073155367      0.55104128909342     -0.33874136902824
  H   0.06947020928090     -1.26403998436240     -1.29035047893196
  H   -1.19037261450097      0.81525563301241     -1.17949537377080
  H   1.20184431006467      0.08257875630470     -1.45772412808421
  N   1.28834168359374     -0.84237167904667      0.42618261574886
  H   2.27505052846530     -0.93200426165678      0.23599108682076
  H   0.94270142858472     -1.72057405446518      0.78592084214897
  C   0.02565704426065      1.76564043901710      0.23971416256821
  N   0.50502178987625      2.76317509709363      0.63000658585102
  N   -1.46880486938572     -0.10039350810884      0.67206582008823
  O   -2.05404423577225      0.63683164821770      1.45280071543771
  O   -1.60437718010640     -1.31590678397712      0.57809461265182
