13
Coordinates from ORCA-job run
  C   0.30381714908685     -0.80712482152271     -0.21645729522839
  C   -0.47268059699451      0.51076502551342     -0.08783255442751
  H   -0.35541613360763     -1.51964348958743     -0.71817566383536
  H   -0.79296703481463      0.84455800923807     -1.07491680297567
  H   0.51378954414972     -1.18098595224547      0.79419094931780
  N   1.47064717899937     -0.55800248710751     -1.04425416279828
  H   2.23696062043880     -0.20424050442356     -0.48549181613907
  H   1.77742430283420     -1.40958020773390     -1.49377032094272
  C   0.33631284838854      1.53261941567304      0.56558010178577
  N   1.04494183946170      2.32669075564343      1.06092359976802
  N   -1.72080223440561      0.24550317821134      0.71075866633014
  O   -1.62425064362771      0.26588805368188      1.93304759406547
  O   -2.71777683990909     -0.04644697534063      0.05739770507980
