13
Coordinates from ORCA-job run
  C   0.84841162308538     -0.19927103741573     -0.41595081323149
  C   -0.54547190391789      0.40422507909446     -0.30515298042298
  H   1.52182032954904      0.33496642035856      0.26200046385280
  H   -1.23326728695602     -0.10714382274530     -0.98042598848845
  H   1.18897831484683     -0.01901814788827     -1.43897873653321
  N   0.74543157415696     -1.62994882547784     -0.17344478655871
  H   0.89214388057833     -1.82634156250331      0.80749070819285
  H   1.44287856886935     -2.13319059074460     -0.70319437873785
  C   -0.56238204741336      1.84486857090252     -0.54454892481442
  N   -0.52885776058442      2.99923075760800     -0.75696259389444
  N   -1.11619521381045      0.16233285868407      1.08079140917254
  O   -2.33703998749889      0.15398746617259      1.16579832803413
  O   -0.31745009090487      0.01730283395485      2.00057829342925
