13
Coordinates from ORCA-job run
  C   0.46957771041445     -0.75483185403144      0.03269491878340
  C   -0.57432332882998      0.34465209851878     -0.20626968188002
  H   0.77588346751734     -0.71307051048470      1.08618930228397
  H   -0.97754210304211      0.25416055362103     -1.21492502776962
  H   -0.02618280259987     -1.71216703508932     -0.14550448755323
  N   1.53715149534143     -0.57301763283702     -0.93524234083861
  H   2.21665156535521      0.09607468635045     -0.59615405572122
  H   2.01616758349731     -1.44662858119164     -1.10519094548307
  C   0.00291009889320      1.66745182270899      0.00148545561330
  N   0.52910385193332      2.70723666061002      0.14312110572431
  N   -1.71979660424577      0.12194404947612      0.74477085366630
  O   -1.60930345863703      0.57623397273428      1.87836339233449
  O   -2.63929747559751     -0.56903823038556      0.31666151083998
