15

C	0.0	0.0	0.0
C	-0.576713	-0.370452	-1.385372
Cl	1.751147	0.0	0.0
H	-1.271635	-1.194277	-1.239574
H	-0.366254	0.977469	0.282949
N	-0.437398	-0.939914	1.087184
O	-0.527171	-0.44619	2.20523
O	-0.570868	-2.124042	0.8117
N	0.487105	-0.928092	-2.303323
O	0.848105	-2.079847	-2.067728
O	0.911463	-0.23727	-3.228226
N	-1.153515	0.82934	-1.931383
H	-1.454814	0.639931	-2.881437
H	-1.99174	0.844108	-1.310318
F	-2.568027	0.0	0.0
