12

C	0.0	0.0	0.0
C	-0.347026	0.143021	-1.481552
Br	1.946417	0.0	0.0
H	-1.429322	0.056051	-1.535708
H	0.176803	-0.626093	-2.047659
H	-0.003186	1.126432	-1.810332
C	-0.495433	1.078507	0.841991
N	-0.59449	2.043858	1.508113
N	-0.425995	-1.340085	0.564413
O	-0.543455	-1.413883	1.778654
O	-0.497593	-2.270638	-0.225613
F	-2.374334	0.0	0.0
