12

C	0.0	0.0	0.0
C	-0.359706	0.107236	-1.479766
Br	1.946028	0.0	0.0
H	-1.446567	0.051064	-1.507743
H	0.014008	1.065491	-1.84762
H	0.128528	-0.701281	-2.023526
C	-0.485107	1.10239	0.816621
N	-0.604332	2.087565	1.44936
N	-0.42941	-1.323011	0.604238
O	-0.547974	-1.35822	1.820481
O	-0.501509	-2.277339	-0.15654
F	-2.3965	0.0	0.0
