12

C	0.0	0.0	0.0
C	-0.361033	0.073268	-1.480611
Br	1.94614	0.0	0.0
H	0.01364	1.021943	-1.871986
H	0.124427	-0.748343	-2.006407
H	-1.448436	0.017963	-1.507632
C	-0.484554	1.121318	0.792204
N	-0.605242	2.120277	1.402432
N	-0.427684	-1.309041	0.634686
O	-0.498637	-2.279859	-0.104741
O	-0.546113	-1.316966	1.851183
F	-2.399065	0.0	0.0
