16

C	-0.421182	-0.034393	-1.448006
C	0.0	0.0	0.0
F	0.132912	0.977099	-2.16933
H	1.095877	0.0	0.0
H	-0.19206	-0.997606	-1.903363
N	-1.924641	0.137918	-1.55893
O	-2.36522	1.252315	-1.840496
O	-2.611727	-0.847722	-1.284245
N	-0.383946	-1.252027	0.641134
H	-1.264624	-1.163463	1.137582
H	0.351	-1.488381	1.298844
C	-0.46921	1.264656	0.702694
H	0.034979	1.329066	1.67021
H	-0.200945	2.152262	0.124747
H	-1.554472	1.273417	0.867778
H	2.848968	0.0	0.0
