16

C	-0.517897	-0.037992	-1.425532
C	0.0	0.0	0.0
F	-0.060722	-1.135897	-2.096802
H	1.095644	0.0	0.0
H	-1.61374	-0.045264	-1.471564
N	-0.126688	1.176239	-2.233373
O	0.849705	1.107057	-2.967611
O	-0.850936	2.162798	-2.073185
N	-0.388252	-1.239662	0.677845
H	0.312716	-1.939371	0.454085
H	-1.292167	-1.579913	0.357769
C	-0.502535	1.208602	0.768687
H	-0.108946	2.141182	0.360714
H	-0.144503	1.101369	1.793788
H	-1.598629	1.269022	0.784345
H	2.897302	0.0	0.0
