16

C	-0.576519	-0.037123	-1.39384
C	0.0	0.0	0.0
F	-0.151021	-1.143692	-2.070958
H	1.100887	0.0	0.0
H	-1.669825	-0.038421	-1.383456
N	-0.192783	1.166913	-2.220711
O	0.72268	1.067775	-3.023279
O	-0.873045	2.174825	-2.017651
N	-0.502214	-1.247826	0.621544
H	0.099574	-1.98961	0.271985
H	-0.272411	-1.178516	1.608699
C	-0.488702	1.192166	0.798599
H	-1.580907	1.20937	0.881776
H	-0.057339	1.126615	1.802117
H	-0.147662	2.131176	0.363997
H	2.937264	0.0	0.0
