16

C	-0.326141	0.02619	-1.480506
C	0.0	0.0	0.0
F	0.059258	1.193712	-2.066214
H	1.096146	0.0	0.0
H	0.129031	-0.815687	-2.006419
N	-1.813479	-0.095558	-1.703748
O	-2.480027	0.928638	-1.82838
O	-2.274338	-1.242339	-1.668904
N	-0.368433	-1.255499	0.64789
H	-1.180876	-1.686276	0.224816
H	0.419999	-1.888361	0.560811
C	-0.561021	1.199743	0.736047
H	-0.117793	1.210733	1.733201
H	-1.650389	1.144907	0.842802
H	-0.303192	2.13202	0.229525
H	2.826873	0.0	0.0
