16

C	-0.502569	0.054439	-1.42084
C	0.0	0.0	0.0
F	-1.797153	0.52768	-1.51849
H	1.093452	0.0	0.0
H	0.138115	0.670345	-2.059819
N	-0.500423	-1.324328	-2.031215
O	0.603141	-1.755883	-2.348932
O	-1.572501	-1.908529	-2.152038
N	-0.426146	-1.228024	0.662209
H	0.36855	-1.573089	1.18813
H	-1.197362	-1.059945	1.296468
C	-0.400962	1.277754	0.728745
H	-0.109125	2.166661	0.16105
H	0.13483	1.30773	1.679059
H	-1.477679	1.324742	0.913575
H	2.862544	0.0	0.0
