12

C	0.0	0.0	0.0
C	-0.561873	-0.232154	-1.382592
Cl	1.770783	0.0	0.0
H	-1.671489	-0.192827	-1.227568
H	-0.360768	-0.793278	0.650646
H	-0.36265	0.955911	0.365347
C	-0.15967	-1.499184	-1.973329
N	0.125669	-2.546257	-2.422343
N	-0.218169	0.896153	-2.311405
O	-0.18359	2.019022	-1.819361
O	-0.056616	0.633744	-3.500594
Cl	-3.348088	0.0	0.0
