12

C	0.0	0.0	0.0
C	-0.450407	0.577994	-1.35239
Cl	1.770886	0.0	0.0
H	0.442589	0.805643	-1.946499
H	-0.37139	-1.012463	0.105976
H	-0.35835	0.612647	0.82009
C	-1.187985	1.834405	-1.2747
N	-1.51683	2.962017	-1.294727
N	-1.142317	-0.428211	-2.247203
O	-0.835335	-1.602419	-2.090615
O	-1.815008	0.027279	-3.159926
Cl	-3.040273	0.0	0.0
