12

C	0.0	0.0	0.0
C	-0.449861	0.426707	-1.405139
Cl	1.770916	0.0	0.0
H	0.446077	0.559129	-2.02486
H	-0.364497	0.690567	0.751431
H	-0.36229	-0.998715	0.211637
C	-1.16768	1.693457	-1.46829
N	-1.514843	2.80954	-1.579571
N	-1.156173	-0.669783	-2.177554
O	-0.856668	-1.820329	-1.890595
O	-1.822949	-0.312778	-3.136879
Cl	-3.042059	0.0	0.0
