12

C	0.0	0.0	0.0
C	-0.563727	-0.214793	-1.385532
Cl	1.77062	0.0	0.0
H	-1.672458	-0.178606	-1.227225
H	-0.360227	0.952705	0.375839
H	-0.360615	-0.799613	0.642583
C	-0.161352	-1.473798	-1.994375
N	0.103698	-2.519349	-2.458775
N	-0.219659	0.929201	-2.295845
O	-0.00066	0.680061	-3.479064
O	-0.241992	2.048672	-1.793533
Cl	-3.361872	0.0	0.0
