12

C	0.0	0.0	0.0
C	-0.562564	-0.068193	-1.40039
Cl	1.770526	0.0	0.0
H	-1.672245	-0.052382	-1.244417
H	-0.359358	-0.86522	0.552749
H	-0.361253	0.906731	0.475609
C	-0.148822	-1.251725	-2.137373
N	0.191934	-2.244906	-2.663231
N	-0.228476	1.165573	-2.190558
O	-0.088604	1.046072	-3.405053
O	-0.182803	2.221144	-1.568101
Cl	-3.363613	0.0	0.0
