12

C	0.0	0.0	0.0
C	-0.448825	0.277584	-1.443271
Cl	1.770502	0.0	0.0
H	0.447144	0.35496	-2.073094
H	-0.362676	0.769171	0.672856
H	-0.362357	-0.970337	0.316857
C	-1.170553	1.529358	-1.637638
N	-1.509613	2.626654	-1.883636
N	-1.152453	-0.892505	-2.101534
O	-1.806274	-0.636121	-3.101909
O	-0.867851	-2.008445	-1.689934
Cl	-3.03725	0.0	0.0
