14

C	-0.493197	-0.039641	-1.469594
C	0.0	0.0	0.0
Br	0.09492	1.564193	-2.42936
H	1.094505	0.0	0.0
C	0.038779	-1.218616	-2.151324
N	0.426498	-2.183023	-2.69949
C	-1.956697	-0.082455	-1.504789
N	-3.131911	-0.118542	-1.489854
N	-0.442018	-1.226548	0.637021
H	-1.262453	-1.092695	1.212874
H	0.317204	-1.602106	1.192098
C	-0.496623	1.210913	0.660234
N	-0.925011	2.127587	1.259093
Cl	3.194649	0.0	0.0
