14

C	-0.501201	-0.029252	-1.473477
C	0.0	0.0	0.0
Br	0.337712	-1.523877	-2.411517
H	1.094343	0.0	0.0
C	-1.950225	-0.241803	-1.493503
N	-3.113448	-0.41287	-1.471955
C	-0.176939	1.203847	-2.190365
N	0.058838	2.187772	-2.790502
N	-0.436125	-1.202649	0.681002
H	0.327638	-1.546209	1.247895
H	-1.251333	-1.045099	1.257928
C	-0.494793	1.231826	0.626471
N	-0.922426	2.177239	1.179981
Cl	3.200087	0.0	0.0
