14

C	-0.448502	-0.072509	-1.474984
C	0.0	0.0	0.0
Br	-2.432904	-0.145905	-1.569579
H	1.096705	0.0	0.0
C	-0.035498	1.102174	-2.239301
N	0.273456	2.042577	-2.873715
C	0.042669	-1.299857	-2.095758
N	0.420374	-2.293972	-2.59589
N	-0.414851	-1.201011	0.694312
H	0.34557	-1.506479	1.288247
H	-1.249706	-1.058619	1.245832
C	-0.479074	1.24518	0.605129
N	-0.875106	2.209849	1.148313
Cl	3.168387	0.0	0.0
