14

C	-0.447701	0.002913	-1.476121
C	0.0	0.0	0.0
Br	-2.430993	-0.063249	-1.575556
H	1.098667	0.0	0.0
C	-0.03142	1.214132	-2.17977
N	0.284462	2.186108	-2.760951
C	0.043785	-1.190736	-2.160182
N	0.397819	-2.14749	-2.743699
N	-0.41329	-1.236344	0.630375
H	0.34182	-1.563516	1.220283
H	-1.25512	-1.125181	1.17899
C	-0.478776	1.212513	0.668283
N	-0.862769	2.156205	1.255042
Cl	3.167282	0.0	0.0
