14

C	-0.500114	0.028243	-1.473066
C	0.0	0.0	0.0
Br	0.33164	-1.435142	-2.46616
H	1.096757	0.0	0.0
C	-1.950417	-0.175365	-1.504132
N	-3.117934	-0.315503	-1.496346
C	-0.168439	1.285717	-2.142503
N	0.075492	2.292167	-2.699026
N	-0.438656	-1.227289	0.633931
H	-1.246999	-1.087255	1.224172
H	0.326708	-1.599199	1.181405
C	-0.49422	1.206579	0.672864
N	-0.933431	2.130062	1.253683
Cl	3.201292	0.0	0.0
