14

C	-0.419878	-0.012049	-1.508958
C	0.0	0.0	0.0
Br	0.264613	1.568384	-2.43546
H	1.095673	0.0	0.0
C	0.110178	-1.211552	-2.157334
N	0.502617	-2.186543	-2.684931
C	-1.878919	-0.017924	-1.627684
N	-3.054153	-0.044491	-1.658396
N	-0.425727	-1.178138	0.712556
H	-1.376564	-1.459936	0.513638
H	0.226722	-1.933271	0.551627
C	-0.538405	1.208567	0.626645
N	-1.001322	2.159915	1.137394
Cl	3.197873	0.0	0.0
