17

C	-0.241555	-0.010154	-1.487173
C	-0.042067	-0.096241	0.025337
Cl	-0.017165	-1.726953	-2.175299
H	1.01776	-0.36431	0.130446
N	-1.691314	0.294809	-1.89598
O	-1.862289	0.619311	-3.064979
O	-2.567401	0.205306	-1.042291
N	0.563097	0.958774	-2.041976
H	1.516401	0.95481	-1.642525
H	0.550862	0.953013	-3.051792
C	-0.841316	-1.145491	0.656491
N	-1.429349	-1.965978	1.256489
C	-0.23511	1.250887	0.729604
H	0.485073	1.962419	0.331571
H	-0.031568	1.12189	1.794552
H	-1.253076	1.621744	0.605939
Cl	3.237832	0.821694	-0.395726
