17

C	-0.630518	-0.009739	-1.478934
C	0.049836	-0.073086	-0.095511
Cl	0.081575	1.311701	-2.416274
H	1.13603	-0.119608	-0.204086
N	-0.278485	-1.329923	-2.191082
O	0.886501	-1.488937	-2.523602
O	-1.184936	-2.151115	-2.298897
N	-2.052841	0.117647	-1.519379
H	-2.479687	-0.656435	-1.023336
H	-2.313889	0.993115	-1.084583
C	-0.435839	-1.279026	0.575848
N	-0.893454	-2.221446	1.108955
C	-0.251823	1.153015	0.766525
H	0.320042	1.060772	1.687984
H	-1.319073	1.239437	0.99295
H	0.115716	2.047738	0.267194
Cl	3.056725	0.916959	0.79286
