12
Coordinates from ORCA-job run
  C   1.01688529684049     -0.50639120924280      0.08863841475595
  C   -0.47372443126554     -0.38568432440146     -0.28495396103975
  Br  1.32385894799435     -2.02758545921013      1.26217764931997
  H   -0.77760871958457     -1.34081664967942     -0.72475322815631
  H   1.57346610114833     -0.69030422186720     -0.83132690279872
  C   1.49232330821997      0.72288816228099      0.70695202808044
  N   1.85327855025523      1.72503571999050      1.20247405286105
  N   -0.59652817111561      0.68418179723238     -1.26285284130982
  H   -0.98959792201741      1.52564996298345     -0.86465374963727
  H   -1.15675108405201      0.39745127840694     -2.05273520154322
  C   -1.29274889568754     -0.16920239501008      0.91738153614234
  N   -1.97285298073570      0.06577733851682      1.84565220332534
