12
Coordinates from ORCA-job run
  C   0.84012266427245     -0.46263029572207      0.52170161609507
  C   -0.45088143817604     -0.22313364970062     -0.29199260385059
  Br  0.69116759270806      0.18401191348874      2.34431772600278
  H   -0.28303393664932     -0.72899877919914     -1.25812264762511
  H   1.03841141414261     -1.53498189180298      0.58829545807757
  C   1.94831112553590      0.19904087184436     -0.15510845809402
  N   2.79933072868801      0.74118601131933     -0.75707009785747
  N   -0.72094394269123      1.19792823341653     -0.40656610531816
  H   -0.10879300624498      1.61337864840393     -1.09889430195433
  H   -1.67967562991950      1.36251475764575     -0.68408449619901
  C   -1.57661092114731     -0.90335738492438      0.35519823513403
  N   -2.49740465051864     -1.44495843476947      0.84132567558923
