12
Coordinates from ORCA-job run
  C   0.92028073118050     -0.25730978037211      0.52630038909113
  C   -0.46988462370426     -0.31022177238762     -0.14479636755962
  Br  0.95255008869197      0.93443117681995      2.05650637245460
  H   -0.39116506052730     -1.09565209869173     -0.91575403319081
  H   1.18603185277751     -1.24898015234305      0.89998116104633
  C   1.90057077276826      0.17249543745633     -0.46281167879006
  N   2.63979361339761      0.51041152596164     -1.31131611474452
  N   -0.83063506799791      0.99570841107799     -0.66501236562621
  H   -1.82288396426358      1.04697430726690     -0.85513135106297
  H   -0.32825795608722      1.17725716835435     -1.52605446286346
  C   -1.46972487689566     -0.76608580639178      0.82548307105171
  N   -2.28567550933991     -1.15802841675085      1.57260538019390
