12
Coordinates from ORCA-job run
  C   0.97226033212301     -0.59085136701934      0.04734701544212
  C   -0.52398475395153     -0.39010003165087     -0.24589296058791
  Br  1.24754043526998     -2.02670455053058      1.32777079437072
  H   -0.90553702543079     -1.34495494232418     -0.61942886605968
  H   1.45237373713923     -0.89180250095090     -0.88493975551740
  C   1.57153673960102      0.64567432134205      0.52945379939449
  N   2.01377872513907      1.67269080734860      0.89059741158059
  N   -0.63525054180353      0.59821000094119     -1.30524338410957
  H   -1.55988251770607      0.56906551928829     -1.71732004890926
  H   -0.48690962125277      1.53163047247152     -0.93716710527162
  C   -1.26195629437609     -0.05196063036682      0.98667805869845
  N   -1.88296921475152      0.28010290145105      1.92714504096906
