17

C	0.0	0.0	0.0
C	-0.456213	0.049818	-1.451839
F	1.413901	0.0	0.0
H	-0.073493	-0.846517	-1.954229
H	-1.552672	-5.9e-05	-1.430337
C	-0.473019	1.200534	0.787217
H	-1.571161	1.193209	0.759551
H	-0.086275	2.128365	0.357155
H	-0.124661	1.131794	1.822354
C	-0.478082	-1.282398	0.640885
H	-1.57623	-1.258727	0.636807
H	-0.108734	-1.355738	1.66855
H	-0.116929	-2.147906	0.075984
N	-0.022017	1.223728	-2.21497
H	0.937959	1.427889	-1.955336
H	-0.584211	2.018179	-1.930873
H	-3.433935	0.0	0.0
