11

C	-0.549628	-0.01509	-1.428603
C	0.0	0.0	0.0
Cl	-0.044614	-1.512482	-2.261267
H	1.092767	0.0	0.0
H	-1.642193	-0.032027	-1.41291
H	-0.326831	-0.914748	0.502651
C	-0.141701	1.15204	-2.209687
N	0.103061	2.10516	-2.851548
C	-0.529342	1.152703	0.720196
N	-0.990014	2.079553	1.274619
Br	3.462156	0.0	0.0
