11

C	-0.551368	-0.013852	-1.427702
C	0.0	0.0	0.0
Cl	-0.04042	-1.508868	-2.260802
H	1.092729	0.0	0.0
H	-1.643874	-0.034874	-1.411473
H	-0.326024	-0.915208	0.502335
C	-0.148077	1.15554	-2.207589
N	0.093808	2.110065	-2.848272
C	-0.53007	1.151812	0.720876
N	-0.99303	2.077867	1.274689
Br	3.462737	0.0	0.0
