11

C	-0.454641	-0.02204	-1.461929
C	0.0	0.0	0.0
Cl	0.03638	1.497299	-2.263042
H	1.0928	0.0	0.0
H	0.063708	-0.829974	-1.982079
H	-0.359183	0.907074	0.491861
C	-1.899313	-0.191433	-1.613646
N	-3.060412	-0.328916	-1.728853
C	-0.496877	-1.177272	0.702998
N	-0.897248	-2.134784	1.251954
Br	3.45214	0.0	0.0
