11

C	-0.552952	-0.019704	-1.426926
C	0.0	0.0	0.0
Cl	0.083268	-1.407462	-2.350316
H	1.092745	0.0	0.0
H	-1.639577	-0.1415	-1.412612
H	-0.32034	0.929974	0.482367
C	-0.255512	1.227339	-2.128456
N	-0.02466	2.235185	-2.684738
C	-0.534227	-1.123773	0.760562
N	-1.016855	-2.00986	1.360118
Br	3.455821	0.0	0.0
