11

C	-0.55137	-0.02357	-1.42796
C	0.0	0.0	0.0
Cl	0.0911	-1.405962	-2.353217
H	1.092745	0.0	0.0
H	-1.637812	-0.150393	-1.412789
H	-0.318397	0.931258	0.481257
C	-0.258845	1.226851	-2.127476
N	-0.027701	2.236867	-2.677713
C	-0.529306	-1.123457	0.763936
N	-0.993546	-2.015211	1.37099
Br	3.457845	0.0	0.0
