10
Coordinates from ORCA-job run
  C   0.81854429764381     -0.63638199786273      0.13977693196048
  C   -0.30203012352178      0.09856453608480      0.00304331263757
  H   0.73857856516858     -1.64519119671379      0.53406725997252
  C   2.09587053975500     -0.12559501610598     -0.21809053961101
  N   3.16288373062680      0.28013031360940     -0.50795319063699
  C   -0.36105447959198      1.42934035749553     -0.49585383412064
  N   -0.36940259327559      2.53083134131288     -0.91177626978292
  N   -1.60665011404493     -0.50213572763083      0.39296509156042
  O   -2.59492198426527      0.19492341799890      0.19028909442810
  O   -1.58181783849465     -1.62548602818818      0.87453214359247
