10
Coordinates from ORCA-job run
  C   0.82555611503098     -0.63278343369627      0.11329608813290
  C   -0.30381543416880      0.09262222585045     -0.00003033889287
  H   0.75066482154028     -1.67682441014675      0.40287469747655
  C   2.10559539348617     -0.06618715630420     -0.13354033928475
  N   3.17390372383796      0.38713060762011     -0.33490140452988
  C   -0.36978825675578      1.46511494143833     -0.36773391855971
  N   -0.38438598642851      2.60209464329175     -0.67339098296894
  N   -1.61076909167695     -0.56689498638677      0.26765868951017
  O   -1.58286523230775     -1.73592513176051      0.62423552057843
  O   -2.60409605255760      0.13265270009384      0.10053198853811
