10
Coordinates from ORCA-job run
  C   1.02213505498085      0.03668837754063     -0.33722465343913
  C   -0.28123199317770      0.33680571754127     -0.15851134722508
  H   1.59734229531395      0.70128495331601     -0.97760046515233
  C   1.72636706640360     -1.06188787542415      0.22989681927063
  N   2.41902235243106     -1.92309795166788      0.63581997656088
  C   -0.88309392426800      1.47241367843001     -0.77602942003362
  N   -1.33550216067299      2.41912749055319     -1.30908754449285
  N   -1.19503625114236     -0.46784258127638      0.69049370026171
  O   -2.33079202922560     -0.02147577011061      0.81747557120540
  O   -0.74121041064282     -1.49001603890208      1.18476736304438
