10
Coordinates from ORCA-job run
  C   0.80861103131467     -0.65535469822268      0.10521237536273
  C   -0.30080876086490      0.10155801518124      0.00263226965635
  H   0.70682046319654     -1.69585259376290      0.39968838544876
  C   2.10165867003286     -0.12650440946896     -0.15676184221312
  N   3.18089318813621      0.29526451310981     -0.36816630592757
  C   -0.33340920469442      1.47424632117157     -0.36882761656354
  N   -0.32061112265935      2.61072961379504     -0.67670523300422
  N   -1.62275271275914     -0.52074611459518      0.28689658271861
  O   -2.59859607345858      0.20236722122513      0.11756310397896
  O   -1.62280547824388     -1.68570786843307      0.65746828054304
