10
Coordinates from ORCA-job run
  C   1.05492836844183      0.23630479098382     -0.10845447699778
  C   -0.28894577986454      0.33467723655321     -0.16895370564852
  H   1.63806444408107      1.02663730283341     -0.57448246014766
  C   1.77998106584666     -0.82835075371740      0.49580435210627
  N   2.47095961946644     -1.66622373212771      0.95071601289264
  C   -0.95047734626220      1.41732768681814     -0.81683199931521
  N   -1.46508586411717      2.33412282540810     -1.34585508138978
  N   -1.19065980357398     -0.69886795339230      0.39253675913310
  O   -2.28312604023925     -0.79809304068008     -0.15640420773092
  O   -0.76563866377885     -1.35753436267917      1.33192480709786
