10
Coordinates from ORCA-job run
  C   0.82870185433784     -0.63469701445497     -0.06460665268716
  C   -0.30421239277426      0.08797654404241      0.02979051332553
  H   0.76468441888404     -1.71799788595823     -0.01845345728521
  C   2.09894124272267     -0.01683273772193     -0.22384101366149
  N   3.16037900090878      0.47645291487193     -0.35585428038178
  C   -0.38388916205438      1.50740488846685     -0.01468500408500
  N   -0.41010700922497      2.68385947967022     -0.05511699368893
  N   -1.59957123560501     -0.62598182736039      0.19423644792609
  O   -2.59394049711255      0.08712896761078      0.27457714972643
  O   -1.56198622008216     -1.84731332916667      0.23495329081152
