10
Coordinates from ORCA-job run
  C   0.82279764227152     -0.64507812696376     -0.01774680715085
  C   -0.30425807163038      0.09242178639662      0.00697392728072
  H   0.74148606115207     -1.72743506812413      0.02223471268476
  C   2.10850919898887     -0.04432125481501     -0.09702995696558
  N   3.18355470496450      0.43289881008283     -0.16053344653775
  C   -0.36313769667006      1.51285391097940     -0.04072753721550
  N   -0.37240156823188      2.68922654677399     -0.08855013985194
  N   -1.61618069289099     -0.60459850248470      0.10060884793425
  O   -1.60016037094648     -1.82705649779017      0.08759591910382
  O   -2.60020920700718      0.12208839594492      0.18517448071808
