10
Coordinates from ORCA-job run
  C   0.82301303096085     -0.64515277361727     -0.02039935785399
  C   -0.30419669321564      0.09186258365335      0.00567573892171
  H   0.74173883548788     -1.72737140801822      0.01886703955561
  C   2.10829436816449     -0.04346291151686     -0.09636468585208
  N   3.18239425090044      0.43604828158318     -0.15799671580067
  C   -0.36398214105423      1.51237285211996     -0.03887509743017
  N   -0.37302625129706      2.68907194122124     -0.08161487458937
  N   -1.61600862271837     -0.60582083664543      0.09891348204706
  O   -1.59968332442002     -1.82811120763986      0.08041184137296
  O   -2.59954345280836      0.12056347885990      0.19038262962892
