10
Coordinates from ORCA-job run
  C   0.86343718587768     -0.44484740563755      0.38801790904193
  C   -0.30934412311653      0.06102411754133     -0.04005361576546
  H   0.85299852466569     -1.21742375853104      1.15140506639726
  C   2.10717926835412      0.00936722708143     -0.12885043863753
  N   3.14849295265529      0.37100603769201     -0.54402591345770
  C   -0.46059231046441      1.07432052415218     -1.02676366655906
  N   -0.54635029353359      1.91563936008980     -1.84605252338569
  N   -1.57361762169966     -0.46421223341920      0.54364690868984
  O   -1.47407410415937     -1.31354566199085      1.41724627017641
  O   -2.60812947857920      0.00967179302191      0.08643000350000
