10
Coordinates from ORCA-job run
  C   1.04529686152421      0.20030171154785     -0.21967579590663
  C   -0.29677498845879      0.32601879172897     -0.17221955606922
  H   1.59816771032819      0.93221855526543     -0.80321300989861
  C   1.80275877198076     -0.82491055110297      0.41232620092421
  N   2.51648233135915     -1.63807890072361      0.87680074019434
  C   -0.99479238424158      1.36381444568998     -0.85436255697584
  N   -1.53970399811308      2.24262161357434     -1.41653375748952
  N   -1.16257169833831     -0.63232390368973      0.55484063435917
  O   -0.66809002481102     -1.21503551519127      1.51029401441354
  O   -2.29977258122954     -0.75462624709897      0.11174308644858
