10
Coordinates from ORCA-job run
  C   0.84845150714549     -0.56102611333821      0.24309331751653
  C   -0.30698011801013      0.07055016728951     -0.04077540490042
  H   0.80984530474717     -1.58128075119705      0.61366235783760
  C   2.10963071160787      0.07188511037242      0.07276730887314
  N   3.16585022552565      0.57650433940413     -0.05899811518745
  C   -0.42328225016444      1.40029277026793     -0.53201164408894
  N   -0.48277246872958      2.50434103456909     -0.93667317144004
  N   -1.59053750229213     -0.65518144398472      0.16444161862446
  O   -1.52219541367313     -1.79986781612193      0.58826641215283
  O   -2.60700999615675     -0.02821729726117     -0.11377267938772
