10
Coordinates from ORCA-job run
  C   1.05927452382198      0.24118277809400      0.02925700115361
  C   -0.27420481128422      0.36216232286308     -0.13315128993214
  H   1.67819436765735      1.09364700009529     -0.23901408089138
  C   1.73256231555300     -0.91985501378887      0.50201784939799
  N   2.38405147638760     -1.83140410248005      0.86426355892725
  C   -0.88063283875073      1.54583022306778     -0.64345529401148
  N   -1.35116721525147      2.54410072689371     -1.05234075074330
  N   -1.21699636653334     -0.74303150858351      0.15942631973817
  O   -0.87711681368781     -1.55390136565141      1.01041270270154
  O   -2.25296463791235     -0.73873106051003     -0.49741601634026
