10
Coordinates from ORCA-job run
  C   1.02258010390461      0.23880700874892      0.26975354611785
  C   -0.29126250105574      0.37496416693953     -0.00363819679781
  H   1.59140566301427      1.14277880819976      0.47451733350792
  C   1.74065089577851     -0.98931894666947      0.28721078922370
  N   2.43169680016351     -1.94275008165197      0.30014970429401
  C   -0.94055587798781      1.64231547171130     -0.03371339539063
  N   -1.44365685664384      2.70606284547079     -0.02056968187365
  N   -1.15871656126995     -0.77944712979218     -0.33604970496745
  O   -2.11374215891747     -0.52713380103136     -1.06319993895625
  O   -0.84039950698611     -1.86627834192531      0.12753954484231
