10
Coordinates from ORCA-job run
  C   1.00661599165231      0.01025456062968     -0.38589748823808
  C   -0.28515221850535      0.33085514746865     -0.16331583147650
  H   1.55909807458092      0.64039383612223     -1.07882820217698
  C   1.72577390007074     -1.06815911438676      0.20078882523938
  N   2.42811187450276     -1.91631406965620      0.61754118415872
  C   -0.90526826278421      1.44493308130680     -0.80156568221444
  N   -1.37633843867189      2.37058412810439     -1.35502325848200
  N   -1.16525496138459     -0.42471487321483      0.76249567107282
  O   -0.71351152518229     -1.45281952966928      1.24658452952569
  O   -2.27307443427841      0.06498683329534      0.95822025259139
