10
Coordinates from ORCA-job run
  C   0.85557515004168     -0.50932584459023      0.32112200170746
  C   -0.30843101677055      0.06103267156539     -0.04564074312479
  H   0.83031239970394     -1.45222019120248      0.85952230540632
  C   2.10904883600254      0.09033374385288      0.02172973693357
  N   3.15741576213526      0.57142833360229     -0.21677890816127
  C   -0.43989418862755      1.28857623476010     -0.75211269036059
  N   -0.50930304287569      2.30779344535073     -1.33757496049490
  N   -1.58401068409078     -0.62296502482483      0.30112185612400
  O   -1.50221914951747     -1.68123919121038      0.90775073423532
  O   -2.60849406600138     -0.05341417730347     -0.05913933226513
