10
Coordinates from ORCA-job run
  C   0.84182783260700     -0.60585965500512      0.13283278443072
  C   -0.30698870777653      0.08325208704707     -0.00921595370300
  H   0.79180463023134     -1.64958130898005      0.42956301417057
  C   2.10914065617754     -0.00261941222798     -0.09097478486669
  N   3.16800101578972      0.48185740626982     -0.26844068525592
  C   -0.40892456975765      1.45030696343797     -0.38893762274317
  N   -0.44875206791640      2.58330395594415     -0.70617757336242
  N   -1.59745215779040     -0.61518674186531      0.23987042015501
  O   -1.54086081287766     -1.78833295796623      0.57759424056669
  O   -2.60779581868696      0.06185966334567      0.08288616060822
