10
Coordinates from ORCA-job run
  C   1.06201588607173      0.22449702856016     -0.04667686466674
  C   -0.27743981391318      0.36265459520502     -0.12490367956543
  H   1.67345379541138      1.06020911333232     -0.37772181535826
  C   1.74867260005230     -0.93389138770673      0.41271426509225
  N   2.41011324590995     -1.84532594692516      0.75656987225589
  C   -0.89908111580293      1.54349737293261     -0.62346397855622
  N   -1.38083155839690      2.53952853164785     -1.02476724145286
  N   -1.21469084891677     -0.72006696999786      0.25684056020503
  O   -0.82992023354879     -1.51730854336168      1.10149492696704
  O   -2.29229195686680     -0.71379379368652     -0.32908604492069
