10
Coordinates from ORCA-job run
  C   0.82545934631617     -0.63703580704398     -0.08526290924195
  C   -0.30252790814396      0.08897982321645      0.03846079009936
  H   0.76140220487781     -1.71944572875604     -0.02289012929559
  C   2.09049796277409     -0.02358433908646     -0.29441388756942
  N   3.14778270107152      0.46567652269678     -0.46815414201435
  C   -0.38194849460310      1.50791352476477     -0.02057477862591
  N   -0.40850625534806      2.68379984742203     -0.07505362252978
  N   -1.59280193785937     -0.62049425133334      0.25594751184767
  O   -2.58276498079253      0.09543704772060      0.36127198261155
  O   -1.55559263829258     -1.84124663960080      0.31066918471842
