10
Coordinates from ORCA-job run
  C   1.01693225389880     -0.03147877560198     -0.35558637519854
  C   -0.26864026987258      0.33771758833914     -0.17679836874836
  H   1.60819830182027      0.56204236318389     -1.04891901048501
  C   1.68335534871350     -1.11847937076371      0.27593936049676
  N   2.34510867635203     -1.97895725840987      0.73197625721348
  C   -0.83295828814655      1.45473071349617     -0.86014084106333
  N   -1.25501187249834      2.38166729953508     -1.44995508078497
  N   -1.20034289821584     -0.36771150788607      0.73839606370016
  O   -0.78536296023437     -1.37938454460953      1.28566422467287
  O   -2.31027829181692      0.14085349271688      0.85942377019695
