10
Coordinates from ORCA-job run
  C   1.01873307925208      0.01431799789520     -0.35159706500405
  C   -0.27778958524583      0.33711262694488     -0.16223117551977
  H   1.59107063872405      0.64838542666738     -1.02486400607941
  C   1.71798714768539     -1.07444384359633      0.23989801178590
  N   2.40534697120914     -1.93316678438715      0.65966903773943
  C   -0.87729175181283      1.45637872103880     -0.81061310096995
  N   -1.32813018567122      2.39094038413600     -1.36605797919278
  N   -1.18923753314438     -0.43027246592617      0.72334394441267
  O   -2.33873282646357     -0.00755524372962      0.79507750928458
  O   -0.72095595453284     -1.40369681904301      1.29637482354339
