10
Coordinates from ORCA-job run
  C   1.05588186702693      0.24136691074889      0.08763694031724
  C   -0.28071436068604      0.38023301685014     -0.02896883700436
  H   1.64735203412124      1.14651979401611      0.19993131674805
  C   1.76101313083732     -0.99432731782724      0.09887037412790
  N   2.43508601777767     -1.95904082164045      0.13714784652580
  C   -0.92534362528707      1.65040078649904     -0.00065775614069
  N   -1.42565315152168      2.71564534626047      0.01041841921267
  N   -1.19598627854972     -0.77950737403465     -0.14551946686117
  O   -2.32960909134574     -0.60083920379029      0.28752749170502
  O   -0.74102654237292     -1.79945113708203     -0.64538632863045
