10
Coordinates from ORCA-job run
  C   0.82232105603178     -0.64102552952146     -0.08549331569078
  C   -0.30286623583607      0.09030190145303      0.03226207222607
  H   0.74661563005709     -1.72438127512965     -0.07189501352916
  C   2.09886550247400     -0.03200565803107     -0.22617730851959
  N   3.16540708416374      0.45382531839992     -0.34386106644916
  C   -0.36803276553907      1.51121311519098      0.03191701786339
  N   -0.38265008708667      2.68855460361583      0.02722680757770
  N   -1.60561645980323     -0.61498323554483      0.17668734553210
  O   -2.59253277625397      0.10576384535729      0.27814869529089
  O   -1.58051094820759     -1.83726308579005      0.18218476569854
