10
Coordinates from ORCA-job run
  C   0.82456013634218     -0.64003252796358      0.06455804653220
  C   -0.30288682288251      0.09504323420957      0.01060079158194
  H   0.75371567301113     -1.68818163554098      0.34011490578041
  C   2.09810497665704     -0.08033817685996     -0.22678479563052
  N   3.16317726966935      0.36336520755132     -0.46396776701327
  C   -0.37542987864472      1.47372951077443     -0.33122212529657
  N   -0.39741139601338      2.61591457482267     -0.61646565030549
  N   -1.60174596922528     -0.55879327106959      0.33099428251152
  O   -1.57002741709229     -1.74216811582024      0.63622652763470
  O   -2.59205657182152      0.16046119989638      0.25594578420509
