10
Coordinates from ORCA-job run
  C   1.04504699075694      0.09049814295373     -0.28253464745751
  C   -0.28622352281092      0.30029147523739     -0.22805523530395
  H   1.61348980179113      0.65586269797835     -1.01672373736165
  C   1.77184590563294     -0.82682675572068      0.52656593521529
  N   2.46086983313743     -1.56622670658591      1.13069324788267
  C   -0.95461640437459      1.21588500227419     -1.09083476213981
  N   -1.47311765566071      1.99229264525391     -1.80745313290169
  N   -1.17278211808694     -0.43820408883742      0.70226210302046
  O   -2.33117210557936     -0.57932868076772      0.32435039101168
  O   -0.67334072480592     -0.84424373178584      1.74272983803451
