10
Coordinates from ORCA-job run
  C   1.05102498878414      0.19936606601183      0.18761123330376
  C   -0.27636288089545      0.38241198164300      0.03331627675437
  H   1.64283767699950      1.05561806755996      0.50144123991259
  C   1.74569591564349     -1.02691985714762     -0.00707330169962
  N   2.41037845913868     -1.99114221237343     -0.12940490831964
  C   -0.90987096489161      1.63612471757591      0.27101946408510
  N   -1.39804648697226      2.69009611198828      0.46063632983418
  N   -1.19431882143887     -0.71575662019463     -0.35142355441841
  O   -0.72217305767438     -1.62826167808568     -1.01574672799592
  O   -2.34816482869325     -0.60153657697763      0.04862394854358
