10
Coordinates from ORCA-job run
  C   0.98216972639325     -0.01541754701213     -0.44215543697143
  C   -0.29132552113771      0.32827015345777     -0.15744948676627
  H   1.49699272706636      0.57944097799157     -1.19293101890578
  C   1.72540013985912     -1.07823503809794      0.14297237187536
  N   2.44227995449256     -1.91799646425490      0.55189412277133
  C   -0.93767042673840      1.42119797108711     -0.80625480861973
  N   -1.42644350425983      2.33138917853951     -1.36969775754544
  N   -1.12340270790212     -0.38085712710629      0.84642636903687
  O   -0.63041204171924     -1.36045040536218      1.38722650798111
  O   -2.23858834605398      0.09265830075749      1.03996913714398
