10
Coordinates from ORCA-job run
  C   1.07069731966790      0.11524082663177      0.01685770487735
  C   -0.24968807404192      0.39347563778086      0.01245139693237
  H   1.75235986613483      0.96145312800796      0.05985086506943
  C   1.66726068354469     -1.17567847570070     -0.02871111206362
  N   2.28122734053181     -2.17974767077685     -0.06296236725220
  C   -0.73621531151674      1.73284270895897      0.06195387514541
  N   -1.08951852885082      2.85454856613671      0.10525349245514
  N   -1.30396768488064     -0.65016524389088     -0.04176488671103
  O   -0.93377134006165     -1.81411918441509     -0.09900579366701
  O   -2.45938427052746     -0.23785029273277     -0.02292317478584
