10
Coordinates from ORCA-job run
  C   1.04053174462080      0.31055955084476      0.03433347223543
  C   -0.30226905266468      0.35413901516782     -0.08516308717473
  H   1.59108187272015      1.23023886590029     -0.14704874341780
  C   1.80504907735829     -0.84519961741701      0.35701686464188
  N   2.52758850398532     -1.74271584575544      0.59958528637032
  C   -1.00242397967948      1.54284264787146     -0.44050606245957
  N   -1.55127590132525      2.54608695265248     -0.71884918799254
  N   -1.15868292418313     -0.84155871556236      0.09608649924827
  O   -2.21174709449842     -0.83459891918244     -0.53287981147557
  O   -0.73885224633360     -1.71979393451956      0.83742477002432
