10
Coordinates from ORCA-job run
  C   0.83095741839209     -0.63481546139145     -0.02939561430991
  C   -0.30391319015092      0.08884984968392      0.02574153596655
  H   0.77149337095791     -1.71251982674508      0.09142736820667
  C   2.09731591596676     -0.02484072161364     -0.24062068150198
  N   3.15580431742498      0.46160737744455     -0.41492907217877
  C   -0.39008226163942      1.50180425253995     -0.11331788614680
  N   -0.42213255639499      2.67268705520919     -0.23332441048878
  N   -1.59529504360823     -0.61691474623655      0.24990192392399
  O   -1.55239930671509     -1.83245153178413      0.37309475037819
  O   -2.59174866423312      0.09659375289325      0.29042208615084
