17

C	-0.504121	-0.009643	-1.436093
C	0.0	0.0	0.0
F	-0.083195	1.097421	-2.096107
H	1.101318	0.0	0.0
N	0.040783	-1.211543	-2.217145
O	0.944074	-1.00738	-3.010342
O	-0.484355	-2.291983	-1.961363
C	-1.973505	-0.081438	-1.521946
N	-3.146894	-0.135954	-1.542263
C	-0.479079	-1.174345	0.829218
H	-0.004119	-1.088469	1.810388
H	-0.174564	-2.128508	0.401236
H	-1.56828	-1.175557	0.955028
N	-0.463861	1.281766	0.543582
H	-0.854885	1.135356	1.466412
H	0.360114	1.866911	0.651905
H	2.799216	0.0	0.0
