17

C	-0.457749	0.016434	-1.453018
C	0.0	0.0	0.0
F	0.129797	1.031581	-2.130298
H	1.095626	0.0	0.0
N	-0.055022	-1.279683	-2.166937
O	-0.802573	-2.240434	-1.987378
O	0.977258	-1.264752	-2.817227
C	-1.919405	0.143314	-1.59216
N	-3.085799	0.26012	-1.670997
C	-0.490254	-1.201809	0.784051
H	-1.584942	-1.269771	0.808976
H	-0.092338	-2.137425	0.390002
H	-0.117058	-1.093275	1.806051
N	-0.433677	1.280791	0.550442
H	0.387018	1.738258	0.935756
H	-1.109407	1.145352	1.291601
H	2.786416	0.0	0.0
