17

C	-0.454257	-0.012081	-1.441773
C	0.0	0.0	0.0
F	0.020881	-1.101908	-2.103526
H	1.102174	0.0	0.0
N	-1.984347	-0.130922	-1.490715
O	-2.630346	0.906978	-1.357534
O	-2.447323	-1.266385	-1.556668
C	-0.097009	1.204207	-2.183469
N	0.196464	2.125925	-2.850082
C	-0.457351	-1.237051	0.752355
H	-1.526928	-1.210406	0.995254
H	-0.255705	-2.147213	0.184543
H	0.116801	-1.285606	1.68117
N	-0.375212	1.268241	0.601245
H	0.424469	1.609963	1.124269
H	-1.168789	1.175071	1.220694
H	2.714509	0.0	0.0
