17

C	-0.499855	0.001425	-1.436898
C	0.0	0.0	0.0
F	-0.098525	1.132346	-2.07232
H	1.101343	0.0	0.0
N	0.07175	-1.171906	-2.242187
O	0.935436	-0.925917	-3.064779
O	-0.403975	-2.27273	-1.980863
C	-1.96672	-0.09818	-1.535531
N	-3.137482	-0.182371	-1.583024
C	-0.489464	-1.175368	0.820845
H	-1.579371	-1.169653	0.940549
H	-0.019754	-1.099246	1.80637
H	-0.185607	-2.126953	0.38789
N	-0.494116	1.271098	0.551866
H	-0.699844	1.13524	1.532924
H	0.280371	1.926883	0.505515
H	2.815929	0.0	0.0
