17

C	-0.506903	0.003995	-1.433657
C	0.0	0.0	0.0
F	-0.113924	1.136292	-2.070212
H	1.101302	0.0	0.0
N	0.062852	-1.167141	-2.244555
O	-0.406727	-2.27021	-1.980201
O	0.919181	-0.916847	-3.074677
C	-1.97404	-0.100819	-1.522235
N	-3.145327	-0.182376	-1.562313
C	-0.483856	-1.178377	0.820187
H	-0.18267	-2.12864	0.38265
H	-0.007551	-1.104583	1.80198
H	-1.57256	-1.173578	0.946929
N	-0.489807	1.270396	0.556546
H	-0.723059	1.126281	1.531462
H	0.294662	1.917266	0.534893
H	2.813596	0.0	0.0
