17

C	-0.44493	0.09331	-1.439743
C	0.0	0.0	0.0
F	0.162497	-0.843241	-2.21387
H	1.108088	0.0	0.0
N	-1.961115	-0.199811	-1.560991
O	-2.700653	0.530639	-0.907416
O	-2.310329	-1.153017	-2.246157
C	-0.251025	1.422649	-2.035005
N	-0.11719	2.433251	-2.61837
C	-0.45014	-1.303255	0.637447
H	-1.520473	-1.300554	0.878004
H	-0.236512	-2.156648	-0.009342
H	0.117087	-1.437339	1.562117
N	-0.368023	1.218658	0.700889
H	-1.215987	1.112785	1.238528
H	0.404302	1.463642	1.311627
H	2.736462	0.0	0.0
