17

C	-0.581208	0.141731	-1.384141
C	0.0	0.0	0.0
F	-1.952819	-0.01186	-1.379745
H	1.102617	0.0	0.0
N	-0.315362	1.545305	-1.9231
O	-1.248493	2.334897	-1.918808
O	0.831065	1.75171	-2.294803
C	-0.036963	-0.813455	-2.359691
N	0.317979	-1.622384	-3.134037
C	-0.415223	-1.335645	0.602493
H	0.135208	-1.457449	1.539835
H	-1.491292	-1.382862	0.80325
H	-0.14075	-2.173942	-0.045849
N	-0.380437	1.166306	0.782285
H	-1.163856	0.973485	1.3942
H	0.427657	1.421565	1.342348
H	2.751282	0.0	0.0
