14

C	-0.49212	0.021447	-1.441911
C	0.0	0.0	0.0
F	-0.111171	-1.144173	-2.088324
H	1.09576	0.0	0.0
H	-1.58881	0.055826	-1.4837
C	0.015287	1.173276	-2.210901
N	0.322967	2.094102	-2.870187
C	-0.440958	-1.276471	0.712034
H	0.024106	-2.128999	0.216188
H	-1.52895	-1.405494	0.721235
H	-0.076313	-1.252235	1.740887
C	-0.502291	1.186423	0.671008
N	-0.920318	2.141522	1.21628
H	2.706032	0.0	0.0
