14

C	-0.356304	-0.03741	-1.475234
C	0.0	0.0	0.0
F	-0.143599	1.19463	-2.068913
H	1.095878	0.0	0.0
H	0.318036	-0.757061	-1.955736
C	-1.758016	-0.423856	-1.731351
N	-2.869369	-0.751697	-1.924851
C	-0.391288	-1.29801	0.704326
H	0.101508	-2.135219	0.200136
H	-0.009149	-1.271135	1.72654
H	-1.471045	-1.470018	0.72708
C	-0.562596	1.166869	0.650059
N	-1.028676	2.098047	1.197412
H	2.677087	0.0	0.0
