14

C	-0.372315	-0.01912	-1.471145
C	0.0	0.0	0.0
F	-0.124773	1.207421	-2.061885
H	1.095885	0.0	0.0
H	0.268421	-0.760604	-1.963875
C	-1.790867	-0.353704	-1.709055
N	-2.916241	-0.63984	-1.887143
C	-0.394337	-1.302146	0.694405
H	0.002952	-1.290423	1.711197
H	-1.475143	-1.463968	0.731049
H	0.082936	-2.138352	0.174329
C	-0.553585	1.163018	0.665742
N	-1.011515	2.090939	1.225053
H	2.68199	0.0	0.0
