14

C	-0.352544	-0.028619	-1.47695
C	0.0	0.0	0.0
F	-0.155429	1.211546	-2.059196
H	1.095977	0.0	0.0
H	0.333496	-0.734884	-1.961548
C	-1.747397	-0.434621	-1.739924
N	-2.851899	-0.783198	-1.935628
C	-0.389333	-1.303872	0.694406
H	-1.469307	-1.472765	0.725068
H	0.095799	-2.137818	0.177395
H	0.002707	-1.288713	1.713168
C	-0.565309	1.160512	0.658081
N	-1.029053	2.085502	1.217768
H	2.674859	0.0	0.0
