14

C	-0.356435	-0.038639	-1.475993
C	0.0	0.0	0.0
F	-0.139355	1.191904	-2.071159
H	1.095872	0.0	0.0
H	0.314871	-0.762485	-1.9551
C	-1.760093	-0.419682	-1.730479
N	-2.875238	-0.734232	-1.927173
C	-0.391595	-1.297496	0.704011
H	0.110966	-2.132095	0.207134
H	-0.019198	-1.26716	1.729844
H	-1.470381	-1.475083	0.718835
C	-0.563418	1.167653	0.648373
N	-1.02937	2.098804	1.195607
H	2.676304	0.0	0.0
