19

C	-0.468278	6.7e-05	-1.437166
C	0.0	0.0	0.0
Br	0.315029	-1.4648	-2.479714
H	1.095508	0.0	0.0
N	-2.021474	-0.29086	-1.431413
O	-2.439075	-1.436427	-1.304213
O	-2.738117	0.716742	-1.450455
N	-0.194345	1.200285	-2.123949
H	-0.622458	1.981115	-1.6473
H	-0.527071	1.15956	-3.078211
C	-0.438739	-1.218029	0.801338
H	-0.259281	-2.145562	0.25623
H	0.172116	-1.247001	1.708273
H	-1.495815	-1.186802	1.089032
C	-0.389957	1.291495	0.718927
H	0.153749	2.145205	0.306345
H	-1.467882	1.49232	0.706672
H	-0.068539	1.201574	1.759929
H	2.798238	0.0	0.0
