19

C	-0.168405	-0.062123	-1.498179
C	0.0	0.0	0.0
Br	-2.046087	-0.668027	-2.129454
H	1.099293	0.0	0.0
N	-0.134308	1.367766	-2.164215
O	-0.956489	2.203333	-1.810037
O	0.733429	1.552427	-3.01532
N	0.797942	-0.899553	-2.026039
H	0.904495	-0.788076	-3.023367
H	1.698227	-0.730071	-1.52355
C	-0.42022	-1.318226	0.63975
H	-0.106658	-2.165705	0.028936
H	0.070325	-1.400874	1.614829
H	-1.505677	-1.365063	0.781702
C	-0.555785	1.184975	0.763813
H	-0.344842	1.0229	1.825748
H	-0.082611	2.123761	0.475546
H	-1.636954	1.287663	0.634635
H	2.768906	0.0	0.0
