19

C	-0.547496	-0.015082	-1.401662
C	0.0	0.0	0.0
Br	0.447235	1.38637	-2.53514
H	1.091845	0.0	0.0
N	-0.203359	-1.285622	-2.172385
O	-0.929442	-1.556097	-3.133304
O	0.783222	-1.918487	-1.823538
N	-1.942709	0.15279	-1.499907
H	-2.207151	1.034462	-1.082825
H	-2.236161	0.120992	-2.469212
C	-0.46718	-1.223458	0.789104
H	-1.559274	-1.285158	0.853357
H	-0.054272	-1.142473	1.799723
H	-0.074915	-2.145635	0.361106
C	-0.427858	1.272333	0.728523
H	-1.492913	1.273118	0.997944
H	-0.198719	2.166448	0.144286
H	0.155543	1.336119	1.651807
H	2.861052	0.0	0.0
