19

C	-0.245609	-0.111534	-1.492766
C	0.0	0.0	0.0
Br	-2.093538	-0.749329	-1.965746
H	1.098673	0.0	0.0
N	-0.125145	1.302276	-2.105121
O	-1.093	2.055152	-2.042143
O	0.98228	1.604144	-2.533202
N	0.69513	-0.934575	-2.184667
H	0.466688	-1.904613	-2.00495
H	1.614329	-0.740175	-1.748244
C	-0.397502	-1.269797	0.739751
H	-0.064418	-2.167162	0.212962
H	0.101458	-1.267847	1.713818
H	-1.479545	-1.336354	0.89062
C	-0.544382	1.238736	0.686362
H	-0.090482	2.149589	0.292383
H	-1.631784	1.323619	0.590794
H	-0.288125	1.185273	1.748509
H	2.790932	0.0	0.0
