19

C	-0.1813	0.034718	-1.508461
C	0.0	0.0	0.0
Br	-0.342688	-1.925306	-2.313477
H	1.099269	0.0	0.0
N	-1.538403	0.554182	-2.000693
O	-2.519538	0.308316	-1.306107
O	-1.555451	1.189311	-3.052149
N	0.83542	0.749022	-2.069082
H	1.746369	0.551956	-1.607124
H	0.84464	0.796713	-3.07627
C	-0.546893	-1.175033	0.783226
H	-1.629401	-1.273992	0.669384
H	-0.319448	-1.01218	1.841932
H	-0.069527	-2.106973	0.482147
C	-0.435058	1.337192	0.602964
H	-1.513734	1.374904	0.782001
H	-0.148198	2.171467	-0.0411
H	0.087594	1.465081	1.555726
H	2.864268	0.0	0.0
