19

C	-0.374937	-0.008776	-1.475861
C	0.0	0.0	0.0
Br	0.438807	-1.536508	-2.393683
H	1.097199	0.0	0.0
N	-1.895457	-0.164152	-1.59194
O	-2.535477	0.8914	-1.584054
O	-2.395474	-1.283085	-1.554434
N	-0.004227	1.158985	-2.225331
H	-0.50241	1.949768	-1.833296
H	0.992125	1.287026	-2.058409
C	-0.470513	-1.226382	0.771492
H	-0.195692	-2.149122	0.260188
H	0.024928	-1.229008	1.746336
H	-1.55455	-1.231189	0.932087
C	-0.446199	1.277725	0.704443
H	0.003331	2.167661	0.259598
H	-0.0849	1.230817	1.735195
H	-1.534578	1.398361	0.723806
H	2.825266	0.0	0.0
