12

C	0.0	0.0	0.0
C	-0.568578	-0.315468	-1.368558
Br	1.917457	0.0	0.0
H	-1.657617	-0.440269	-1.224212
H	-0.366934	0.952602	0.374888
H	-0.412956	0.562867	-2.004376
N	-0.408003	-1.027589	1.035131
O	-0.657602	-2.156664	0.636734
O	-0.395029	-0.647213	2.19909
C	0.015999	-1.469999	-2.04274
N	0.464523	-2.357069	-2.6693
Br	-3.623322	0.0	0.0
