12

C	0.0	0.0	0.0
C	-0.295409	-0.249517	-1.496728
Br	1.927592	0.0	0.0
H	-0.112022	-1.315702	-1.657026
H	-0.403551	0.90984	0.431324
H	0.48028	0.282421	-2.052569
N	-0.403029	-1.135793	0.908523
O	-0.538007	-0.843399	2.089888
O	-0.462215	-2.259654	0.427732
C	-1.529592	0.115221	-2.206798
N	-2.149053	0.397741	-3.169561
Br	-3.274955	0.0	0.0
