12

C	0.0	0.0	0.0
C	-0.554785	-0.079169	-1.407949
Br	1.924747	0.0	0.0
H	-1.655422	-0.100562	-1.299343
H	-0.359421	0.863587	0.553902
H	-0.219393	-1.002413	-1.883029
N	-0.413897	-1.210776	0.801586
O	-0.519477	-2.272672	0.200232
O	-0.541419	-1.037728	2.00651
C	-0.148146	1.070932	-2.202466
N	0.172332	1.993486	-2.854273
Br	-3.620756	0.0	0.0
