12

C	0.0	0.0	0.0
C	-0.553063	-0.237173	-1.391312
Br	1.925432	0.0	0.0
H	-1.638649	-0.394141	-1.267458
H	-0.371751	0.927444	0.427426
H	-0.423838	0.688186	-1.961119
N	-0.408794	-1.088166	0.964995
O	-0.601558	-2.204451	0.502507
O	-0.45579	-0.764254	2.145121
C	0.069274	-1.328365	-2.130854
N	0.559724	-2.166934	-2.790004
Br	-3.59656	0.0	0.0
