12

C	0.0	0.0	0.0
C	-0.574634	-0.205059	-1.383594
Br	1.936151	0.0	0.0
H	-1.662513	-0.342969	-1.238861
H	-0.358725	0.921913	0.45106
H	-0.440602	0.724513	-1.944336
N	-0.399571	-1.104472	0.95351
O	-0.430287	-0.800194	2.139264
O	-0.603147	-2.211636	0.474382
C	0.007723	-1.301036	-2.148054
N	0.453377	-2.14974	-2.826178
Br	-3.642263	0.0	0.0
