16

C	0.0	0.0	0.0
C	-0.439692	-0.068801	-1.463393
Cl	1.740094	0.0	0.0
H	-1.521293	-0.233498	-1.367363
H	-0.278819	0.937907	-1.851374
N	-0.504579	1.285004	0.669558
O	-0.793009	1.281622	1.850896
O	-0.457063	2.275608	-0.050561
N	-0.422831	-1.234766	0.793609
O	-0.171445	-1.239651	1.992013
O	-0.856781	-2.181728	0.156712
C	0.284062	-1.080439	-2.346161
H	-0.243695	-1.12572	-3.304061
H	1.322338	-0.81153	-2.556632
H	0.263887	-2.080072	-1.913938
F	-2.496789	0.0	0.0
