16

C	0.0	0.0	0.0
C	-0.48181	-0.096456	-1.439006
Cl	1.756263	0.0	0.0
H	-1.535326	-0.379843	-1.307649
H	0.109268	-0.900059	-1.88769
N	-0.449502	1.246757	0.772804
O	-1.006691	1.15139	1.846888
O	-0.122935	2.297144	0.224381
N	-0.379459	-1.272528	0.768432
O	-0.73193	-2.233584	0.10125
O	-0.159723	-1.282099	1.972238
C	-0.379763	1.167564	-2.277349
H	-0.607948	0.901498	-3.314527
H	0.607917	1.635508	-2.250271
H	-1.120194	1.891449	-1.940664
F	-2.542153	0.0	0.0
