16

C	0.0	0.0	0.0
C	-0.45229	0.221007	-1.441498
Cl	1.742639	0.0	0.0
H	-1.516488	0.454964	-1.320808
H	0.114011	1.093187	-1.779645
N	-0.393563	1.211827	0.856213
O	-0.766536	2.212119	0.263737
O	-0.166617	1.137793	2.057203
N	-0.472594	-1.301174	0.654563
O	-0.232478	-2.29517	-0.024996
O	-0.940727	-1.305589	1.774411
C	-0.251805	-0.931553	-2.414806
H	-0.424509	-0.550099	-3.426809
H	-0.977046	-1.718475	-2.219816
H	0.750418	-1.366354	-2.380235
F	-2.501828	0.0	0.0
