18
Coordinates from ORCA-job run
  C   0.61894584661968     -0.45712245767007     -0.28718790013172
  C   -0.56233929218703      0.33453757117262      0.30914430081517
  H   0.33541644845803     -0.72969421487135     -1.30987185778579
  H   -0.31111842397420      0.65822078451750      1.32286148924062
  N   0.89623790674099     -1.69313226801679      0.43183665329590
  H   1.11183031752095     -1.50073871014021      1.40372332711036
  H   0.11062107049820     -2.32958887086245      0.39790847474125
  C   1.88641822010925      0.38474035689922     -0.33010949785743
  H   2.70368919747446     -0.22522668684862     -0.71607289925929
  H   1.77484320282634      1.26319285993365     -0.96768086513213
  H   2.15682961869569      0.72874880685684      0.67360959362959
  C   -1.88552165051688     -0.40791231856012      0.27468826570562
  H   -2.10929468716352     -0.74067701221370     -0.73992407603949
  H   -2.70003092920686      0.23379026614442      0.61777496376696
  H   -1.84477402730670     -1.27348627953963      0.93748409194342
  N   -0.70338919018762      1.60261421212057     -0.46967990085278
  O   -0.42233130250320      2.65964398678742      0.09351482262946
  O   -1.05803232589755      1.49208997429071     -1.64301898581972
