18
Coordinates from ORCA-job run
  C   0.60575715483944     -0.47409361781651      0.36283961916339
  C   -0.86916643941996     -0.09853026709005      0.17313425654053
  H   0.64191903183808     -1.09287999131127      1.26325841534443
  H   -1.46288798411964     -1.01511264503103      0.09571522937505
  N   1.36441265688791      0.74194902529915      0.64284887901712
  H   2.15735823090355      0.53608662261312      1.23552491305066
  H   1.71938691287646      1.15069915071304     -0.21317915887359
  C   1.12936432611270     -1.29065119230644     -0.81636841328626
  H   0.50092607408981     -2.16243927301176     -1.02116294274855
  H   2.13990159838389     -1.64491956655803     -0.59899417669600
  H   1.17866965515369     -0.68462041154423     -1.72515822739050
  C   -1.14572140659046      0.83603740772510     -0.98345351095960
  H   -0.56843218033812      1.75453172561091     -0.88201351652873
  H   -2.20016134315001      1.10982587211257     -1.01641968989475
  H   -0.89309482771535      0.34438432583378     -1.92498878047753
  N   -1.32358159853349      0.51845901527198      1.47251622825859
  O   -1.25394908135430     -0.20635451727320      2.46327376905958
  O   -1.72070077986419      1.67862833676290      1.47162710704615
