18

C	-0.529113	-0.029336	-1.434944
C	0.0	0.0	0.0
Cl	0.087936	1.530567	-2.272874
H	1.097928	0.0	0.0
C	0.057495	-1.174942	-2.226066
H	-0.278931	-2.105461	-1.771337
H	1.146353	-1.124295	-2.183943
H	-0.268078	-1.126581	-3.26948
N	-1.949639	-0.045251	-1.406115
H	-2.333288	0.039167	-2.339072
H	-2.265058	0.727044	-0.828935
N	-0.411362	-1.232813	0.642174
H	-1.382973	-1.165115	0.91789
H	0.170901	-1.395785	1.452968
N	-0.563423	1.17992	0.690044
H	-0.092361	2.002621	0.323329
H	-0.272883	1.104846	1.659865
Br	3.679992	0.0	0.0
