18

C	-0.293933	-0.054054	-1.497274
C	0.0	0.0	0.0
Cl	-2.092541	-0.185109	-1.791824
H	1.10534	0.0	0.0
C	0.184657	1.208711	-2.189091
H	0.011083	1.132002	-3.266574
H	-0.327567	2.082547	-1.792186
H	1.257689	1.306204	-1.998056
N	0.310943	-1.273705	-2.001882
H	1.294265	-1.248354	-1.726912
H	0.269758	-1.273715	-3.015533
N	-0.530443	-1.187561	0.677074
H	0.141361	-1.448259	1.392002
H	-0.542472	-1.946239	0.001879
N	-0.474744	1.231627	0.598752
H	0.160763	1.489691	1.343878
H	-1.377938	1.025303	1.011841
Br	3.585408	0.0	0.0
