18

C	-0.443333	-0.131776	-1.466844
C	0.0	0.0	0.0
Cl	0.00442	-1.790113	-2.052864
H	1.098664	0.0	0.0
C	-1.937669	0.034308	-1.651448
H	-2.187045	-0.100029	-2.704566
H	-2.22153	1.044399	-1.343879
H	-2.481525	-0.689085	-1.041983
N	0.275191	0.808864	-2.305733
H	0.091388	1.715667	-1.882299
H	1.272431	0.640709	-2.166083
N	-0.588585	-1.027326	0.864733
H	-0.359739	-1.935515	0.474243
H	-0.088127	-0.976331	1.747027
N	-0.407525	1.330014	0.454153
H	-1.258102	1.229725	0.997465
H	0.31969	1.704153	1.051385
Br	3.61866	0.0	0.0
