18

C	-0.411307	0.014231	-1.459715
C	0.0	0.0	0.0
Cl	-2.474627	0.192481	-1.358235
H	1.095575	0.0	0.0
C	-0.003386	1.244226	-2.218505
H	1.090838	1.2819	-2.184372
H	-0.406974	2.133817	-1.74433
H	-0.340784	1.188307	-3.256955
N	-0.096909	-1.158806	-2.068927
H	-0.368761	-1.258103	-3.032592
H	-0.237668	-1.963453	-1.473191
N	-0.415159	-1.275416	0.586864
H	-1.378116	-1.207759	0.89586
H	0.179019	-1.475661	1.380834
N	-0.405415	1.224854	0.659596
H	-1.394431	1.202746	0.872712
H	0.127415	1.328463	1.512106
Br	3.583601	0.0	0.0
