18

C	-0.410518	0.11459	-1.47398
C	0.0	0.0	0.0
Cl	0.116106	-1.462383	-2.289977
H	1.097285	0.0	0.0
C	-1.905553	0.210721	-1.684917
H	-2.143087	0.241972	-2.751897
H	-2.380775	-0.663021	-1.238593
H	-2.281778	1.113656	-1.201742
N	0.289761	1.232107	-2.021304
H	1.284721	1.12958	-1.825669
H	0.162952	1.278501	-3.027132
N	-0.552542	-1.18492	0.635954
H	-1.073853	-0.881626	1.446832
H	0.207019	-1.783456	0.933148
N	-0.501651	1.197483	0.696963
H	-0.356568	1.984518	0.072113
H	0.130256	1.351404	1.477128
Br	3.628351	0.0	0.0
