18

C	-0.483154	-0.006408	-1.462379
C	0.0	0.0	0.0
Cl	-0.02075	1.567098	-2.237427
H	1.098911	0.0	0.0
C	0.219634	-1.100542	-2.250561
H	-0.06402	-1.054835	-3.306286
H	1.303647	-0.993899	-2.159485
H	-0.084083	-2.07164	-1.848873
N	-1.929324	-0.072595	-1.454032
H	-2.273073	-0.242604	-2.392415
H	-2.151587	-0.869397	-0.860695
N	-0.502993	-1.258438	0.602375
H	-0.66084	-1.027339	1.576309
H	0.254381	-1.93446	0.583622
N	-0.509538	1.111992	0.777145
H	0.172192	1.858363	0.745259
H	-1.365064	1.4445	0.344972
Br	3.647511	0.0	0.0
