18

C	-0.268941	-0.014011	-1.511217
C	0.0	0.0	0.0
Cl	-2.080517	-0.176286	-1.81237
H	1.100014	0.0	0.0
C	0.171764	1.279172	-2.170804
H	-0.378066	2.130691	-1.778867
H	0.034278	1.213472	-3.254966
H	1.234648	1.411306	-1.947248
N	0.363214	-1.197125	-2.047561
H	0.394804	-1.128066	-3.057682
H	1.326566	-1.193941	-1.711521
N	-0.435981	-1.202523	0.704426
H	-1.319403	-1.51237	0.308039
H	0.235457	-1.941148	0.52216
N	-0.497678	1.22481	0.595801
H	-0.031246	1.314511	1.491315
H	-1.4842	1.09166	0.795788
Br	3.56476	0.0	0.0
