18

C	-0.548586	0.076285	-1.425554
C	0.0	0.0	0.0
Cl	0.061126	1.693902	-2.155387
H	1.101669	0.0	0.0
C	0.031657	-1.003957	-2.30877
H	-0.328615	-0.893233	-3.335987
H	1.120201	-0.936865	-2.296768
H	-0.278456	-1.967271	-1.906065
N	-1.967922	0.052299	-1.383411
H	-2.359122	0.225201	-2.301182
H	-2.28456	0.762315	-0.732397
N	-0.394705	-1.277835	0.56689
H	0.268658	-1.525729	1.291808
H	-1.328332	-1.205956	0.958328
N	-0.554138	1.123786	0.785334
H	-0.119061	1.976589	0.446032
H	-0.210295	0.998144	1.731947
Br	3.648665	0.0	0.0
