10
Coordinates from ORCA-job run
  C   0.42865007551932     -0.53440211676606     -0.18778633831302
  C   -0.42794902218506      0.53904760502766      0.48177547505558
  F   0.42708435092374     -0.32797720704102     -1.54957039208972
  H   -0.03243079863116      1.52199621944503      0.21277665625039
  H   0.02237481038425     -1.53170941665162      0.00029362380450
  H   -0.36999884465832      0.43623801866627      1.56886078924810
  C   1.80878079874876     -0.46712571476702      0.31575159484226
  N   2.89966893806367     -0.40199995212284      0.74291332885946
  C   -1.81977763796805      0.43481318121022      0.04929882729311
  N   -2.93640267019714      0.33211938299938     -0.29431356495065
