10
Coordinates from ORCA-job run
  C   0.60968426552471     -0.50032411166337      0.49900878328272
  C   -0.86757831078439     -0.16555017585735      0.29051364293419
  F   0.70873741774053     -1.86003021347680      0.71309243324539
  H   -1.42554598211931     -0.53180149188898      1.15611299459949
  H   1.00136827691901      0.01027135140853      1.38257268660025
  H   -1.23149880410722     -0.69052384964429     -0.59600045724125
  C   1.41672413392198     -0.13264642227792     -0.67297156981732
  N   2.05389824828134      0.16289111149069     -1.61308108205189
  C   -1.06561139034356      1.27307536888849      0.14220342137012
  N   -1.20017785503309      2.43363843302100      0.03654914707830
