10
Coordinates from ORCA-job run
  C   0.47204196238621     -0.75212631433573      0.19002539400327
  C   -0.68576344891883      0.08995199756675      0.71940297481589
  F   0.02112537199084     -1.53964737874168     -0.84684542118970
  H   -0.34745423950916      0.68116142665744      1.57530607189039
  H   0.83467242169921     -1.41554003142052      0.98059730195731
  H   -1.47182016164903     -0.58723674263599      1.06397014139344
  C   1.58402517609414      0.08728524574017     -0.27882487278784
  N   2.47738835536289      0.76573286353663     -0.62318273973155
  C   -1.22632232567637      0.97696766887819     -0.30818988127533
  N   -1.65789311177990      1.69245126475473     -1.13125896907587
