10
Coordinates from ORCA-job run
  C   0.65527821467458     -0.43265062777266      0.50865385332781
  C   -0.84264751952188     -0.14415858842702      0.40339862664154
  F   0.80499335155962     -1.74143222432515      0.91943222667506
  H   -1.30199532858438     -0.37265235471789      1.36859300497001
  H   1.12210047424336      0.21218024896240      1.25756583876559
  H   -1.28159104073026     -0.80533370878219     -0.34777410017607
  C   1.33204309693795     -0.24792066798133     -0.78268506086409
  N   1.86232745848195     -0.09931405872569     -1.81890816171466
  C   -1.08785837827270      1.25134767167198      0.05231556257735
  N   -1.26165032878823      2.37893431009757     -0.22059179020256
