10
Coordinates from ORCA-job run
  C   0.60816489250587     -0.35247586804366      0.41656669922461
  C   -0.60455148046037      0.37693827850534     -0.15928089164657
  F   0.25197408458014     -1.64670808194769      0.72440299345792
  H   -0.95732915264147     -0.16786218743674     -1.03871756118144
  H   0.95289049951369      0.12802466816874      1.33609946561936
  H   -0.31631598885006      1.38283296037258     -0.47723362824897
  C   1.70249503949316     -0.36600662795303     -0.56597125874036
  N   2.56448482868832     -0.34946098834465     -1.36183825393615
  C   -1.67633113484170      0.46110821572105      0.83015896960789
  N   -2.52448158798760      0.53460963095806      1.63681346584371
