10
Coordinates from ORCA-job run
  C   0.50201998422783     -0.72673414100782      0.23951111819822
  C   -0.70587872824846      0.08823975415623      0.69475587982371
  F   0.11694192122195     -1.57932921109439     -0.77155782091896
  H   -0.41759351270486      0.73690256373458      1.52694580918915
  H   0.86740046138401     -1.33667319008784      1.07073268562859
  H   -1.47135341767226     -0.60503933685227      1.05320668641039
  C   1.59146155299049      0.13848259958208     -0.23592180033329
  N   2.46531037270592      0.84011151603110     -0.58373123334358
  C   -1.25467920043000      0.89653933190974     -0.39183181167630
  N   -1.69362943347462      1.54750011362859     -1.26310951297794
