17

C	0.0	0.0	0.0
C	-0.487245	-0.175813	-1.425073
F	1.415984	0.0	0.0
H	-0.222018	-1.195705	-1.753946
H	-1.579892	-0.097674	-1.32847
C	-0.486586	1.317061	0.564936
H	-1.581354	1.234761	0.555227
H	-0.15082	2.14339	-0.063498
H	-0.1083	1.45196	1.584128
C	-0.504412	-1.150121	0.842738
H	-0.138369	-2.107489	0.455551
H	-0.169672	-1.038813	1.879264
H	-1.600084	-1.079686	0.773281
N	0.059271	0.862336	-2.30862
H	-0.370491	0.772281	-3.221717
H	1.051342	0.689302	-2.420568
F	-3.055277	0.0	0.0
