17

C	0.0	0.0	0.0
C	-0.478667	0.205393	-1.431962
F	1.413901	0.0	0.0
H	-0.100101	-0.62588	-2.040471
H	-1.572644	0.147916	-1.355016
C	-0.495617	1.106755	0.905596
H	-1.592256	1.048522	0.833478
H	-0.117356	2.082063	0.584816
H	-0.162371	0.931766	1.933957
C	-0.497327	-1.338154	0.501873
H	-1.593559	-1.250439	0.485017
H	-0.126649	-1.530667	1.5146
H	-0.156473	-2.145981	-0.155123
N	-0.062644	1.462514	-2.065537
H	0.895756	1.649068	-1.788025
H	-0.629575	2.20975	-1.683846
F	-3.036593	0.0	0.0
