14
Coordinates from ORCA-job run
  C   1.02989102611039      0.20788980528082      0.61514565204084
  C   -0.44174687409622      0.07423533699715      0.20974296220137
  Br  2.11748695442734      0.93198347593577     -0.83257518621075
  H   -0.98272103274773     -0.23835070929491      1.11011860885557
  H   1.11177885305841      0.92691214425074      1.43138184366352
  C   1.55582029346412     -1.08339545785760      1.03038085217226
  N   1.94199600738657     -2.13820998703787      1.37528925280379
  C   -0.72107577864109     -0.85727044867664     -0.94532911513154
  H   -1.79321664129170     -0.91237493292005     -1.13109085644859
  H   -0.35881096186747     -1.85701904037017     -0.69674231197521
  H   -0.23290269488547     -0.51450332642335     -1.85587251490188
  N   -0.95032437905610      1.47484804679545     -0.05023660460831
  O   -1.49081938451231      1.70776759640405     -1.12518832757165
  O   -0.78435538734874      2.27848749691661      0.86397574511058
