14
Coordinates from ORCA-job run
  C   1.01186446912899      0.34146336881687      0.58461295236803
  C   -0.43233523145776     -0.03546502704293      0.23772618948037
  Br  1.84054380731044      1.40773064298942     -0.82227228002235
  H   -0.84071604657572     -0.53794454135247      1.12190643179841
  H   1.01240043057984      0.97562237236051      1.47224643991092
  C   1.79999326540644     -0.85736841202323      0.82550519255343
  N   2.40155443010138     -1.84591634841900      1.02962297424133
  C   -0.60910312327806     -0.88087132526203     -1.00075474706612
  H   -0.04827571759931     -1.81061712507865     -0.88453222465359
  H   -1.66166401989976     -1.12508128145339     -1.14033845410543
  H   -0.25809570461372     -0.35835683128365     -1.88883797483273
  N   -1.21378631850301      1.25737234273039      0.16326371041847
  O   -1.14035435502460      1.98025369856124      1.15371707384439
  O   -1.86202588557515      1.48817846645692     -0.85086528393514
