14
Coordinates from ORCA-job run
  C   0.93137771892506     -0.23805479861525      0.80534098684306
  C   -0.51737557995945     -0.13732123549513      0.33325915203734
  Br  1.21088453326361      0.80288174573990      2.43001500192650
  H   -1.16535545640650     -0.50667381188320      1.12925206825350
  H   1.10509582560154     -1.27734379594665      1.09728520509841
  C   1.92046051361356      0.12213140428444     -0.20195800297088
  N   2.74096767427356      0.33589896084059     -1.01515360318689
  C   -0.74699408647901     -0.87241699015153     -0.97675868409694
  H   -0.47968057034082     -1.92590474117238     -0.86826049193501
  H   -1.80143235184725     -0.81330425207493     -1.25354245968702
  H   -0.14428682145785     -0.43318557661337     -1.77276048951649
  N   -0.91412565312973      1.29774605799915      0.15158436582062
  O   -1.94414004398527      1.66277453009674      0.71135787059139
  O   -0.19539570207144      1.98177250299162     -0.57066091917761
