14
Coordinates from ORCA-job run
  C   1.12430423796752     -0.24220501616445      0.31694349175278
  C   -0.38244708246650      0.01072100436772      0.22689867401546
  Br  1.47063301275925     -1.79688223955365      1.44297460368611
  H   -0.78418105057235      0.23783014830110      1.21551931208875
  H   1.52611685043915     -0.47366785163050     -0.66983541605129
  C   1.82202241598904      0.90968473734867      0.87283789907775
  N   2.35885495618248      1.85210900047399      1.32457149452577
  C   -1.15974429825517     -1.09663048548880     -0.46263056969788
  H   -0.74229783409448     -1.29102647839635     -1.45283957935100
  H   -2.20312710047717     -0.79439305592748     -0.57108601070366
  H   -1.12525757864002     -2.01140072408031      0.12744595764780
  N   -0.57708699833243      1.26647993959598     -0.58089658878397
  O   -1.44461660116301      2.04440096564616     -0.19918353972814
  O   0.11582707066368      1.38498005550792     -1.58971972847847
