14
Coordinates from ORCA-job run
  C   0.83387862805790     -0.31422673379147      0.88690216115897
  C   -0.55006802081432     -0.16163260551586      0.25893684180696
  Br  0.92064519843898      0.58612364336651      2.61420823519029
  H   -1.28514221709187     -0.59277177788276      0.93991096953322
  H   0.97269244973344     -1.37559299303223      1.11009643073453
  C   1.93273820884809      0.11929855817102      0.03431821952788
  N   2.81753874155775      0.40767648940700     -0.68277691093410
  C   -0.62439207506041     -0.78033363239858     -1.12680887662496
  H   -0.36906366539480     -1.84126005118168     -1.07816392087734
  H   0.06511650775129     -0.27957086901017     -1.80758627843245
  H   -1.63989498282585     -0.69016456638769     -1.51746971686482
  N   -0.92686232890095      1.28678285686710      0.15732181465103
  O   -2.01254500461079      1.61072712763466      0.63062451006042
  O   -0.13464143968846      2.02394455375414     -0.42151347892961
