14
Coordinates from ORCA-job run
  C   1.08515767587476      0.39203054559542      0.39051835830534
  C   -0.39406050075362      0.00232410635995      0.29859239311343
  Br  1.70784399460742      1.26299070419336     -1.23899691376781
  H   -0.67391922843877     -0.38092057083155      1.28641953310422
  H   1.21178612985092      1.12917035020507      1.18462968413550
  C   1.89671950252316     -0.78394808579495      0.66443941422402
  N   2.51775674057604     -1.75268360496451      0.90226085863332
  C   -0.74503218875659     -0.98468932501145     -0.78886232469449
  H   -0.17496038094063     -1.90383639792326     -0.63811110583595
  H   -0.52222575916688     -0.58127292650325     -1.77500290527204
  H   -1.80715831330273     -1.22423562590334     -0.74854747571019
  N   -1.17685022357592      1.29038764823221      0.17506761526593
  O   -0.96472286680440      2.12688877774455      1.04930751295301
  O   -1.95933458169276      1.40879440460174     -0.76071464445429
