19

C	-0.40524	-0.001258	-1.458278
C	0.0	0.0	0.0
F	0.105557	1.129344	-2.033583
H	1.092251	0.0	0.0
C	0.077523	-1.204736	-2.235889
H	1.161357	-1.273446	-2.137015
H	-0.388512	-2.118325	-1.873447
H	-0.175118	-1.069493	-3.291205
N	-1.916137	0.079066	-1.670397
O	-2.388312	1.096738	-2.158519
O	-2.546096	-0.899845	-1.274298
C	-0.553194	-1.096327	0.881374
H	-1.640106	-1.052373	0.956904
H	-0.116464	-0.993262	1.879461
H	-0.266449	-2.077013	0.495593
N	-0.382573	1.322257	0.597131
O	0.51987	2.026233	1.041121
O	-1.582752	1.606847	0.625801
Br	2.759206	0.0	0.0
