19

C	-0.383117	-0.022648	-1.473547
C	0.0	0.0	0.0
F	0.015898	1.159454	-2.024392
H	1.09226	0.0	0.0
C	0.260303	-1.15975	-2.22549
H	1.335787	-1.119011	-2.041371
H	0.059428	-1.027977	-3.291242
H	-0.142557	-2.115796	-1.898244
N	-1.893229	-0.090675	-1.705262
O	-2.442385	0.847094	-2.262535
O	-2.436352	-1.131759	-1.343908
C	-0.50549	-1.127759	0.877119
H	-0.159873	-2.083592	0.483582
H	-1.59159	-1.137333	0.945938
H	-0.067227	-1.003207	1.869861
N	-0.471266	1.294825	0.583069
O	-1.681312	1.521003	0.49808
O	0.348445	2.029127	1.119744
Br	3.507745	0.0	0.0
