15

C	-0.502342	-0.034144	-1.433966
C	0.0	0.0	0.0
Br	-0.02528	1.739107	-2.18977
H	1.091252	0.0	0.0
H	-0.343216	0.891565	0.522084
C	0.172997	-1.022274	-2.279826
N	0.625834	-1.776417	-3.060096
C	-2.014443	-0.192107	-1.565621
H	-2.513399	0.585409	-0.983437
H	-2.293755	-1.175497	-1.182914
H	-2.321697	-0.109766	-2.610505
N	-0.414313	-1.148917	0.755664
O	-0.537563	-2.236639	0.154189
O	-0.479174	-1.026548	1.991771
H	2.504204	0.0	0.0
