15

C	-0.473543	0.023634	-1.435688
C	0.0	0.0	0.0
Br	0.319819	-1.438263	-2.508133
H	1.091502	0.0	0.0
H	-0.290628	0.925872	0.499952
C	-1.922887	-0.09524	-1.574195
N	-3.093923	-0.103121	-1.685311
C	0.030554	1.33491	-2.041376
H	-0.443765	2.1789	-1.531424
H	-0.200324	1.383268	-3.106274
H	1.111879	1.37735	-1.883919
N	-0.508684	-1.087692	0.822301
O	-0.959185	-2.102729	0.276803
O	-0.379601	-0.948315	2.043503
H	2.599107	0.0	0.0
