15

C	-0.539302	0.047959	-1.417527
C	0.0	0.0	0.0
Br	0.503439	1.266356	-2.593302
H	1.088182	0.0	0.0
H	-0.29419	-0.928477	0.490253
C	-0.365106	-1.285325	-1.996776
N	-0.313301	-2.365801	-2.457821
C	-2.009475	0.448327	-1.5365
H	-2.614174	-0.231898	-0.928422
H	-2.132088	1.467207	-1.175699
H	-2.335925	0.388069	-2.576513
N	-0.429763	1.082122	0.842402
O	-0.525443	2.22128	0.349888
O	-0.523747	0.845238	2.060024
H	2.48149	0.0	0.0
