15

C	-0.387849	-0.245874	-1.438734
C	0.0	0.0	0.0
Br	-2.364065	-0.6127	-1.645545
H	1.107416	0.0	0.0
H	-0.366994	0.950233	0.381075
C	-0.18312	1.014004	-2.15441
N	-0.006711	2.015316	-2.74499
C	0.40302	-1.35269	-2.118607
H	1.459754	-1.147225	-1.901141
H	0.137989	-2.314439	-1.68853
H	0.218687	-1.351958	-3.194402
N	-0.407506	-1.02385	0.94041
O	-0.389472	-2.208344	0.581691
O	-0.646942	-0.65574	2.098265
H	2.548414	0.0	0.0
