15

C	-0.501325	-0.266724	-1.409544
C	0.0	0.0	0.0
Br	-0.023785	1.356561	-2.448137
H	1.092714	0.0	0.0
H	-0.341089	0.965874	0.367917
C	0.170282	-1.380884	-2.083066
N	0.597978	-2.268432	-2.724013
C	-2.012895	-0.441557	-1.514252
H	-2.511249	0.424438	-1.07494
H	-2.318485	-0.539948	-2.557508
H	-2.294572	-1.343663	-0.96981
N	-0.420749	-1.006998	0.932043
O	-0.499291	-0.680896	2.129045
O	-0.539567	-2.178778	0.520133
H	2.500183	0.0	0.0
