15

C	-0.408632	0.20347	-1.42948
C	0.0	0.0	0.0
Br	-2.406181	0.091853	-1.643613
H	1.09422	0.0	0.0
H	-0.324025	-0.975666	0.359588
C	-0.025133	1.491431	-2.004728
N	0.294891	2.453202	-2.600337
C	0.231469	-0.913848	-2.245124
H	1.311658	-0.860198	-2.056594
H	-0.143049	-1.881216	-1.904961
H	0.01763	-0.796021	-3.307987
N	-0.483412	0.98947	0.945359
O	-0.623248	0.618908	2.117077
O	-0.641614	2.151802	0.556558
H	2.579836	0.0	0.0
