15

C	-0.494253	0.08896	-1.433603
C	0.0	0.0	0.0
Br	-0.012179	1.919383	-2.036183
H	1.106977	0.0	0.0
H	-0.334091	0.847895	0.595085
C	0.185454	-0.823719	-2.357168
N	0.62415	-1.523868	-3.193451
C	-2.00488	-0.056537	-1.587158
H	-2.506389	0.672143	-0.947447
H	-2.285322	-1.066962	-1.285483
H	-2.306121	0.108907	-2.623837
N	-0.411319	-1.203745	0.653172
O	-0.465582	-1.192113	1.896423
O	-0.536353	-2.237102	-0.038298
H	2.468675	0.0	0.0
