17

C	-0.449387	-0.088671	-1.42996
C	0.0	0.0	0.0
F	-1.791172	-0.394629	-1.555777
H	1.094974	0.0	0.0
H	0.128924	-0.822951	-1.993392
N	-0.254968	1.215903	-2.164461
O	-1.161026	2.04463	-2.101502
O	0.809765	1.357439	-2.756075
C	-0.414801	-1.287425	0.709311
H	0.069927	-1.315828	1.688682
H	-1.498499	-1.361453	0.843077
H	-0.06906	-2.166413	0.156218
C	-0.50612	1.236473	0.727832
H	-1.596104	1.330217	0.68723
H	-0.197104	1.173594	1.77478
H	-0.063561	2.146995	0.318141
H	2.916088	0.0	0.0
