17

C	-0.561722	0.048476	-1.396515
C	0.0	0.0	0.0
F	-0.106106	1.126011	-2.101194
H	1.096177	0.0	0.0
H	-1.657741	0.072012	-1.414894
N	-0.217387	-1.185298	-2.202186
O	-0.995051	-2.132698	-2.064767
O	0.773385	-1.165789	-2.915127
C	-0.455825	-1.246062	0.749573
H	-0.080639	-1.183956	1.774333
H	-0.039274	-2.153758	0.310368
H	-1.547822	-1.347256	0.781308
C	-0.440143	1.269492	0.724085
H	0.035714	1.29371	1.707648
H	-1.529324	1.315971	0.860737
H	-0.111313	2.158535	0.183008
H	2.936326	0.0	0.0
