17

C	-0.361562	-0.000178	-1.457496
C	0.0	0.0	0.0
F	0.033664	-1.143538	-2.087309
H	1.097531	0.0	0.0
H	0.055261	0.859647	-1.985583
N	-1.859706	0.090311	-1.648507
O	-2.338145	1.22655	-1.690801
O	-2.507212	-0.954591	-1.685498
C	-0.473295	-1.25041	0.724518
H	0.008527	-1.281653	1.705594
H	-0.170753	-2.148226	0.183047
H	-1.559755	-1.27733	0.865429
C	-0.435272	1.283092	0.693335
H	-0.089021	2.163896	0.145219
H	0.031211	1.313493	1.681701
H	-1.521294	1.359761	0.814319
H	2.876575	0.0	0.0
