17

C	-0.489436	0.040987	-1.424376
C	0.0	0.0	0.0
F	-1.834922	0.277238	-1.526095
H	1.092575	0.0	0.0
C	0.221825	0.962354	-2.318317
N	0.744251	1.650633	-3.113353
N	-0.267525	-1.369707	-2.002436
O	0.880375	-1.6453	-2.318702
O	-1.247592	-2.100982	-2.053492
C	-0.454422	-1.212544	0.781778
H	-0.111899	-1.092098	1.806774
H	0.041897	-2.095943	0.378482
H	-1.53751	-1.361678	0.775804
N	-0.411652	1.257348	0.650611
O	-0.489355	2.269175	-0.051823
O	-0.594556	1.254433	1.868784
F	2.466377	0.0	0.0
