20

C	-0.417882	0.029361	-1.46711
C	0.0	0.0	0.0
F	0.082026	-1.167891	-2.060019
H	1.096713	0.0	0.0
N	-1.844613	0.053719	-1.624414
H	-2.232234	-0.782974	-1.202694
H	-2.061141	0.023311	-2.61529
C	0.229667	1.15851	-2.241041
H	-0.200864	2.11943	-1.957123
H	0.066835	1.000706	-3.311907
H	1.302969	1.156169	-2.040098
C	-0.486424	-1.2609	0.709578
H	0.008196	-1.340248	1.680792
H	-0.234818	-2.153494	0.135291
H	-1.569022	-1.241156	0.890926
C	-0.463643	1.252205	0.740739
H	-1.549251	1.372094	0.679617
H	-0.173781	1.179617	1.792839
H	0.010683	2.151075	0.341648
Cl	3.618726	0.0	0.0
