15
Coordinates from ORCA-job run
  C   -0.58632542868369      0.19910574333241      0.37765495915211
  C   0.80473955785661      0.10442779958407     -0.29375312614685
  Cl  -0.45637416921035     -0.44308392368541      2.05060220455241
  H   0.67786402104302      0.51309699345186     -1.30323306188828
  C   -1.62749956200833     -0.60408457065523     -0.38956694943928
  H   -1.30873808047828     -1.64298157235592     -0.44551260922993
  H   -1.72465695806160     -0.20207252527833     -1.40162561962779
  H   -2.59311719603928     -0.53499585537889      0.11191547407226
  C   -0.97788666139056      1.60629139647907      0.45815936494116
  N   -1.30467388847736      2.73510872708712      0.46818769421214
  N   1.20944513117998     -1.28221856874522     -0.42008354954905
  H   1.51479246525178     -1.63823339443548      0.47824991820509
  H   1.98555613856365     -1.35637288261668     -1.06617599395280
  C   1.77960348896843      0.95913580353048      0.41203517941362
  N   2.60727114148597      1.58687682968614      0.96114611528518
