15
Coordinates from ORCA-job run
  C   -0.66549456240132     -0.17939224988298      0.36094770297141
  C   0.78220199865311     -0.47707363309240     -0.10328903023546
  Cl  -1.19897043987403     -1.54939645736429      1.38040468253853
  H   0.75427974290380     -1.46723285875806     -0.57006770251707
  C   -1.63035215876546     -0.03336798146340     -0.80985525070317
  H   -1.59650869844436     -0.93636976427539     -1.42343264051990
  H   -2.64618237259602      0.09590515581398     -0.43606621842016
  H   -1.36370129785552      0.83059966679120     -1.42108468231975
  C   -0.65106907782685      1.03292212988553      1.18054665015517
  N   -0.59984740864228      2.02739662484592      1.80455038321888
  N   1.68637437825967     -0.52776641933442      1.02545655906497
  H   2.54959865804232     -0.98863966096939      0.76813817703090
  H   1.90796355570655      0.40609614534019      1.35163379122098
  C   1.16897883442819      0.50211739399744     -1.14028003395946
  N   1.50272884841221      1.26620190846604     -1.96860238752586
