15
Coordinates from ORCA-job run
  C   -0.68923291620302     -0.33724532216535      0.36910751820522
  C   0.85419731193036     -0.41393268110916      0.25361089480854
  Cl  -1.32300457370543     -2.01517018539962      0.40532291900958
  H   1.21042587630044     -0.98953870588470      1.11331641269729
  C   -1.32157563841208      0.42038375754579     -0.78851003748037
  H   -0.95862300518528      1.45013569692670     -0.79192029852714
  H   -1.07400301152847     -0.06887532997606     -1.73253762441557
  H   -2.40577199159925      0.43468027537090     -0.67450009120809
  C   -1.01270598192479      0.30003273307455      1.64558321546672
  N   -1.29073155319222      0.81003846978804      2.66651397406469
  N   1.40139281870479      0.92952103080235      0.31979610982111
  H   1.50127134980477      1.33414422825501     -0.60229610416434
  H   2.30778492258263      0.92923166404323      0.76816905581762
  C   1.23199028720001     -1.14136713113010     -0.97119341321716
  N   1.56658610522753     -1.64303850014159     -1.97946253087811
