15
Coordinates from ORCA-job run
  C   -0.62556862514207     -0.13808711634656      0.34850155800188
  C   0.82607490142995     -0.35778288385899     -0.13602761536804
  Cl  -1.03687806589653     -1.54221030745012      1.39853060797119
  H   0.81710888560261     -1.30965954048080     -0.69109542628533
  C   -1.61743553771071     -0.09143115115604     -0.80616648775720
  H   -1.53018444662408     -1.00026816280220     -1.40531173955553
  H   -1.41944044737035      0.77962361600358     -1.43407232279372
  H   -2.63400728291934     -0.02321015729481     -0.41829407911831
  C   -0.70468200952035      1.07849045909654      1.15514131880268
  N   -0.82066344512785      2.08208907622634      1.75455598075187
  N   1.74688163772258     -0.31804457489253      0.98614002887575
  H   1.65928346516975     -1.16581026266893      1.53262246431804
  H   2.70206850466009     -0.24134378650312      0.66019783306017
  C   1.17471152568681      0.70518915485180     -1.08574351628063
  N   1.45973094003951      1.54145563727586     -1.85897860462279
