15

C	0.0	0.0	0.0
C	-0.559403	-0.036901	-1.423794
Br	1.951293	0.0	0.0
H	-1.610553	-0.346927	-1.305672
H	-0.329585	0.92979	0.464003
C	-0.40359	-1.115505	0.854152
N	-0.61796	-1.993303	1.605228
N	0.121285	-1.113034	-2.21115
O	0.119463	-2.238218	-1.716982
O	0.619892	-0.824215	-3.299381
C	-0.491448	1.306935	-2.106927
H	0.523954	1.707791	-2.124518
H	-0.851946	1.227906	-3.131831
H	-1.158088	1.979383	-1.563016
Br	-3.562914	0.0	0.0
