15

C	0.0	0.0	0.0
C	-0.544048	-0.182244	-1.419245
Br	1.951318	0.0	0.0
H	-1.595022	-0.483717	-1.28557
H	-0.332683	0.970363	0.3696
C	-0.394619	-1.032379	0.95783
N	-0.585414	-1.834444	1.794798
N	0.152118	-1.328108	-2.084436
O	0.71224	-1.135675	-3.164415
O	0.105488	-2.409224	-1.500769
C	-0.465529	1.087126	-2.23328
H	-0.791011	0.900366	-3.255323
H	0.547734	1.493006	-2.261261
H	-1.152414	1.804409	-1.779987
Br	-3.537096	0.0	0.0
