17

C	-0.506144	-0.022375	-1.446831
C	0.0	0.0	0.0
Cl	0.243602	-1.467075	-2.2994
H	1.090057	0.0	0.0
N	-1.928846	0.023572	-1.559538
H	-2.200946	0.06349	-2.533939
H	-2.309918	-0.809256	-1.127899
C	0.035474	1.152007	-2.144863
N	0.413619	2.103394	-2.720356
N	-0.432715	-1.211617	0.767092
O	0.138966	-1.402454	1.833201
O	-1.354965	-1.915313	0.338405
C	-0.488289	1.21977	0.768989
H	-0.031453	1.204701	1.758837
H	-0.15264	2.123935	0.258996
H	-1.577164	1.236041	0.849267
Cl	3.277675	0.0	0.0
