17

C	-0.304251	0.043983	-1.504193
C	0.0	0.0	0.0
Cl	-2.057578	0.427613	-1.81607
H	1.093567	0.0	0.0
N	0.504215	1.106907	-2.040973
H	1.466823	0.969339	-1.718225
H	0.484636	1.082655	-3.053463
C	-0.082419	-1.239363	-2.197258
N	0.093777	-2.179896	-2.882049
N	-0.490514	-1.269666	0.605905
O	-1.454073	-1.21492	1.375758
O	0.101616	-2.30186	0.295975
C	-0.49859	1.208115	0.757669
H	-0.142663	2.102346	0.246632
H	-1.584171	1.227741	0.830199
H	-0.074145	1.187454	1.762766
Cl	3.260458	0.0	0.0
