17

C	-0.309617	0.074765	-1.50905
C	0.0	0.0	0.0
Cl	-2.065409	0.437403	-1.778529
H	1.093783	0.0	0.0
N	0.468939	1.102748	-2.165949
H	0.220342	2.000826	-1.768623
H	1.450089	0.924348	-1.9343
C	-0.044595	-1.187954	-2.208235
N	0.124053	-2.178365	-2.816015
N	-0.508687	-1.264274	0.604071
O	-1.487654	-1.195517	1.353332
O	0.075814	-2.303987	0.307329
C	-0.467631	1.196909	0.798116
H	-1.551219	1.298023	0.812363
H	-0.010973	2.10276	0.394978
H	-0.108052	1.087903	1.821828
Cl	3.255912	0.0	0.0
