17

C	-0.488834	0.002541	-1.447883
C	0.0	0.0	0.0
Cl	-2.352566	-0.366756	-1.415323
H	1.092758	0.0	0.0
N	-0.224892	1.245202	-2.054128
H	-0.458855	1.244485	-3.037293
H	-0.681217	2.008828	-1.576998
C	0.06117	-1.050651	-2.305955
N	0.45501	-1.791585	-3.127718
N	-0.411245	-1.276344	0.663641
O	-0.886301	-1.223867	1.797296
O	-0.214688	-2.312327	0.034817
C	-0.455828	1.205807	0.792781
H	-1.539564	1.341258	0.770872
H	0.056778	2.089345	0.408643
H	-0.140862	1.081385	1.82649
Cl	3.228726	0.0	0.0
