19

C	-0.019153	-0.002629	0.012701
C	-0.525884	0.259225	-1.468114
Br	2.003945	0.04429	-0.038182
H	0.359311	0.31272	-2.108616
C	-0.450941	1.050961	1.017551
H	-0.161691	2.048727	0.694233
H	-1.542667	0.973905	1.059356
H	-0.016885	0.835411	1.998744
C	-0.404151	-1.373902	0.539591
H	-1.497788	-1.367155	0.572881
H	-0.040502	-2.187429	-0.09166
H	0.000935	-1.516873	1.544884
N	-1.205048	1.548728	-1.510608
H	-1.48677	1.659726	-2.480572
H	-2.073105	1.357725	-0.98981
N	-1.411279	-0.763808	-2.018942
H	-0.977743	-1.678592	-1.958566
H	-2.233695	-0.732294	-1.394371
F	-3.04895	0.051094	-0.04291
