19

C	-0.014747	0.0018	0.013534
C	-0.522982	-0.120277	-1.485454
Br	2.007885	-0.03593	-0.04477
H	0.361936	-0.121231	-2.128533
C	-0.401962	1.315956	0.66867
H	0.00293	1.361985	1.68322
H	-0.036941	2.186243	0.119131
H	-1.495596	1.306293	0.699925
C	-0.443065	-1.143747	0.914031
H	-0.151218	-2.105615	0.497549
H	-1.534662	-1.074659	0.965052
H	-0.007337	-1.020996	1.910438
N	-1.400379	0.95557	-1.940341
H	-0.961406	1.857744	-1.792556
H	-2.224763	0.870942	-1.323474
N	-1.210493	-1.395901	-1.646141
H	-1.493671	-1.413763	-2.62191
H	-2.076941	-1.248938	-1.108116
F	-3.040988	-0.034859	-0.046922
