19

C	-0.031211	-0.006481	-0.040142
C	-0.293896	-0.086823	-1.561288
Br	1.994816	-0.05806	0.16151
H	0.333753	0.699007	-2.017726
C	-0.516037	1.313976	0.522889
H	-0.176696	2.159753	-0.084648
H	-0.156321	1.452508	1.545804
H	-1.613086	1.233609	0.526936
C	-0.611743	-1.167313	0.735167
H	-1.703321	-1.035248	0.668389
H	-0.299139	-2.120418	0.311823
H	-0.312542	-1.106484	1.785862
N	-1.675079	0.179766	-1.917498
H	-1.771138	1.180651	-2.041688
H	-2.335446	-0.037177	-1.130702
N	0.049559	-1.417299	-2.066221
H	1.057046	-1.513894	-2.122895
H	-0.34721	-1.466421	-2.996364
F	-3.23314	0.075853	0.225914
