16

C	-0.331622	-0.048653	-1.478439
C	0.0	0.0	0.0
Cl	-2.121454	0.071842	-1.77124
H	1.108985	0.0	0.0
C	0.300909	1.034677	-2.240472
N	0.798553	1.786106	-2.995323
C	0.173527	-1.372684	-2.044501
H	-0.364658	-2.205469	-1.590544
H	0.031144	-1.392896	-3.125736
H	1.238819	-1.446779	-1.803274
C	-0.461018	-1.163976	0.712338
N	-0.773357	-2.165666	1.247998
N	-0.380774	1.217453	0.684342
O	-0.482929	1.16863	1.917336
O	-0.428545	2.255602	0.011103
H	2.363415	0.0	0.0
