16

C	-0.416641	0.115319	-1.47172
C	0.0	0.0	0.0
Cl	0.429426	1.479182	-2.295666
H	1.108885	0.0	0.0
C	0.048008	-1.098427	-2.158423
N	0.35908	-2.063093	-2.753454
C	-1.920661	0.265999	-1.675128
H	-2.253653	1.178074	-1.181955
H	-2.150121	0.321579	-2.741426
H	-2.427269	-0.601091	-1.242736
C	-0.422749	-1.265951	0.55036
N	-0.753949	-2.323383	0.948344
N	-0.42276	1.067703	0.862874
O	-0.695832	2.177783	0.367263
O	-0.326213	0.852699	2.084661
H	2.31344	0.0	0.0
