16

C	-0.32604	0.071527	-1.478303
C	0.0	0.0	0.0
Cl	-2.113536	0.22734	-1.770472
H	1.108164	0.0	0.0
C	0.318482	1.209337	-2.144156
N	0.828893	2.020106	-2.825428
C	0.174125	-1.205869	-2.146428
H	-0.375681	-2.06648	-1.765666
H	0.040794	-1.137799	-3.227167
H	1.237134	-1.307169	-1.903313
C	-0.465546	-1.214255	0.619201
N	-0.785345	-2.250557	1.077194
N	-0.378831	1.161128	0.77755
O	-0.429867	2.248267	0.186999
O	-0.476434	1.016899	2.003498
H	2.363288	0.0	0.0
