16

C	0.0	0.0	0.0
C	-0.308547	-0.357066	-1.45457
Cl	1.783918	0.0	0.0
H	-0.116541	-1.416464	-1.599271
H	0.369552	0.231972	-2.073537
C	-0.424271	1.371829	0.47528
H	-0.061709	2.111888	-0.241334
H	0.015518	1.565826	1.453819
H	-1.517372	1.330195	0.499975
N	-0.451105	-1.093294	0.948161
O	-0.572322	-0.783072	2.125016
O	-0.543858	-2.228961	0.498042
N	-1.643128	-0.077979	-2.063905
O	-2.275367	-1.047291	-2.469509
O	-1.871821	1.092709	-2.357245
F	-2.529458	0.0	0.0
