16

C	0.0	0.0	0.0
C	-0.632454	-0.209887	-1.357291
Cl	1.773844	0.0	0.0
H	-0.413051	-1.197046	-1.746874
H	-1.750995	-0.085878	-1.082675
C	-0.480639	1.221354	0.750713
H	-0.049638	1.232946	1.750129
H	-0.169913	2.105953	0.200488
H	-1.571645	1.126804	0.769743
N	-0.377375	-1.255332	0.819709
O	-0.446925	-2.323917	0.222362
O	-0.501971	-1.118979	2.028184
N	-0.198643	0.742587	-2.389748
O	-0.067264	0.291312	-3.532312
O	-0.039546	1.931149	-2.106576
F	-2.843472	0.0	0.0
