16

C	0.0	0.0	0.0
C	-0.652858	-0.382832	-1.305736
Cl	1.783719	0.0	0.0
H	-0.448895	-1.412932	-1.576146
H	-1.776994	-0.23366	-1.018071
C	-0.478657	1.307567	0.589258
H	-0.171124	2.112832	-0.07335
H	-0.043999	1.451524	1.576778
H	-1.569023	1.217044	0.627981
N	-0.363857	-1.139815	0.978482
O	-0.504108	-0.847041	2.157381
O	-0.409387	-2.279393	0.527632
N	-0.278143	0.434633	-2.46546
O	-0.437909	-0.094496	-3.569518
O	0.118498	1.592497	-2.316327
F	-2.859013	0.0	0.0
