19

C	0.0	0.0	0.0
C	-0.327663	-0.065726	-1.547996
Br	1.979138	0.0	0.0
H	0.610191	0.206362	-2.03757
C	-0.507137	1.211437	0.623569
N	-0.541058	2.267636	1.162141
C	-0.25231	-1.247223	0.883606
H	0.174535	-1.052672	1.871434
H	-1.316759	-1.430712	0.968624
H	0.263423	-2.111456	0.462589
C	-1.346946	0.920168	-2.123861
H	-1.112019	1.065438	-3.189426
H	-1.293338	1.888083	-1.623695
H	-2.360286	0.551083	-2.012817
C	-0.65933	-1.48319	-1.998359
H	0.150127	-2.184602	-1.77501
H	-0.816193	-1.491276	-3.081547
H	-1.579257	-1.812004	-1.509455
H	-2.230476	0.0	0.0
