19

C	0.0	0.0	0.0
C	-0.328933	0.030259	-1.544286
Br	1.978223	0.0	0.0
H	0.602746	-0.290875	-2.020775
C	-0.562123	1.106193	0.755234
N	-0.585895	2.085998	1.427438
C	-0.245466	-1.365452	0.686094
H	0.200324	-1.347083	1.684811
H	-1.313307	-1.55093	0.75439
H	0.248111	-2.15236	0.108823
C	-0.591346	1.456863	-2.012237
H	-1.528826	1.811351	-1.579338
H	0.213898	2.130134	-1.703556
H	-0.666111	1.482479	-3.105983
C	-1.383546	-0.927789	-2.109499
H	-2.388946	-0.53283	-1.986189
H	-1.351769	-1.905246	-1.622414
H	-1.162524	-1.080009	-3.178457
H	-2.221654	0.0	0.0
