16

C	0.0	0.0	0.0
C	-0.712348	-0.158398	-1.333262
F	1.347931	0.0	0.0
H	-1.686763	0.32249	-1.182461
N	-0.297318	1.458239	0.532408
O	-1.446016	1.85652	0.466946
O	0.670219	2.065904	0.974431
C	-0.457877	-0.930324	1.037302
N	-0.695236	-1.70817	1.885882
N	-0.861676	-1.591566	-1.611684
H	-1.193346	-1.661282	-2.568127
H	-1.645483	-1.915735	-1.043049
N	0.052648	0.560469	-2.320032
H	0.827747	-0.01459	-2.630595
H	-0.53631	0.785019	-3.109575
Cl	-3.974465	0.0	0.0
