14
Coordinates from ORCA-job run
  C   -0.72983523484547     -0.00201994368169     -0.31003130734696
  C   0.47269958854630     -0.36464945644747      0.55621180590044
  Cl  -0.98760602276947     -1.19131325452613     -1.59561444717680
  H   0.29346146664533     -1.37480231043695      0.93274294184008
  H   0.46044648936288      0.32194604739670      1.41034592134237
  C   -0.60790128481762      1.32653876528202     -0.89700222912379
  N   -0.42265731390592      2.38041208198606     -1.38307544026147
  N   -1.96217034535004     -0.02126936117884      0.61658447057713
  O   -2.44254755422902      1.06593459168281      0.90981077676746
  O   -2.29758662756764     -1.11822082184602      1.03242048374445
  C   1.79942911937226     -0.27091696316460     -0.18434668596449
  H   1.82575496572983     -0.94726604227058     -1.03934977116815
  H   2.61147563696457     -0.54894734721432      0.48981702419499
  H   1.98803711686400      0.74457401441902     -0.53751354332525
