14
Coordinates from ORCA-job run
  C   -0.75544328635005     -0.00174862736711     -0.48205500093281
  C   0.76164201450664      0.19428470667404     -0.45107815105603
  Cl  -1.20293538615906     -1.60087462295546     -1.06874821024260
  H   0.93884125676144      1.25029731762510     -0.22940162287175
  H   1.12221011127021      0.00075474796196     -1.46466611325512
  C   -1.41031350030547      1.01586341846842     -1.29624347122410
  N   -1.89782422338035      1.83219927522503     -1.98677441965396
  N   -1.24828957592749      0.18827870686171      0.97127335197785
  O   -1.18223126609944      1.34810176206568      1.35860145080968
  O   -1.57105513679902     -0.79370962837723      1.61539204024043
  C   1.46715185551006     -0.69397972650195      0.56578296476929
  H   1.22771352182211     -1.74760721766784      0.41843108224562
  H   1.20284885282403     -0.41869889432992      1.58851464536963
  H   2.54668476232639     -0.57316121768243      0.46097145382385
