14
Coordinates from ORCA-job run
  C   -0.82388921387591     -0.03389801479323     -0.50905931584072
  C   0.52987030240918     -0.72786160271400     -0.43563539647424
  Cl  -1.95361827361243     -0.95518623000892     -1.51334942411468
  H   0.34139223275955     -1.75286975095390     -0.10782675948334
  H   0.92334770157442     -0.76856228744596     -1.45480814715653
  C   -0.72197866494955      1.32881300963336     -1.01666179859400
  N   -0.57611996192820      2.39909948702783     -1.47965107915094
  N   -1.38703339578377      0.01318988819404      0.92333488012358
  O   -1.59810122704906     -1.07213826034313      1.44091262908552
  O   -1.50887334951311      1.11806961871067      1.43650678123948
  C   1.50014288825096     -0.01635022368241      0.50091031705375
  H   1.65110350510250      1.02575607824367      0.21183332269977
  H   2.46904346436263     -0.51751725228842      0.46786107191479
  H   1.15271399225281     -0.04154445957958      1.53563291869757
