14
Coordinates from ORCA-job run
  C   -0.74484387933374      0.00342123796490     -0.49853881640106
  C   0.76987214196014      0.20783542827378     -0.43038081935909
  Cl  -1.16979928219844     -1.58565553267513     -1.12726098546212
  H   0.93518771654733      1.26017905512052     -0.18373902917115
  H   1.15417590307002      0.03703967903690     -1.43931761733705
  C   -1.38808587602115      1.03403376158105     -1.30580890250476
  N   -1.86604959998113      1.86110379278667     -1.99022208951806
  N   -1.26978652500565      0.16111828557358      0.94735729921232
  O   -1.60153068857121     -0.83531521596924      1.56417671071665
  O   -1.21737512481015      1.31295746216355      1.35970586062742
  C   1.45880785676062     -0.69649177391765      0.58362894301580
  H   1.22987400647426     -1.74838787054325      0.40951016139257
  H   1.16996985412472     -0.44400735225991      1.60555833593173
  H   2.53958349698437     -0.56683095713576      0.50533094885681
