14
Coordinates from ORCA-job run
  C   -0.73194047615897      0.05092116624354     -0.30033815861036
  C   0.46782544898368     -0.43554021554238      0.50704988737356
  Cl  -1.03049042729792     -0.97985155593240     -1.70798604236722
  H   0.26487883679940     -1.47588121549757      0.77316803684598
  H   0.48161668616961      0.15400945941032      1.43090078755244
  C   -0.58086672221357      1.43354096209973     -0.73598982241189
  N   -0.37366819944349      2.53075113472371     -1.10266509816841
  N   -1.95665655330907     -0.04181577054648      0.63207305891798
  O   -2.40340136453431      1.01681776208124      1.05453675854880
  O   -2.31931972141956     -1.16981954962935      0.92331771959521
  C   1.79010759271194     -0.29443857504141     -0.23414807777922
  H   2.60086979337020     -0.66589523063298      0.39513134442956
  H   1.79079920213446     -0.87182788644218     -1.15928417091890
  H   2.00224590420761      0.74902951470622     -0.47476622300753
