17

C	-0.547562	-0.097566	-1.565533
C	0.177637	-0.050151	-0.225479
F	-0.419974	-1.395263	-2.097162
H	1.252353	-0.202773	-0.442287
C	-1.992874	0.140713	-1.382121
N	-3.141612	0.364154	-1.288708
C	0.02684	0.876456	-2.572386
H	-0.505039	0.801519	-3.523526
H	-0.042951	1.884516	-2.168215
H	1.0796	0.629928	-2.726249
N	-0.351941	-1.063921	0.674974
H	-0.162037	-1.981315	0.279536
H	0.265061	-0.959416	1.493719
N	0.061451	1.272532	0.348118
H	0.773786	1.23835	1.101754
H	-0.835152	1.287896	0.831347
H	1.854562	0.124487	2.150907
