17

C	-0.552713	-0.140906	-1.581245
C	0.190814	0.042354	-0.252869
F	-1.911419	-0.349558	-1.331404
H	1.258673	0.061737	-0.484062
C	-0.456681	1.083489	-2.402962
N	-0.343232	2.035814	-3.080787
C	-0.038608	-1.33759	-2.35771
H	0.990416	-1.167589	-2.681147
H	-0.065263	-2.191137	-1.681534
H	-0.667507	-1.514916	-3.232936
N	-0.024473	-1.127052	0.570503
H	0.646985	-0.972189	1.345838
H	-0.948816	-1.004893	0.977302
N	-0.246778	1.250258	0.437777
H	0.324231	1.212075	1.298238
H	0.079067	2.067922	-0.074717
H	1.731035	0.236339	2.260186
