17

C	-0.550769	-0.01425	-1.502306
C	0.238015	0.02327	-0.196851
F	-1.910886	-0.204953	-1.180291
H	1.296182	0.184794	-0.452041
C	-0.467723	1.279446	-2.208167
N	-0.3959	2.248396	-2.867169
C	-0.138686	-1.143288	-2.424028
H	0.888989	-0.98921	-2.760106
H	-0.186029	-2.070332	-1.855568
H	-0.800032	-1.17949	-3.292635
N	0.168193	-1.277481	0.454251
H	-0.764882	-1.35957	0.851701
H	0.808728	-1.144502	1.262141
N	-0.171051	1.179806	0.585174
H	0.455671	1.130666	1.402223
H	-1.109378	0.996499	0.930878
H	1.778392	-0.033681	2.3577
