15

C	-0.307844	0.035918	-1.50192
C	0.0	0.0	0.0
F	-0.033374	-1.271647	-1.978902
H	1.103819	0.0	0.0
C	-1.736189	0.255685	-1.813236
N	-2.865021	0.426899	-2.085719
N	0.501034	1.016705	-2.097393
H	1.46869	0.905378	-1.79365
H	0.430744	1.006433	-3.106063
N	-0.614834	-1.174676	0.616131
H	-0.128503	-1.980442	0.238769
H	-0.397955	-1.147105	1.606709
C	-0.486632	1.220586	0.638226
N	-0.860021	2.192187	1.181668
Cl	3.313581	0.0	0.0
