15

C	-0.304084	-0.159697	-1.493949
C	0.0	0.0	0.0
F	-1.628813	-0.532305	-1.699079
H	1.104472	0.0	0.0
C	-0.142864	1.121552	-2.227639
N	0.027776	2.112039	-2.836221
N	0.531708	-1.213273	-1.979531
H	0.515193	-1.247625	-2.990757
H	1.490245	-1.06361	-1.658945
N	-0.518462	-1.168259	0.731646
H	-0.449392	-1.959523	0.098386
H	0.147357	-1.348976	1.477183
C	-0.562641	1.231298	0.549363
N	-1.006635	2.220422	1.000568
Cl	3.279031	0.0	0.0
