15

C	-0.302685	-0.072844	-1.511879
C	0.0	0.0	0.0
F	-1.628601	-0.488712	-1.707815
H	1.097521	0.0	0.0
C	-0.226283	1.253262	-2.172091
N	-0.148917	2.280129	-2.738075
N	0.563711	-1.053159	-2.075541
H	1.512939	-0.918323	-1.721391
H	0.569833	-0.996766	-3.086019
N	-0.433889	-1.190324	0.712302
H	-1.293965	-1.536381	0.303813
H	0.280911	-1.897777	0.599715
C	-0.573452	1.200287	0.606772
N	-1.064888	2.148156	1.095961
Cl	3.26196	0.0	0.0
