16

C	0.0	0.0	0.0
C	-0.086729	0.119467	-1.576943
Cl	1.935073	0.0	0.0
H	0.604143	0.908771	-1.866526
N	-0.450854	1.104744	0.739109
H	-1.47871	1.0826	0.700311
H	-0.102547	1.978814	0.369145
N	-0.511831	-1.195693	0.484588
H	-1.003584	-1.740816	-0.209189
H	-1.130617	-1.026395	1.265018
N	-1.397608	0.612057	-2.161105
O	-1.59589	1.810309	-1.993072
O	-2.081058	-0.164153	-2.810815
C	0.295544	-1.121242	-2.240589
N	0.605786	-2.120666	-2.773878
Cl	-3.493682	0.0	0.0
