16

C	0.0	0.0	0.0
C	-0.507254	0.043479	-1.45819
Cl	1.79702	0.0	0.0
H	-1.606394	0.033332	-1.386189
N	-0.441812	1.241675	0.586778
H	-0.109571	1.287793	1.543664
H	-1.464489	1.19276	0.606362
N	-0.427315	-1.250711	0.568073
H	-1.450543	-1.246753	0.545234
H	-0.129054	-1.286055	1.536381
N	-0.115911	-1.19416	-2.21871
O	0.958458	-1.180958	-2.816704
O	-0.906988	-2.12907	-2.181823
C	-0.03922	1.219967	-2.17535
N	0.300477	2.152049	-2.803124
Cl	-3.49908	0.0	0.0
