16

C	0.0	0.0	0.0
C	-0.203065	0.154896	-1.562152
Cl	1.832269	0.0	0.0
H	0.338726	-0.682118	-2.001829
N	-0.462434	1.009681	0.877821
H	-0.209002	1.928701	0.53673
H	-1.484229	0.929223	0.889846
N	-0.480308	-1.307458	0.314435
H	-1.50285	-1.249839	0.219758
H	-0.286481	-1.461828	1.299724
N	0.510824	1.382922	-2.087498
O	0.239484	2.463227	-1.571218
O	1.290963	1.212997	-3.018496
C	-1.514581	0.208808	-2.213349
N	-2.30828	0.266969	-3.081411
Cl	-3.451947	0.0	0.0
