12
Coordinates from ORCA-job run
  C   0.73941636854720      0.50906410784864     -0.20592323313827
  C   -0.64643716434220      0.08118548892291     -0.64355849096908
  Br  1.09443276101003      2.36149087638219     -0.62716397613002
  H   -1.37298791956851      0.73523573888248     -0.15944423034943
  H   1.52797571704942     -0.09719500166905     -0.64495912649754
  H   -0.72525256053717      0.23360567774321     -1.72390007392060
  N   0.87137311687812      0.32408253536296      1.28162284505991
  O   -0.08694952041491      0.65139096616013      1.97259966700146
  O   1.93405999352750     -0.13692039231589      1.68243747987346
  N   -0.81288133713233     -1.31024849127812     -0.24800862249045
  H   -0.91489252173118     -1.92044783731835     -1.04491332904991
  H   -1.60785693328596     -1.43024366872109      0.36121109061047
