12
Coordinates from ORCA-job run
  C   0.62247683462277      0.64320736700025     -0.21302620291911
  C   -0.79280045430553      0.17020181679259     -0.46122341523887
  Br  0.73139230935319      2.56764266017366     -0.07262234789234
  H   -1.09974688698434      0.57324985728881     -1.42908196385707
  H   1.30908510457921      0.31640467822455     -0.99014304475530
  H   -1.45185707870978      0.58849758009408      0.30522429364058
  N   1.15239297567091      0.05351956344234      1.06734355008594
  O   2.35747050993683     -0.16199064843778      1.11377785158602
  O   0.34163849755369     -0.15570019204155      1.96602779352167
  N   -0.76180993968654     -1.28515124661976     -0.51158421541466
  H   -1.43829272253949     -1.64025475684948     -1.17191223055032
  H   -0.97094914949092     -1.67062667906772      0.39921993179345
