12
Coordinates from ORCA-job run
  C   0.75925637540408      0.46223067850901     -0.23966688043752
  C   -0.61149577091585      0.02195871913148     -0.70413597704675
  Br  1.16610857365241      2.27018982433561     -0.78754914364942
  H   -1.35511529571115      0.75473890121151     -0.37734134814798
  H   1.54801802260954     -0.19230819486900     -0.60236198560838
  H   -0.59407052415891      0.02077103527167     -1.79644860868594
  N   0.84448335356739      0.40174755479712      1.26255365007013
  O   -0.18599659181161      0.62668081584821      1.89205943778525
  O   1.94275492659224      0.14192505548120      1.73920295732110
  N   -0.82584031817043     -1.32945955259149     -0.20523811062325
  H   -1.36861742326217     -1.87610031922929     -0.85811943170109
  H   -1.31848532779554     -1.30237451789604      0.67704544072385
