14

C	0.0	0.0	0.0
C	-0.57735	0.048351	-1.402643
Br	1.947126	0.0	0.0
H	-1.708812	0.161405	-1.038042
H	-0.331199	0.877921	0.552648
C	-0.424303	-1.223323	0.6843
N	-0.57079	-2.263676	1.216466
N	-0.41839	-1.09694	-2.221418
H	0.501935	-1.517288	-2.144635
H	-1.127099	-1.774595	-1.971479
N	-0.112095	1.281403	-2.049924
O	-0.173393	2.31077	-1.358101
O	0.266668	1.259515	-3.226001
H	-2.677285	0.0	0.0
