14

C	0.0	0.0	0.0
C	-0.573551	0.053915	-1.407711
Br	1.946988	0.0	0.0
H	-1.699034	0.172708	-1.055878
H	-0.326482	0.88228	0.549043
C	-0.436226	-1.217796	0.683901
N	-0.559277	-2.259381	1.216643
N	-0.41985	-1.090579	-2.229969
H	-1.130839	-1.765774	-1.978187
H	0.499242	-1.509487	-2.149476
N	-0.106752	1.290014	-2.051536
O	-0.158945	2.316183	-1.355839
O	0.264125	1.272303	-3.228988
H	-2.682789	0.0	0.0
