17

C	-0.548125	0.054296	-1.434051
C	0.0	0.0	0.0
Cl	-0.01495	-1.501448	-2.273533
H	1.08928	0.0	0.0
N	-1.965612	0.207449	-1.420545
H	-2.33576	0.254248	-2.361805
H	-2.397451	-0.565312	-0.929922
C	0.017985	1.118723	-2.272444
N	0.360873	1.919148	-3.060207
C	-0.47424	-1.186961	0.81491
H	-1.557293	-1.216762	0.951108
H	-0.020691	-1.118685	1.802898
H	-0.123974	-2.106123	0.349322
N	-0.423814	1.282014	0.663107
O	-1.099237	1.218314	1.689956
O	-0.053758	2.325698	0.134097
Cl	3.25411	0.0	0.0
