17

C	-0.304469	0.101057	-1.50535
C	0.0	0.0	0.0
Cl	-2.066749	0.481791	-1.802198
H	1.093278	0.0	0.0
N	0.504454	1.117494	-2.094969
H	1.435229	1.09638	-1.677238
H	0.566974	0.9971	-3.09749
C	-0.111154	-1.229985	-2.117511
N	0.105846	-2.262158	-2.63926
C	-0.579766	-1.208251	0.690725
H	-0.364989	-1.148425	1.75794
H	-0.098909	-2.106083	0.300569
H	-1.659846	-1.27293	0.55703
N	-0.444638	1.264851	0.663624
O	-1.474077	1.222766	1.34147
O	0.24273	2.266867	0.488678
Cl	3.270017	0.0	0.0
