17

C	-0.536213	0.035003	-1.4393
C	0.0	0.0	0.0
Cl	0.03378	-1.514172	-2.262924
H	1.089767	0.0	0.0
N	-1.955474	0.166836	-1.444024
H	-2.314074	0.196226	-2.390387
H	-2.382878	-0.603952	-0.946952
C	0.018213	1.108101	-2.273991
N	0.339499	1.913253	-3.065431
C	-0.468546	-1.183645	0.822657
H	-1.553694	-1.245983	0.924913
H	-0.048216	-1.084421	1.823165
H	-0.074872	-2.099628	0.385533
N	-0.445756	1.284357	0.639716
O	-1.219233	1.228241	1.597676
O	-0.008766	2.321903	0.152567
Cl	3.260371	0.0	0.0
