17

C	-0.513868	0.011128	-1.445668
C	0.0	0.0	0.0
Cl	0.172491	-1.435595	-2.265361
H	1.090308	0.0	0.0
N	-1.958054	-0.108732	-1.514555
H	-2.234112	-0.189469	-2.487229
H	-2.343436	0.753804	-1.143377
C	-0.001823	1.167388	-2.207255
N	0.315433	2.091374	-2.861089
C	-0.495497	-1.178081	0.82309
H	-0.027954	-1.12439	1.805356
H	-0.181651	-2.105569	0.347563
H	-1.582725	-1.174618	0.917288
N	-0.422075	1.254276	0.706122
O	-0.034439	1.390768	1.859508
O	-1.141515	2.068907	0.113967
Cl	3.258611	0.0	0.0
