17

C	-0.350492	-0.057379	-1.493147
C	0.0	0.0	0.0
Cl	-0.060803	1.614811	-2.227898
H	1.092316	0.0	0.0
N	0.486579	-1.054498	-2.050654
H	1.45693	-0.883569	-1.784217
H	0.39588	-1.096008	-3.056126
C	-1.758137	-0.360523	-1.779202
N	-2.867981	-0.642406	-2.040568
C	-0.525858	-1.200475	0.76618
H	-0.154287	-1.15026	1.792159
H	-0.142164	-2.109879	0.305939
H	-1.617755	-1.220004	0.773668
N	-0.53924	1.227746	0.640551
O	0.22537	1.924761	1.297934
O	-1.748104	1.428052	0.505678
Cl	3.316374	0.0	0.0
