17
Coordinates from ORCA-job run
  C   0.70250667996147      0.46088795264999     -0.19070687586999
  C   -0.31405138058433     -0.56895783004408      0.31621436124433
  Br  -0.39478408040274      2.27832291690109     -0.40766401123197
  H   0.30103984420662     -1.47276859906314      0.41151716679921
  N   1.21877439459473      0.12978591477817     -1.48208044592157
  H   2.22953674369880      0.15518458203303     -1.47077987470776
  H   0.85281399445494      0.70858633349591     -2.22175194914259
  N   1.71881316950029      0.61675083926775      0.75268030246451
  H   2.29790898825816      1.42755855998302      0.58071205090233
  H   1.31443360351499      0.63222718799632      1.68289309509217
  C   -1.44084063413537     -0.86424662537586     -0.66380106703670
  H   -2.02694861355955     -1.71327658416132     -0.30186091564944
  H   -2.10707001128576     -0.00640602533713     -0.76741700707955
  H   -1.03698551374752     -1.11808781661062     -1.64618248546903
  N   -0.73293743630135     -0.19009865739190      1.66481630355571
  H   -1.45763802848356      0.51786014076265      1.60624494266226
  H   -1.12457171968982     -0.99532228988388      2.13716640938809
