17
Coordinates from ORCA-job run
  C   0.75673519467175      0.36544788134487     -0.25945606436672
  C   -0.26945918321966     -0.73052797867232      0.05406687884169
  Br  1.17934491777749      0.06215122152008     -2.36017452871128
  H   0.10806983810380     -1.65489612568574     -0.39234720760674
  N   1.94416101340820      0.21096165612219      0.46352366880829
  H   2.74956842732003      0.60263082152138     -0.00303570655226
  H   2.10207009506001     -0.74453061949589      0.74727330727940
  N   0.23369956228684      1.66492133152403     -0.10686569568623
  H   -0.40851561551147      1.91345164376557     -0.84681465253269
  H   0.96944215364209      2.35634654604377     -0.03992696169939
  C   -1.64882811419674     -0.42544308556407     -0.52048886072459
  H   -2.07573186104322      0.45437254954038     -0.03295445110219
  H   -1.61831365814051     -0.26615773713142     -1.60030271540396
  H   -2.31511368892836     -1.27004477804068     -0.32616383312505
  N   -0.25304868424339     -0.91800319831142      1.50837068163808
  H   -0.48267470408122     -0.03530461065151      1.95354055836338
  H   -0.97140569290564     -1.58737551782921      1.76175558258028
