15

C	-0.506133	-0.054904	-1.42422
C	0.0	0.0	0.0
Br	-2.39511	0.328728	-1.547214
H	1.096339	0.0	0.0
H	-0.321539	0.966036	0.393978
N	0.239074	0.981818	-2.265719
O	0.148634	2.131146	-1.862182
O	0.86753	0.583314	-3.236111
N	-0.237034	-1.405215	-2.079081
O	0.649629	-2.072489	-1.562811
O	-0.879746	-1.691204	-3.079796
N	-0.578364	-1.106054	0.75703
H	0.152557	-1.7935	0.89558
H	-0.860361	-0.773671	1.668528
Cl	3.383867	0.0	0.0
