15

C	-0.490132	0.087078	-1.430035
C	0.0	0.0	0.0
Br	-0.069317	1.784921	-2.210101
H	1.099252	0.0	0.0
H	-0.342538	0.917308	0.48247
N	0.059828	-1.024575	-2.319889
O	-0.038233	-0.878484	-3.530272
O	0.506286	-2.004702	-1.736879
N	-2.008258	-0.112361	-1.435609
O	-2.650085	0.73798	-0.8385
O	-2.448571	-1.118324	-1.973841
N	-0.614864	-1.151651	0.658582
H	-0.723729	-0.93599	1.640903
H	0.025415	-1.931873	0.58578
Cl	3.402017	0.0	0.0
