15

C	-0.492057	-0.01956	-1.43143
C	0.0	0.0	0.0
Br	-2.413565	-0.123978	-1.543833
H	1.094699	0.0	0.0
H	-0.343388	-0.935373	0.447933
N	-0.048048	1.202051	-2.227417
O	-0.512771	1.319779	-3.354749
O	0.767646	1.935999	-1.687942
N	0.114222	-1.233601	-2.136749
O	-0.314448	-2.318795	-1.772665
O	1.011432	-1.025868	-2.940837
N	-0.545352	1.163974	0.692318
H	0.218981	1.808775	0.833808
H	-0.881481	0.886291	1.602599
Cl	3.37088	0.0	0.0
