18

C	-0.475777	-0.07145	-1.450673
C	0.0	0.0	0.0
Cl	-0.176393	1.523982	-2.269425
H	1.094784	0.0	0.0
H	-0.297746	-0.957365	0.452128
C	0.349514	-1.107869	-2.196136
H	0.073696	-1.142682	-3.253855
H	1.412042	-0.879041	-2.09581
H	0.17168	-2.093078	-1.752804
C	-1.967375	-0.343874	-1.575478
H	-2.200449	-1.300918	-1.097217
H	-2.261717	-0.39767	-2.626661
H	-2.557371	0.43903	-1.096523
C	-0.535468	1.145909	0.846879
H	-0.210773	2.106976	0.447257
H	-1.628332	1.149373	0.914758
H	-0.135648	1.059372	1.860053
Br	3.760774	0.0	0.0
