18

C	-0.38358	0.01166	-1.471319
C	0.0	0.0	0.0
Cl	-2.204491	-0.191189	-1.630484
H	1.097647	0.0	0.0
H	-0.328971	-0.951517	0.43216
C	-0.013905	1.317926	-2.151564
H	1.058698	1.48473	-2.008234
H	-0.233529	1.268731	-3.221342
H	-0.565192	2.158569	-1.727825
C	0.262047	-1.16837	-2.176857
H	1.34816	-1.075072	-2.075876
H	-0.013574	-1.191621	-3.234898
H	-0.048558	-2.108052	-1.71398
C	-0.508984	1.163928	0.839079
H	-0.051788	2.105604	0.528506
H	-0.23048	1.006317	1.884104
H	-1.596764	1.26469	0.783958
Br	3.687243	0.0	0.0
