14

C	0.0	0.0	0.0
C	-0.490881	-0.406558	-1.412945
F	1.378289	0.0	0.0
H	-1.260568	-1.166209	-1.282801
H	-0.365659	0.989988	0.253409
C	-0.417948	-0.976124	1.021397
N	-0.551231	-1.812211	1.834542
N	0.606622	-0.991967	-2.172502
H	1.268983	-0.256468	-2.391561
H	0.222317	-1.326464	-3.04924
N	-1.060504	0.809808	-2.003256
H	-1.41553	0.555923	-2.922595
H	-1.887213	0.892972	-1.382765
F	-2.54641	0.0	0.0
