14

C	0.0	0.0	0.0
C	-0.473125	0.360231	-1.454036
F	1.383664	0.0	0.0
H	-1.157083	1.202982	-1.336034
H	-0.349163	0.754642	0.700678
C	-0.423691	-1.320458	0.487536
N	-0.537558	-2.392281	0.954053
N	-1.128311	-0.793136	-2.03832
H	-1.437119	-0.506051	-2.962139
H	-1.95808	-0.849392	-1.423561
N	0.615708	0.762979	-2.340084
H	1.26567	-0.01467	-2.386863
H	1.118013	1.536576	-1.918164
F	-2.513396	0.0	0.0
