14

C	0.0	0.0	0.0
C	-0.440361	0.139188	-1.494789
F	1.377247	0.0	0.0
H	0.509451	0.150198	-2.044114
H	-0.367224	0.833424	0.592288
C	-0.422505	-1.272558	0.604971
N	-0.568242	-2.330899	1.091653
N	-1.09584	1.432333	-1.61889
H	-1.930413	1.269445	-1.033914
H	-1.419183	1.484439	-2.580675
N	-1.269516	-0.929774	-2.035896
H	-0.790513	-1.819077	-1.927757
H	-2.073805	-0.911617	-1.388439
F	-2.626779	0.0	0.0
