14

C	0.0	0.0	0.0
C	-0.236222	-0.212965	-1.54444
F	1.388129	0.0	0.0
H	0.555329	-0.942041	-1.789999
H	-0.409043	0.940227	0.351387
C	-0.449172	-1.14052	0.804115
N	-0.595504	-2.117922	1.43868
N	0.041112	1.096836	-2.152401
H	-0.258195	1.011833	-3.116179
H	1.039353	1.272447	-2.133291
N	-1.479282	-0.700083	-2.061086
H	-1.478554	-1.707424	-1.94633
H	-2.194146	-0.348022	-1.355884
F	-2.628077	0.0	0.0
