18

C	-0.458246	0.113588	-1.454312
C	0.0	0.0	0.0
F	-0.071353	-1.107015	-2.085328
H	1.100933	0.0	0.0
N	-1.879921	0.240282	-1.490522
H	-2.252256	-0.524888	-0.934977
H	-2.209704	0.159615	-2.444711
C	0.24981	1.2117	-2.210297
H	-0.014897	2.187297	-1.801233
H	1.328139	1.063879	-2.124615
H	-0.037586	1.180127	-3.265559
N	-0.597946	-1.22224	0.552743
H	-0.063689	-2.010219	0.202396
H	-0.447819	-1.168831	1.553244
N	-0.433098	1.126134	0.811865
H	0.299814	1.821839	0.827558
H	-1.275647	1.527482	0.420798
Br	3.701889	0.0	0.0
