18

C	-0.485949	-0.02192	-1.44782
C	0.0	0.0	0.0
F	-1.843599	-0.506654	-1.430742
H	1.098796	0.0	0.0
N	-0.471386	1.291971	-1.984804
H	-1.088143	1.863269	-1.418859
H	-0.799973	1.279956	-2.942856
C	0.311917	-0.989755	-2.284902
H	-0.072661	-1.00832	-3.309086
H	0.22554	-1.983954	-1.85046
H	1.360374	-0.691835	-2.280816
N	-0.435175	-1.212468	0.651748
H	0.078365	-1.339404	1.512976
H	-1.428284	-1.163604	0.837894
N	-0.503477	1.230972	0.663693
H	0.204475	1.945364	0.521084
H	-0.5062	1.042805	1.660268
Br	3.697366	0.0	0.0
