18

C	-0.439441	0.004504	-1.46458
C	0.0	0.0	0.0
F	-0.129178	1.279075	-1.972981
H	1.102369	0.0	0.0
N	0.315288	-0.940466	-2.252245
H	0.164962	-1.84647	-1.818673
H	1.301368	-0.727057	-2.099341
C	-1.926774	-0.195662	-1.653049
H	-2.157555	-0.085053	-2.713638
H	-2.216981	-1.194827	-1.32446
H	-2.476817	0.545665	-1.070771
N	-0.42151	-1.261675	0.601446
H	0.277053	-1.549951	1.277464
H	-1.293585	-1.09378	1.094635
N	-0.567956	1.149786	0.714498
H	-0.023112	1.263081	1.564477
H	-0.372371	1.972415	0.152507
Br	3.640923	0.0	0.0
