18

C	-0.364117	-0.012723	-1.485335
C	0.0	0.0	0.0
F	-1.784664	-0.104409	-1.549663
H	1.096273	0.0	0.0
N	0.014576	1.196556	-2.15788
H	1.004333	1.131204	-2.373831
H	-0.08502	1.941077	-1.472757
C	0.204122	-1.213026	-2.208692
H	-0.23233	-2.136034	-1.826327
H	1.287068	-1.247219	-2.061317
H	-0.026037	-1.127311	-3.272712
N	-0.461903	-1.179919	0.733792
H	-1.275975	-1.572108	0.275556
H	0.271838	-1.877228	0.744002
N	-0.476166	1.249065	0.586534
H	-1.446222	1.114182	0.85191
H	0.046934	1.393587	1.442184
Br	3.612456	0.0	0.0
