18

C	-0.529258	-0.023406	-1.434853
C	0.0	0.0	0.0
F	-0.270434	-1.312849	-1.934414
H	1.099656	0.0	0.0
N	-1.962531	0.149801	-1.521831
H	-2.37309	-0.421216	-0.786903
H	-2.156657	1.116849	-1.287505
C	0.202881	0.964122	-2.307475
H	0.060494	1.974309	-1.922161
H	-0.180912	0.895467	-3.3275
H	1.269431	0.734549	-2.285436
N	-0.56191	-1.152736	0.720631
H	-0.317888	-1.982944	0.189847
H	-0.05423	-1.225287	1.597216
N	-0.429735	1.249741	0.624085
H	-1.251681	1.05199	1.184655
H	0.306604	1.577352	1.237709
Br	3.669379	0.0	0.0
