17

C	0.0	0.0	0.0
C	-0.542722	-0.115926	-1.469391
Br	1.960464	0.0	0.0
H	0.32218	-0.167582	-2.13782
C	-0.471029	1.232939	0.765218
H	-0.196409	2.133918	0.219561
H	-1.559103	1.130948	0.824988
H	-0.025001	1.238932	1.7631
C	-0.334487	-1.183479	0.804094
N	-0.49366	-2.091391	1.533304
N	-1.289473	1.099702	-1.785011
H	-2.154167	0.971116	-1.228774
H	-1.541631	1.039532	-2.767516
N	-1.275054	-1.372549	-1.571697
H	-1.563849	-1.477885	-2.540043
H	-2.122765	-1.185007	-1.007415
F	-2.963688	0.0	0.0
