17

C	0.0	0.0	0.0
C	-0.335517	0.067563	-1.55419
Br	1.977277	0.0	0.0
H	0.39763	-0.60732	-2.018766
C	-0.634344	1.090266	0.824693
H	-1.72159	0.912849	0.697439
H	-0.351562	2.061492	0.424483
H	-0.348072	1.002326	1.875328
C	-0.364853	-1.331383	0.489865
N	-0.587545	-2.421618	0.868538
N	-0.14225	1.455685	-1.977986
H	0.838932	1.633538	-2.157725
H	-0.659816	1.534199	-2.845723
N	-1.64386	-0.350581	-1.944062
H	-1.648053	-1.36148	-2.006953
H	-2.375908	-0.111845	-1.197318
F	-3.209168	0.0	0.0
