15

C	0.0	0.0	0.0
C	-0.408782	0.213613	-1.483872
Cl	1.782884	0.0	0.0
H	0.281746	0.980336	-1.856536
H	-0.27452	0.902667	0.557931
N	-0.545814	-1.219581	0.538197
H	-0.2987	-1.304942	1.51653
H	-1.563851	-1.137237	0.494827
N	-1.738591	0.726001	-1.720114
H	-2.486396	0.176213	-1.296079
H	-1.836355	1.655568	-1.32673
N	-0.167689	-1.022476	-2.211724
H	-0.436773	-1.800675	-1.621766
H	-0.781296	-1.002141	-3.017281
Cl	-4.332986	0.0	0.0
