15

C	0.0	0.0	0.0
C	-0.450767	-0.15485	-1.496909
Cl	1.794295	0.0	0.0
H	0.460619	-0.226893	-2.09544
H	-0.270841	1.002239	0.340963
N	-0.495287	-1.071877	0.825438
H	-1.513031	-1.025921	0.746299
H	-0.269382	-0.864849	1.792666
N	-1.125742	1.072837	-1.881496
H	-1.360531	0.979471	-2.864851
H	-2.015061	1.094865	-1.381481
N	-1.240987	-1.34242	-1.801963
H	-2.168067	-1.20003	-1.407906
H	-0.828692	-2.142314	-1.332515
Cl	-3.738185	0.0	0.0
