15

C	0.0	0.0	0.0
C	-0.478898	0.090299	-1.492311
Cl	1.781785	0.0	0.0
H	0.423119	0.142168	-2.107263
H	-0.270077	0.933517	0.499814
N	-0.489507	-1.189382	0.650248
H	-0.270354	-1.13102	1.638561
H	-1.507197	-1.156729	0.576498
N	-1.171595	1.358079	-1.651938
H	-2.043005	1.296738	-1.124541
H	-1.44219	1.426699	-2.627503
N	-1.258795	-1.042428	-1.967436
H	-2.194129	-0.965439	-1.572487
H	-0.8483	-1.900019	-1.612203
Cl	-3.798911	0.0	0.0
