13
Coordinates from ORCA-job run
  C   -0.42473610657883      0.19917619697444      0.16134371371383
  C   0.94174996128653     -0.36770272363324      0.50664865250582
  Cl  -0.91288259946826      1.49503878461973      1.19586343509057
  H   1.20165086691961     -1.12678709330684     -0.23322893953591
  H   0.86281178378564     -0.84495097300386      1.48882733157694
  N   -1.42310726535510     -0.97517063906460      0.20527169886613
  O   -1.17837056137859     -1.83610010764808     -0.63140021981651
  O   -2.30706777225791     -0.96922134549155      1.04170793277429
  N   -0.49288402836077      0.65920270104152     -1.29914246355539
  O   -1.59921099155992      1.00974314027078     -1.67937168550730
  O   0.54707498497699      0.61749217591287     -1.94136932685935
  C   1.97178956642946      0.66317390187404      0.55456192143112
  N   2.81318216156112      1.47710598145479      0.62928794931576
