13
Coordinates from ORCA-job run
  C   -0.58565879214468      0.23461481091168      0.19232233828371
  C   0.79749597460442      0.49137083320086      0.76735680018241
  Cl  -1.78357930855071      1.17776225886870      1.03021563196151
  H   0.80511790365131      0.16756852675092      1.81001601757849
  H   0.96357066769802      1.57228853082820      0.73933995900035
  N   -0.98742105906879     -1.23601528258641      0.27479049395728
  O   -2.05554601565659     -1.51898133370689     -0.24275144335484
  O   -0.21331190051902     -1.98013288945756      0.86330056552791
  N   -0.55409706439427      0.58463412076274     -1.30276988389554
  O   -0.28314956055315     -0.34491724527995     -2.04988850785131
  O   -0.70491590619114      1.76185976073117     -1.58343818869120
  C   1.86104520816867     -0.18692332799802      0.03258869076711
  N   2.73944985295593     -0.72212876302546     -0.53208247346588
