13
Coordinates from ORCA-job run
  C   -0.53530402594232      0.29650786086024      0.15755871257251
  C   0.86337881361328      0.45103725621211      0.72376661091813
  Cl  -1.64953405067104      1.37178474704539      0.96363189668143
  H   1.15674277640394      1.49575745319611      0.59879234095755
  H   0.81229812936973      0.23652698477994      1.79363107779218
  N   -1.05333650573603     -1.14833602257354      0.32500601192780
  O   -2.18652657488460     -1.37376567752599     -0.06450590646531
  O   -0.27573915322823     -1.93016927528860      0.85949561180979
  N   -0.56823491595831      0.61379244104532     -1.35331786603593
  O   -1.65354943852983      0.54513422330362     -1.90482812425740
  O   0.50581474395728      0.93086880762421     -1.85059201332883
  C   1.86796309293809     -0.41017567762866      0.10557327767145
  N   2.71502710866803     -1.07796312105014     -0.35521163024338
