13
Coordinates from ORCA-job run
  C   -0.42347077360862      0.19442700245834      0.16896508994862
  C   0.95645536585597     -0.35429428055927      0.48874856147488
  Cl  -0.90617239875200      1.48938132488285      1.20744190116154
  H   0.90186578747284     -0.83120100750541      1.47272056293348
  H   1.21127161137720     -1.11171199687045     -0.25448011093330
  N   -1.40775843585138     -0.99061599755178      0.23672618962491
  O   -1.15720170656327     -1.86090015417391     -0.58861275050320
  O   -2.29085282854854     -0.98026834015168      1.07386112863241
  N   -0.52719242564979      0.64766006093629     -1.29142339406573
  O   -1.64834160648369      0.96832289390376     -1.65453030731206
  O   0.50323583685767      0.63231520267012     -1.95005649575617
  C   1.97575118645587      0.68780167291836      0.51636072690455
  N   2.81241038743773      1.50808361904279      0.57327889789006
