11
Coordinates from ORCA-job run
  C   0.27962391970324     -0.21550478325953     -0.40433695346750
  C   -0.73815509153958      0.12418416883986      0.40341829187682
  H   0.05922206378749     -0.70413187017013     -1.35392530095807
  H   -0.53410228310940      0.60470229180046      1.35895853694057
  C   1.72175589034901      0.01013873551154     -0.05925245198348
  H   1.81772699129642      0.52177567262152      0.90176053357719
  H   2.22663776042572      0.62044624141651     -0.81439375356851
  H   2.27252110803131     -0.93318726589896      0.01173015319144
  N   -2.09340936078905     -0.16917874944544      0.20002365221999
  H   -2.30073919637428     -0.42454712764330     -0.75494922685800
  H   -2.71008180178091      0.56530268622746      0.51296651902955
