11
Coordinates from ORCA-job run
  C   0.43046655062926      0.80870863418483      0.08540016046259
  C   -0.89281408216525      0.66942385979908     -0.10991390564250
  H   0.82380826186804      1.81131808440213      0.20928827370073
  H   -1.53789379624140      1.54289219284459     -0.15088812491639
  C   1.37648847973450     -0.36019201742669      0.11154667555137
  H   1.14602005408449     -1.05702513653892      0.92702274426554
  H   2.40698093322421     -0.03305432065764      0.25322353429982
  H   1.33824409649078     -0.93132588021490     -0.82267283541112
  N   -1.54263351386205     -0.53952012132913     -0.37686957274386
  H   -1.04375154223875     -1.35230033590051     -0.04663279418754
  H   -2.50491544152384     -0.55792495916285     -0.07850415537864
