11
Coordinates from ORCA-job run
  C   0.38039979493955      0.49657040639010     -0.67429912895353
  C   -0.93772950564859      0.45777724075727     -0.41044763948928
  H   0.71982407954966      1.14725460857694     -1.47229330132428
  H   -1.63346491430933      1.05673285648741     -0.99177844115009
  C   1.38445419423937     -0.34041709301602      0.06946015468493
  H   1.40481769040637     -0.10278276274748      1.14034007413309
  H   2.39349784601125     -0.18103234145465     -0.31186220539394
  H   1.16334704764717     -1.40973127778092     -0.02064289968057
  N   -1.54645310477524     -0.39200681180453      0.51853826907214
  H   -0.92699066823038     -0.70659138005779      1.25064947783738
  H   -2.40370245982982     -0.02577344535034      0.90133564026413
