11
Coordinates from ORCA-job run
  C   0.29785950815366     -0.44686647691402      0.01736436309213
  C   -0.75670932577013      0.37954409691733     -0.07513047774126
  H   0.12199246918722     -1.51856730294098      0.11487205421533
  H   -0.59716028780381      1.45132100706047     -0.18195927706405
  C   1.72233655742792      0.01987731467962     -0.03518403532095
  H   2.27727786695522     -0.27647015405349      0.86030123573392
  H   1.77369741549527      1.10873996104543     -0.11425785283278
  H   2.25371133661047     -0.39952444771206     -0.89540694761140
  N   -2.10354927017787      0.00151722919848     -0.15643459291539
  H   -2.26326840479283     -0.95116501755441      0.13843452864328
  H   -2.72418786528512      0.63259379027363      0.32740100180117
