11
Coordinates from ORCA-job run
  C   0.35523029352070      0.51229663792999     -0.67597268520559
  C   -0.93299551995296      0.54884609531500     -0.29176611716472
  H   0.65410950542673      1.13327337536607     -1.51287890774317
  H   -1.64159903525039      1.19419290965136     -0.80376515232068
  C   1.38870316770493     -0.33104926135605      0.01891870964766
  H   2.37422332691297     -0.19855443722894     -0.42848716704101
  H   1.15185370952654     -1.40074641209203     -0.03872639543153
  H   1.47142450656808     -0.07383155059921      1.08066676552596
  N   -1.45937072578649     -0.11753412806424      0.81910077314202
  H   -0.92401254259415     -0.92485781488233      1.10226206717291
  H   -2.43756668607595     -0.34303541403963      0.73164810941816
