15

C	0.0	0.0	0.0
C	-0.270209	0.116359	-1.580706
Br	1.955956	0.0	0.0
H	0.588151	-0.40067	-2.019099
H	-0.340954	-0.949842	0.398756
C	-0.480295	1.104956	0.812953
N	-0.64059	2.055632	1.487737
C	-0.223128	1.580157	-1.994203
H	0.692758	2.084478	-1.679302
H	-1.08074	2.090374	-1.548336
H	-0.304234	1.640982	-3.082937
N	-1.454527	-0.517677	-2.151029
H	-1.883909	-1.003735	-1.357255
H	-2.150621	0.219654	-2.186839
F	-2.478984	0.0	0.0
