15

C	0.0	0.0	0.0
C	-0.432023	0.177706	-1.497831
Br	1.954682	0.0	0.0
H	0.482638	0.142895	-2.096465
H	-0.328619	-0.976002	0.345542
C	-0.44105	1.039319	0.920319
N	-0.62408	1.911513	1.686156
C	-1.110329	1.52571	-1.743834
H	-2.028631	1.525085	-1.154446
H	-0.462706	2.366814	-1.468267
H	-1.341267	1.613926	-2.811715
N	-1.234613	-0.992129	-1.843483
H	-1.523541	-0.886367	-2.812111
H	-2.067045	-0.843191	-1.231403
F	-2.681856	0.0	0.0
