15

C	0.0	0.0	0.0
C	-0.417626	-0.052158	-1.538462
Br	1.947903	0.0	0.0
H	0.509135	-0.239046	-2.090125
H	-0.330437	-0.90656	0.500317
C	-0.448199	1.160314	0.757324
N	-0.641709	2.129479	1.393504
C	-0.998971	1.280147	-1.984586
H	-0.310535	2.110148	-1.795768
H	-1.205884	1.225303	-3.055634
H	-1.927029	1.415812	-1.424799
N	-1.342316	-1.119137	-1.854295
H	-2.123296	-0.920634	-1.19148
H	-0.911593	-2.002891	-1.599438
F	-2.650893	0.0	0.0
