15

C	0.0	0.0	0.0
C	-0.428024	-0.160787	-1.500792
Br	1.96107	0.0	0.0
H	0.488131	-0.328416	-2.075337
H	-0.329303	-0.873077	0.555511
C	-0.439177	1.219796	0.662493
N	-0.636045	2.242016	1.208311
C	-1.108594	1.096877	-2.042511
H	-0.470922	1.984256	-1.954555
H	-2.030193	1.218765	-1.471406
H	-1.333692	0.946027	-3.104809
N	-1.231236	-1.378398	-1.576431
H	-1.524084	-1.491701	-2.543057
H	-2.060892	-1.096549	-1.0092
F	-2.677674	0.0	0.0
