14

C	-0.349274	0.062884	-1.481008
C	0.0	0.0	0.0
Cl	-2.193235	0.391542	-1.677194
H	1.094304	0.0	0.0
H	-0.354758	-0.931248	0.447446
N	0.318707	1.185967	-2.052637
H	1.309623	1.103392	-1.824526
H	0.199363	1.207927	-3.058113
N	-0.025729	-1.186811	-2.083814
H	-0.202376	-1.159569	-3.080813
H	-0.557325	-1.94642	-1.676232
C	-0.500277	1.134918	0.761866
N	-0.887939	2.029604	1.414626
Br	3.502925	0.0	0.0
