14

C	-0.403241	0.070056	-1.479877
C	0.0	0.0	0.0
Cl	-0.165563	-1.553935	-2.223155
H	1.09225	0.0	0.0
H	-0.292231	0.953215	0.461484
N	-1.796328	0.406794	-1.616366
H	-1.987137	1.240007	-1.069785
H	-1.969963	0.61517	-2.59319
N	0.462517	0.970677	-2.219358
H	1.42909	0.674074	-2.084116
H	0.38989	1.887352	-1.781621
C	-0.594529	-1.085231	0.762063
N	-1.066386	-1.953843	1.395112
Br	3.506143	0.0	0.0
