16

C	-0.426416	0.015768	-1.459298
C	0.0	0.0	0.0
F	-0.128486	-1.226026	-1.943596
H	1.089712	0.0	0.0
H	-0.408248	-0.884044	0.485733
N	-1.950419	0.131185	-1.528576
O	-2.40798	1.259705	-1.366159
O	-2.602613	-0.890809	-1.703313
C	0.21769	1.061795	-2.323655
H	-0.080424	0.898144	-3.36202
H	-0.06778	2.059091	-2.002439
H	1.298872	0.946797	-2.217089
N	-0.48348	1.181902	0.754265
O	-1.285371	0.970715	1.668908
O	-0.044095	2.285028	0.434236
Br	3.450871	0.0	0.0
