16

C	-0.677906	0.04944	-1.355529
C	0.0	0.0	0.0
F	-0.295781	1.23637	-1.936267
H	1.089917	0.0	0.0
H	-0.329398	0.876111	0.559938
N	-0.154643	-1.027981	-2.301443
O	1.033056	-0.956229	-2.580794
O	-0.963114	-1.845892	-2.73594
C	-2.182529	0.005588	-1.294985
H	-2.594685	0.131246	-2.295753
H	-2.522057	0.824981	-0.659417
H	-2.530678	-0.943112	-0.892829
N	-0.451413	-1.178854	0.771842
O	-0.455141	-2.261114	0.184916
O	-0.76994	-1.009813	1.947655
Br	3.464875	0.0	0.0
