19

C	0.0	0.0	0.0
C	-0.597517	0.138847	-1.412396
Cl	1.801317	0.0	0.0
H	-1.677808	0.272562	-1.182575
C	-0.470512	1.142841	0.889869
H	-0.104842	0.982933	1.908279
H	-0.110331	2.109311	0.53641
H	-1.565875	1.092644	0.853325
C	-0.499121	-1.313485	0.582145
H	-1.595551	-1.232319	0.533202
H	-0.162483	-1.403408	1.61823
H	-0.124093	-2.174005	0.023601
N	-0.400581	-0.950742	-2.324362
H	0.535904	-1.328862	-2.246119
H	-1.078487	-1.665756	-2.099683
N	-0.077098	1.383358	-2.071383
O	0.902767	1.277466	-2.80929
O	-0.649152	2.446341	-1.821872
F	-2.988642	0.0	0.0
