19

C	0.0	0.0	0.0
C	-0.357097	-0.211948	-1.504406
Cl	1.800304	0.0	0.0
H	0.420586	0.255455	-2.115864
C	-0.512106	1.366707	0.424673
H	-0.133922	1.60343	1.423658
H	-1.604113	1.294466	0.434855
H	-0.196432	2.142835	-0.274276
C	-0.559537	-1.062144	0.923357
H	-0.172646	-2.056292	0.701073
H	-1.648684	-1.028259	0.791943
H	-0.304659	-0.806994	1.956175
N	-1.636383	0.211714	-1.835735
H	-1.876201	0.007966	-2.796059
H	-2.419204	0.028385	-1.117316
N	-0.077131	-1.719554	-1.863774
O	-0.94126	-2.556369	-1.608457
O	0.979288	-1.966502	-2.456886
F	-3.321747	0.0	0.0
