19

C	0.0	0.0	0.0
C	-0.319417	0.154367	-1.514798
Cl	1.800008	0.0	0.0
H	0.207379	1.053897	-1.849916
C	-0.541572	1.236012	0.696836
H	-0.220384	1.248985	1.742152
H	-0.193481	2.152533	0.211794
H	-1.634087	1.155301	0.642962
C	-0.559	-1.244567	0.65835
H	-0.195557	-2.1533	0.185338
H	-0.281341	-1.245724	1.717129
H	-1.649473	-1.16547	0.570654
N	-1.668768	0.107488	-1.897777
H	-1.903268	0.912899	-2.45926
H	-2.3904	-0.006799	-1.108242
N	0.440524	-0.917012	-2.345215
O	1.117408	-0.495535	-3.285261
O	0.260043	-2.106078	-2.103056
F	-3.312634	0.0	0.0
