19

C	0.0	0.0	0.0
C	-0.383492	-0.189386	-1.508832
Cl	1.802169	0.0	0.0
H	0.446234	0.160079	-2.13033
C	-0.503028	1.35021	0.480677
H	-0.122089	1.53772	1.489234
H	-0.18156	2.155145	-0.182037
H	-1.595349	1.283215	0.490603
C	-0.556865	-1.098379	0.882919
H	-0.304321	-0.889993	1.926423
H	-1.647061	-1.057555	0.749273
H	-0.157191	-2.079253	0.619931
N	-1.599111	0.39737	-1.855927
H	-1.849978	0.165207	-2.807554
H	-2.386749	0.185181	-1.157801
N	-0.319285	-1.729395	-1.805906
O	0.796815	-2.224922	-1.982825
O	-1.375054	-2.353642	-1.862733
F	-3.259223	0.0	0.0
