15

C	-0.546815	0.060801	-1.452004
C	0.0	0.0	0.0
Cl	0.321846	1.210041	-2.508615
H	1.099444	0.0	0.0
C	-0.395613	-1.271104	-2.051537
N	-0.323053	-2.306604	-2.600811
C	-1.978601	0.390784	-1.435075
N	-3.124463	0.652734	-1.401826
N	-0.465074	-1.186393	0.630708
H	0.284813	-1.596209	1.171025
H	-1.258346	-1.014768	1.231697
N	-0.430732	1.249399	0.747756
O	-0.395433	2.316578	0.144926
O	-0.75648	1.112057	1.924621
Cl	3.171076	0.0	0.0
