15

C	-0.469331	0.02949	-1.472687
C	0.0	0.0	0.0
Cl	-2.281207	0.115398	-1.534449
H	1.092463	0.0	0.0
C	0.06714	1.102757	-2.311484
N	0.465619	1.879933	-3.098848
C	-0.097713	-1.25449	-2.07687
N	0.1219	-2.302164	-2.56141
N	-0.435111	-1.12598	0.725653
H	0.295271	-1.816974	0.805689
H	-1.318022	-1.519752	0.438144
N	-0.431863	1.292185	0.6756
O	-0.586807	1.275237	1.887938
O	-0.540579	2.28371	-0.045998
Cl	3.152591	0.0	0.0
