15

C	-0.466152	0.030638	-1.474078
C	0.0	0.0	0.0
Cl	-2.279156	0.111091	-1.541516
H	1.097061	0.0	0.0
C	0.069964	1.105912	-2.309931
N	0.460955	1.882246	-3.10166
C	-0.086347	-1.251778	-2.078785
N	0.195909	-2.277511	-2.578693
N	-0.434751	-1.127682	0.722753
H	-1.318692	-1.520844	0.437247
H	0.295696	-1.817563	0.805511
N	-0.434033	1.290553	0.6766
O	-0.587323	1.271949	1.889104
O	-0.545304	2.283114	-0.043619
Cl	3.153295	0.0	0.0
