15

C	-0.482318	-0.024994	-1.477588
C	0.0	0.0	0.0
Cl	0.202046	-1.514405	-2.217305
H	1.094993	0.0	0.0
C	-1.942993	-0.139681	-1.551446
N	-3.102753	-0.328984	-1.574461
C	-0.018433	1.113962	-2.269588
N	0.334076	2.002389	-2.953514
N	-0.448901	-1.077826	0.798964
H	-1.3246	-1.491514	0.512267
H	0.279683	-1.767044	0.910945
N	-0.469608	1.300865	0.620102
O	-1.208616	2.030445	-0.051138
O	-0.085657	1.530909	1.755726
Cl	3.189591	0.0	0.0
