15

C	-0.482793	-0.019206	-1.48045
C	0.0	0.0	0.0
Cl	0.403163	-1.352536	-2.29245
H	1.090005	0.0	0.0
C	-1.911507	-0.328596	-1.593363
N	-3.033531	-0.671402	-1.663733
C	-0.185685	1.228803	-2.18363
N	0.027348	2.227484	-2.765252
N	-0.447248	-1.084141	0.796404
H	0.273932	-1.787294	0.87397
H	-1.339714	-1.47289	0.521799
N	-0.498909	1.282729	0.621165
O	0.156137	1.747201	1.541055
O	-1.56752	1.734735	0.190768
Cl	3.227281	0.0	0.0
