15

C	-0.388067	0.008385	-1.470012
C	0.0	0.0	0.0
Br	0.24661	1.686392	-2.269655
H	1.092234	0.0	0.0
H	0.200417	-0.768784	-1.957509
C	-1.87295	-0.139362	-1.735459
H	-2.078154	-0.124668	-2.808863
H	-2.428998	0.674205	-1.264446
H	-2.211008	-1.094528	-1.3265
N	-0.317365	-1.264424	0.62094
O	-0.265696	-2.274512	-0.108146
O	-0.434757	-1.302978	1.857227
C	-0.532835	1.100676	0.766242
N	-0.939123	2.037759	1.35098
H	2.362317	0.0	0.0
