15

C	-0.308488	-0.029725	-1.482306
C	0.0	0.0	0.0
Br	-2.256828	-0.11998	-1.832282
H	1.094528	0.0	0.0
H	-0.032209	0.964092	-1.843635
C	0.43369	-1.076644	-2.286015
H	1.47105	-1.062249	-1.939852
H	0.023494	-2.069487	-2.129184
H	0.389222	-0.824206	-3.346426
N	-0.397022	-1.186817	0.748458
O	-0.85848	-1.042664	1.886975
O	-0.130445	-2.279627	0.235843
C	-0.485408	1.2052	0.63664
N	-0.776319	2.246295	1.099555
H	2.471046	0.0	0.0
