15

C	-0.346619	-0.00797	-1.473144
C	0.0	0.0	0.0
Br	-2.30198	-0.155334	-1.788566
H	1.094541	0.0	0.0
H	-0.112737	1.000314	-1.822577
C	0.410341	-1.013938	-2.316523
H	0.051582	-2.025216	-2.149106
H	1.462204	-0.952819	-2.013328
H	0.309998	-0.758045	-3.374058
N	-0.373877	-1.187317	0.761572
O	-0.539396	-1.057832	1.979525
O	-0.36665	-2.272203	0.168849
C	-0.463411	1.196663	0.67025
N	-0.762318	2.221119	1.164615
H	2.453316	0.0	0.0
