15

C	-0.403831	0.010928	-1.466183
C	0.0	0.0	0.0
Br	0.252324	1.669546	-2.288969
H	1.092246	0.0	0.0
H	0.15643	-0.783552	-1.958046
C	-1.897099	-0.099718	-1.700497
H	-2.252533	-1.041929	-1.275735
H	-2.126325	-0.087601	-2.768848
H	-2.420969	0.731244	-1.222989
N	-0.330617	-1.263349	0.616223
O	-0.23044	-2.276183	-0.10456
O	-0.517723	-1.296768	1.843226
C	-0.531147	1.104452	0.764902
N	-0.934266	2.051123	1.336053
H	2.36676	0.0	0.0
