15

C	-0.321345	-0.032717	-1.480808
C	0.0	0.0	0.0
Br	-2.273359	-0.174816	-1.821156
H	1.094533	0.0	0.0
H	-0.076553	0.968058	-1.844261
C	0.438983	-1.058093	-2.295942
H	0.0557	-2.062187	-2.13995
H	1.480867	-1.018249	-1.960975
H	0.378338	-0.800595	-3.355072
N	-0.393122	-1.179232	0.763453
O	-0.234104	-2.27757	0.218878
O	-0.734848	-1.026931	1.942235
C	-0.476574	1.208203	0.638349
N	-0.781671	2.241157	1.110829
H	2.456596	0.0	0.0
