16

C	0.0	0.0	0.0
C	-0.467515	-0.00507	-1.515138
F	1.349292	0.0	0.0
H	-1.539081	-0.145531	-1.552657
N	-0.404349	1.331675	0.829901
O	0.475967	1.694563	1.619425
O	-1.475603	1.926947	0.720686
C	-0.468579	-1.213329	0.680606
N	-0.840506	-2.185057	1.235318
N	0.143769	-0.976763	-2.344515
H	-0.453952	-1.792362	-2.380762
H	1.068341	-1.216619	-2.028057
N	-0.31171	1.372884	-2.092836
O	0.4322	2.186126	-1.544439
O	-0.995397	1.605191	-3.088482
F	-2.013046	0.0	0.0
