16

C	0.0	0.0	0.0
C	-0.324099	-0.063774	-1.541152
F	1.351329	0.0	0.0
H	0.628533	0.186426	-2.017603
N	-0.347362	1.348519	0.618174
O	-0.075248	2.325099	-0.069119
O	-0.703678	1.363054	1.787746
C	-0.51702	-1.075983	0.841469
N	-0.631716	-2.047197	1.495138
N	-1.37441	0.690518	-2.050804
H	-2.17816	0.475892	-1.420352
H	-1.521691	0.466779	-3.024859
N	-0.403396	-1.599473	-1.867334
O	-1.370223	-2.00579	-2.501573
O	0.567168	-2.279518	-1.535336
F	-2.418936	0.0	0.0
