16

C	0.0	0.0	0.0
C	-0.462693	-0.195466	-1.497903
F	1.347409	0.0	0.0
H	-0.88202	0.749327	-1.823997
N	-0.377355	1.346569	0.583715
O	-0.579796	2.278921	-0.177447
O	-0.289442	1.412132	1.803892
C	-0.484947	-1.074911	0.865358
N	-0.622088	-2.045011	1.5153
N	-1.329568	-1.277736	-1.824695
H	-2.132882	-1.034721	-1.214735
H	-0.917047	-2.142533	-1.493772
N	0.803988	-0.38246	-2.302801
O	1.267456	0.593621	-2.88957
O	1.288456	-1.510252	-2.319558
F	-2.412403	0.0	0.0
