16

C	0.0	0.0	0.0
C	-0.372498	0.043417	-1.521742
F	1.351131	0.0	0.0
H	0.58705	0.191427	-2.029526
N	-0.314068	1.325444	0.710557
O	0.089555	2.324706	0.128419
O	-0.784735	1.28667	1.837178
C	-0.505602	-1.103482	0.813746
N	-0.620207	-2.023787	1.536598
N	-1.315929	0.984856	-1.938557
H	-2.142338	0.766689	-1.346597
H	-1.491841	0.871293	-2.926666
N	-0.698602	-1.422225	-1.935429
O	0.113482	-2.27853	-1.587742
O	-1.660309	-1.612925	-2.668013
F	-2.396343	0.0	0.0
