16

C	0.0	0.0	0.0
C	-0.234465	-0.061598	-1.570015
F	1.355994	0.0	0.0
H	0.48308	0.685576	-1.920604
N	-0.411595	1.366189	0.521776
O	-0.450239	2.274028	-0.300493
O	-0.529532	1.482857	1.72966
C	-0.477862	-1.043248	0.905935
N	-0.763526	-1.963166	1.579582
N	-1.480215	0.109881	-2.195393
H	-1.508335	1.054002	-2.535031
H	-2.185453	0.015826	-1.402334
N	0.403461	-1.364585	-2.058368
O	0.774783	-1.341298	-3.225425
O	0.47838	-2.336721	-1.318052
F	-2.478263	0.0	0.0
