16

C	0.0	0.0	0.0
C	-0.339886	0.075691	-1.555876
F	1.355853	0.0	0.0
H	0.616272	0.368785	-1.992276
N	-0.362692	1.28647	0.711339
O	-0.633451	1.235667	1.900985
O	-0.192981	2.314635	0.058938
C	-0.495615	-1.144761	0.758328
N	-0.662189	-2.115844	1.400926
N	-1.391847	0.839479	-2.09444
H	-1.107685	1.808884	-2.074782
H	-2.15974	0.683423	-1.414529
N	-0.48281	-1.382992	-1.980719
O	0.519084	-2.080441	-1.803888
O	-1.534541	-1.763771	-2.471061
F	-2.352369	0.0	0.0
