16

C	0.0	0.0	0.0
C	-0.484346	0.209735	-1.449102
F	1.349935	0.0	0.0
H	-1.568395	0.342484	-1.34517
N	-0.409268	1.129997	0.927093
O	-0.27271	0.89878	2.12441
O	-0.716194	2.199674	0.42467
C	-0.506244	-1.265135	0.535761
N	-0.6023	-2.37056	0.926656
N	-0.144744	-0.905155	-2.290706
H	-0.888099	-1.58782	-2.235955
H	0.725209	-1.337979	-2.004979
N	0.074536	1.449114	-2.105619
O	1.159302	1.915027	-1.760899
O	-0.619588	1.893844	-3.016002
F	-2.458964	0.0	0.0
