16

C	0.0	0.0	0.0
C	-0.533214	0.185537	-1.433324
F	1.342282	0.0	0.0
H	-1.345051	0.907042	-1.376493
N	-0.351199	1.206054	0.886629
O	-0.080737	1.051079	2.073861
O	-0.732706	2.242741	0.370398
C	-0.484814	-1.207543	0.669786
N	-0.577867	-2.2403	1.222659
N	-0.906391	-1.102126	-1.961005
H	-1.093393	-0.999615	-2.951947
H	-1.787951	-1.255625	-1.46844
N	0.513846	0.826526	-2.315682
O	1.112416	1.799163	-1.868589
O	0.617363	0.415035	-3.472505
F	-2.401645	0.0	0.0
