17

C	-0.415916	0.040984	-1.481476
C	0.0	0.0	0.0
F	-0.083377	-1.264057	-1.940029
H	1.091046	0.0	0.0
N	-1.815737	0.261374	-1.611079
H	-2.3243	-0.473674	-1.132095
H	-2.073684	0.249997	-2.591452
C	0.398802	0.988021	-2.329326
H	0.083959	2.014708	-2.167909
H	1.448829	0.879393	-2.053677
H	0.259912	0.708034	-3.37765
C	-0.541248	-1.17731	0.648064
N	-0.983736	-2.157224	1.125595
N	-0.380467	1.20527	0.737032
O	-0.069195	2.284158	0.220768
O	-0.874102	1.089577	1.86801
H	2.503573	0.0	0.0
