17

C	-0.453525	0.109297	-1.476805
C	0.0	0.0	0.0
F	-0.249194	-1.182743	-1.977253
H	1.090405	0.0	0.0
N	-1.852264	0.395828	-1.681683
H	-2.014132	1.340968	-1.356334
H	-2.399787	-0.230423	-1.099415
C	0.425854	1.031632	-2.285439
H	0.297013	2.067557	-1.977943
H	0.151531	0.913053	-3.336199
H	1.465119	0.7453	-2.118825
C	-0.465256	-1.219323	0.623927
N	-0.80467	-2.249811	1.079858
N	-0.359821	1.135031	0.817559
O	-0.562157	2.231811	0.256499
O	-0.275422	1.000167	2.047483
H	2.414345	0.0	0.0
