17

C	-0.257925	0.043504	-1.521702
C	0.0	0.0	0.0
F	-1.603937	0.351034	-1.748577
H	1.094934	0.0	0.0
N	0.537172	1.02447	-2.209444
H	0.34363	1.919835	-1.773305
H	1.506019	0.81162	-1.957936
C	0.036209	-1.322863	-2.100858
H	1.049684	-1.622467	-1.816623
H	-0.03113	-1.244772	-3.187336
H	-0.675969	-2.062759	-1.735302
C	-0.51796	-1.179132	0.656285
N	-0.88218	-2.191307	1.133286
N	-0.40684	1.19474	0.740213
O	-0.74071	1.06002	1.922614
O	-0.289491	2.293757	0.183024
H	2.484668	0.0	0.0
