17

C	-0.262386	0.175093	-1.510393
C	0.0	0.0	0.0
F	-1.608316	0.501758	-1.708299
H	1.099558	0.0	0.0
N	0.531164	1.215443	-2.109171
H	0.326637	2.068155	-1.598649
H	1.501367	0.986731	-1.878369
C	0.031343	-1.136597	-2.207301
H	1.041278	-1.46623	-1.946137
H	-0.685078	-1.902041	-1.911049
H	-0.030186	-0.962836	-3.282698
C	-0.505562	-1.236602	0.552566
N	-0.854381	-2.292205	0.938222
N	-0.406804	1.120468	0.84521
O	-0.686856	0.880586	2.02572
O	-0.343302	2.26404	0.377046
H	2.477418	0.0	0.0
