17

C	-0.433677	0.016526	-1.463248
C	0.0	0.0	0.0
F	-1.872996	-0.025899	-1.487989
H	1.106239	0.0	0.0
N	0.044316	1.144492	-2.167202
H	-0.347687	1.145326	-3.099542
H	-0.192087	1.992854	-1.671739
C	0.048542	-1.251613	-2.136185
H	-0.46747	-2.124391	-1.737303
H	-0.147367	-1.186013	-3.210209
H	1.124263	-1.342105	-1.967188
C	-0.415721	-1.224787	0.652008
N	-0.680142	-2.271289	1.119709
N	-0.38773	1.130585	0.814492
O	-0.469311	0.951103	2.039374
O	-0.45952	2.256782	0.286542
H	2.390425	0.0	0.0
