17

C	-0.30428	-0.001105	-1.511735
C	0.0	0.0	0.0
F	-1.661802	0.291444	-1.693814
H	1.098699	0.0	0.0
N	0.451354	0.968032	-2.257805
H	1.432852	0.747015	-2.081769
H	0.29637	1.866846	-1.813498
C	-0.025911	-1.381589	-2.065389
H	-0.728272	-2.11072	-1.661698
H	0.993651	-1.678122	-1.802372
H	-0.125654	-1.331026	-3.150424
C	-0.505602	-1.161631	0.698105
N	-0.853905	-2.163342	1.207599
N	-0.398751	1.212795	0.714281
O	-0.740285	1.108796	1.897756
O	-0.26291	2.298418	0.134997
H	2.480637	0.0	0.0
