15

C	-0.319278	-0.025506	-1.507256
C	0.0	0.0	0.0
Cl	-0.091326	1.740515	-2.075572
H	1.090624	0.0	0.0
N	0.569352	-0.921056	-2.115997
H	1.53252	-0.74506	-1.819664
H	0.482844	-0.934402	-3.123599
C	-1.718645	-0.318816	-1.836512
N	-2.834755	-0.522447	-2.14288
N	-0.399958	-1.283926	0.69659
O	-0.951397	-2.165862	0.046486
O	-0.112467	-1.330459	1.887227
C	-0.582346	1.100035	0.74339
N	-1.077055	1.965728	1.365612
Br	3.316363	0.0	0.0
