15

C	-0.529825	0.077891	-1.465054
C	0.0	0.0	0.0
Cl	-0.003587	-1.42972	-2.277665
H	1.093026	0.0	0.0
N	-1.949944	0.230791	-1.651945
H	-2.227836	1.158924	-1.351957
H	-2.430765	-0.451161	-1.07688
C	0.131232	1.220941	-2.107901
N	0.56002	2.182669	-2.630069
N	-0.488914	-1.270132	0.644976
O	-1.713156	-1.412393	0.728376
O	0.349514	-2.071801	1.028363
C	-0.535665	1.126317	0.748923
N	-1.009825	2.049823	1.29839
Br	3.323785	0.0	0.0
