15

C	-0.546615	-0.000669	-1.443351
C	0.0	0.0	0.0
Cl	0.246041	-1.244681	-2.441727
H	1.091664	0.0	0.0
N	-1.96326	-0.282404	-1.415032
H	-2.437211	0.399791	-0.830319
H	-2.34194	-0.233633	-2.353786
C	-0.223977	1.298767	-2.065787
N	-0.082039	2.337091	-2.599654
N	-0.482568	-1.240361	0.705578
O	0.07093	-2.285479	0.39481
O	-1.393903	-1.116473	1.522395
C	-0.513937	1.17343	0.694928
N	-0.955598	2.145484	1.186615
Br	3.307239	0.0	0.0
