15

C	-0.330648	-0.209128	-1.487466
C	0.0	0.0	0.0
Cl	0.218005	1.344758	-2.319054
H	1.09324	0.0	0.0
N	0.375362	-1.363667	-1.88583
H	1.362056	-1.271646	-1.633695
H	0.274358	-1.550135	-2.874963
C	-1.758346	-0.309743	-1.807693
N	-2.886931	-0.370029	-2.127099
N	-0.482232	-1.203362	0.779343
O	0.354414	-1.832005	1.413635
O	-1.686059	-1.441519	0.720192
C	-0.590911	1.18776	0.584197
N	-1.072738	2.133962	1.085816
Br	3.345826	0.0	0.0
