17
Coordinates from ORCA-job run
  C   -0.45810397306179     -0.02694410807173      0.32012092451293
  C   0.97370863547001      0.10427910544625     -0.24209650021681
  Cl  -0.37888435408128     -0.84551588816559      1.91193171855948
  H   0.91009950746895      0.61448940008154     -1.20752418828433
  C   -1.01657815712979      1.37479038143738      0.52984750904349
  H   -2.02749398820898      1.30302657573154      0.93400537045040
  H   -1.06099919063795      1.90836051190917     -0.42451661210700
  H   -0.40784950261713      1.94675833990649      1.23154357215804
  C   -1.34685705714064     -0.84466642177294     -0.60466831240979
  H   -1.01353950051138     -1.87867724611978     -0.68282934912623
  H   -1.35611485458235     -0.40672141771394     -1.60637976509217
  H   -2.36382504524959     -0.84185821184082     -0.20919799735056
  N   1.57252924601189     -1.24560813336355     -0.56133942204041
  O   2.23930763425906     -1.79660749153715      0.30531829719784
  O   1.30520513665893     -1.68449769342902     -1.67699676395494
  C   1.86601925388077      0.83784927485093      0.64627773990197
  N   2.56437620947129      1.47954302265122      1.33850377875810
