17
Coordinates from ORCA-job run
  C   -0.51064889089035     -0.31660723825193      0.21942563464197
  C   0.92580882803614     -0.42325904213181     -0.33775824840463
  Cl  -0.73082814367996     -1.71588975107386      1.32363934758230
  H   1.05250516366774     -1.39578719753585     -0.81812203692056
  C   -0.77236625576579      0.96496673003892      0.99188607832521
  H   -0.14051616771601      1.04518212813887      1.87435772065521
  H   -1.81649540391212      0.97553521646147      1.30959654395927
  H   -0.59150502259688      1.83350958260128      0.35334262565129
  C   -1.48080347394429     -0.47352738542358     -0.94475197202469
  H   -2.50125424434730     -0.51020611629812     -0.56027638685314
  H   -1.29073682325651     -1.39635101080841     -1.49713528801549
  H   -1.39743844659557      0.37633654298911     -1.62676456887436
  N   1.97291478927785     -0.38496622393295      0.75192708930419
  O   2.51033677239748     -1.45249923571458      1.02257380963086
  O   2.18795644305333      0.70283708396585      1.27660057053015
  C   1.20088041652076      0.65577112795137     -1.28001031583144
  N   1.38419045975146      1.51595478902424     -2.05853060335615
