17
Coordinates from ORCA-job run
  C   -0.45904385607250      0.32089471177695     -0.00563532519106
  C   0.89698813556348     -0.36192449986994     -0.28557886849592
  Cl  -0.31879542069940      2.06344434529908     -0.39798473026477
  H   0.79077179313795     -1.42537393315221     -0.05306149419909
  C   -1.50137843536808     -0.29559977404181     -0.92956695897593
  H   -1.60022336027494     -1.36575757476340     -0.72377745866139
  H   -2.46651231992950      0.18147614933691     -0.75261038789053
  H   -1.23872285301532     -0.15591849142618     -1.97910846741023
  C   -0.86087328426681      0.18055943084101      1.45487969426346
  H   -1.85875559931214      0.60136433801210      1.58842366943556
  H   -0.88048292353094     -0.87391265017196      1.74301536378696
  H   -0.17650156862429      0.70702635607761      2.11884104521027
  N   1.97235647318687      0.12974225107500      0.65484625619160
  O   2.03559023984112     -0.46080696559101      1.72998430605583
  O   2.66140588818313      1.07501053293259      0.29326136923609
  C   1.34025523874234     -0.19976343642440     -1.66413296481062
  N   1.66492185243903     -0.12046078991036     -2.78979504828023
