17
Coordinates from ORCA-job run
  C   -0.59982724759242     -0.26590804740834      0.20428325978377
  C   0.89210891440538     -0.66928219903105      0.14507838550152
  Cl  -1.44568092632306     -1.79912447332012      0.62665464989885
  H   1.16813470351324     -1.16177640416353      1.07894641685434
  C   -0.83511064684098      0.73651567226737      1.32294779897740
  H   -1.90833336800910      0.88114286736501      1.45487837266022
  H   -0.41141505441176      0.39000980513085      2.26718335744866
  H   -0.38825749462623      1.70143285522482      1.07098564314524
  C   -1.13740088835537      0.22401775794568     -1.12818279682899
  H   -1.01353805066020     -0.52896953372822     -1.90738925915666
  H   -2.20169833824906      0.44239855762060     -1.02510204340998
  H   -0.61804281096117      1.13385965165146     -1.43461829058057
  N   1.74794057863697      0.57596498879270      0.08175443221966
  O   2.23661451354596      0.94442904104676      1.14537805017132
  O   1.84666987614963      1.13768477946625     -1.00427430675804
  C   1.20891765788824     -1.52237930202092     -0.99333868262221
  N   1.45891858188992     -2.22001601683933     -1.90418498730452
