17
Coordinates from ORCA-job run
  C   -0.53404380576748     -0.24869094993939      0.24945083886597
  C   0.89349009541618     -0.52851664212979     -0.26974769737900
  Cl  -0.86342483656433     -1.47991097567897      1.51483186734123
  H   0.94970887974222     -1.55970777760171     -0.62494862114858
  C   -0.70357695256209      1.13468432668696      0.85383963441619
  H   -0.45533945846912      1.90161589269252      0.11561158823575
  H   -1.74558377651901      1.26108702443943      1.15298102900146
  H   -0.07196215698758      1.27735166617840      1.72855136646557
  C   -1.50713761514235     -0.47749872501483     -0.90022710212860
  H   -2.52952902387388     -0.39121467977683     -0.52902348545339
  H   -1.38357119690511     -1.47313242499602     -1.33180976934518
  H   -1.35713324328653      0.27274370899765     -1.68061701646864
  N   1.93456254468556     -0.43276870892090      0.82232672899603
  O   2.22710742434102      0.69282502026104      1.21252238218268
  O   2.38917567391131     -1.49515699025056      1.23009142778625
  C   1.25316039886098      0.40256963930172     -1.33342723928458
  N   1.50409704912022      1.14372059575129     -2.20940593208315
