17
Coordinates from ORCA-job run
  C   -0.53675749608523     -0.37834761589449      0.20501326516510
  C   0.98740346321061     -0.53533574340738     -0.00259591444362
  Cl  -1.11213904577112     -2.06345071257156      0.47652639870508
  H   1.40932091206574     -1.08848091357340      0.83818168579351
  C   -0.81952736888475      0.43374744146268      1.45898606182445
  H   -1.88770825721463      0.39650035569387      1.67753500512068
  H   -0.53774215218485      1.47890283723631      1.30904325790950
  H   -0.27396510156298      0.04352718644860      2.31994617855127
  C   -1.25019734409359      0.17875268520975     -1.01359107297524
  H   -1.08444450700545     -0.44737017002633     -1.89108690806829
  H   -0.89600569765225      1.18798947394780     -1.23147040800032
  H   -2.32241169919404      0.21610133747392     -0.81347619739412
  N   1.64570768908631      0.82577151880689      0.04535813363705
  O   2.17512823570706      1.12760210971039      1.11036087408352
  O   1.56180035813871      1.52768428889058     -0.95721655555454
  C   1.33102095999028     -1.18415907988110     -1.26154835116793
  N   1.60951705145016     -1.71943499952653     -2.26896545318611
