17
Coordinates from ORCA-job run
  C   -0.45939219199182      0.32042084523581     -0.00094258431906
  C   0.89259042148605     -0.36330574616099     -0.29712494513637
  Cl  -0.32615690288786      2.06056261050607     -0.40685994258753
  H   0.79065586219294     -1.42576261907301     -0.05793675820209
  C   -1.51501176787737     -0.30275799720619     -0.90530247506685
  H   -1.26882341160513     -0.16824895197037     -1.95951600312368
  H   -2.47823001349685      0.17347607060374     -0.71588123636616
  H   -1.60851257314720     -1.37198536677205     -0.69207039975323
  C   -0.83963981302982      0.18984168915373      1.46612291627816
  H   -0.85558749898349     -0.86268697750016      1.76140024405288
  H   -1.83526579150991      0.61215383405079      1.61095892502597
  H   -0.14558321689849      0.72025191728338      2.11684882956091
  N   1.98104563074514      0.13401446244488      0.62487087799097
  O   2.06007547071871     -0.45070119185223      1.70218706056655
  O   2.66407251690507      1.07785653964904      0.24838784040066
  C   1.31567971478993     -0.20850839991848     -1.68294353217443
  N   1.62908356459009     -0.13562071847397     -2.81219881714670
