17
Coordinates from ORCA-job run
  C   -0.53632112900661     -0.22869854328522      0.26285058659920
  C   0.87945268911056     -0.55554384560466     -0.26080038678533
  Cl  -0.87700405999272     -1.40986995918082      1.57256971626339
  H   0.91065039896177     -1.59914259022261     -0.58084892094071
  C   -0.67112929301554      1.17719118559270      0.82219186464277
  H   -0.41897730470252      1.91385804490062      0.05505448377854
  H   -1.70619717955920      1.33390508542620      1.13086251198879
  H   -0.02480498296641      1.33701124455953      1.68298308072286
  C   -1.52620255215719     -0.47609443744853     -0.86843911816478
  H   -1.36787935091262      0.24231263154551     -1.67650277962440
  H   -1.42920580286832     -1.48893849611903     -1.26513455690450
  H   -2.54252479706780     -0.35385186222465     -0.49090656600986
  N   1.93435571952036     -0.44477293098768      0.81648388519867
  O   2.25504544749531      0.68695113881934      1.16468504690824
  O   2.37090024057197     -1.50227179158110      1.25564190231243
  C   1.24660892143415      0.33164897679088     -1.35887168349803
  N   1.50423303515481      1.03730614901952     -2.26181906648727
