17
Coordinates from ORCA-job run
  C   -0.56902517574497     -0.34236389855766      0.17420270188575
  C   0.93389416970604     -0.62346277271845     -0.05848905903721
  Cl  -1.30213424131016     -1.98323876861388      0.29566270819148
  H   1.30069759285293     -1.28687436195326      0.72651770426021
  C   -0.77616128354473      0.37506462658504      1.49863743477064
  H   -1.84349704124166      0.41722985137662      1.72028514197335
  H   -0.39792748547866      1.39871755540914      1.44216678779126
  H   -0.27056577656488     -0.14082314128092      2.31678314773753
  C   -1.22461797628779      0.38849445081523     -0.98358826157373
  H   -1.11615672201707     -0.16672150088450     -1.91601787732028
  H   -0.77756532037578      1.37621180597240     -1.10979042765956
  H   -2.28911237313597      0.50679274841078     -0.77415768271083
  N   1.71682842088677      0.65978625497619      0.10470662965377
  O   2.26130702267719      0.82023045508949      1.19278729602023
  O   1.70634745251743      1.45003231181264     -0.83348374910859
  C   1.21329547900730     -1.18913690169005     -1.37230833604225
  N   1.43539325805400     -1.65993871474880     -2.42491415883177
