17
Coordinates from ORCA-job run
  C   -0.53843183062091     -0.22672680055551      0.26313734461469
  C   0.87362121336405     -0.55830017113456     -0.26661744236237
  Cl  -0.88418360266352     -1.41523327552505      1.56479984200402
  H   0.89753306435931     -1.59926325790645     -0.59593711523449
  C   -0.66317884283283      1.17601015063226      0.83264696198725
  H   -1.69793973161830      1.33913928385873      1.13911210011081
  H   -0.40220701564541      1.91619304244046      0.07177828302550
  H   -0.01804598340629      1.32420012978606      1.69649541337976
  C   -1.53222041330407     -0.45920427045230     -0.86799063470082
  H   -1.44031940898803     -1.46850050296118     -1.27499332464940
  H   -2.54704399101334     -0.33639167228436     -0.48650221176392
  H   -1.37290290406734      0.26649340729105     -1.66952910846168
  N   1.93171035015532     -0.46282436087257      0.80921404910226
  O   2.25743603672509      0.66413875628927      1.16797624578380
  O   2.36483053270893     -1.52630015461491      1.23696186719252
  C   1.24519727954897      0.33448167582671     -1.35866718875544
  N   1.52614524729836      1.03208802018237     -2.26088508127248
