17
Coordinates from ORCA-job run
  C   -0.53554314148039     -0.23867865382136      0.25667399593009
  C   0.88574164145173     -0.54245286914125     -0.26551438670046
  Cl  -0.87104727579539     -1.44511639549204      1.54414137224671
  H   0.92918198115429     -1.57968308594425     -0.60445315881342
  C   -0.68682568078580      1.15626216180141      0.83880773225004
  H   -0.43474027105666      1.90807321403256      0.08646545882093
  H   -0.04858392349971      1.30663871069035      1.70740817787789
  H   -1.72564473923581      1.29896380464083      1.14172055426484
  C   -1.51725181385437     -0.47609221107366     -0.88392671427612
  H   -2.53668321727538     -0.37400971295206     -0.50870730886092
  H   -1.36440323598302      0.26019714876423     -1.67692556457930
  H   -1.40565412608478     -1.47957257729706     -1.30027269368949
  N   1.93469540785323     -0.44040474191083      0.81853039499551
  O   2.38019683954415     -1.50104499112210      1.24066407423951
  O   2.24194446673560      0.68807855614536      1.18856057359754
  C   1.24958886111030      0.36703177366316     -1.34638323152874
  N   1.50402822720200      1.09080986901670     -2.23578927577462
