13

C	0.0	0.0	0.0
C	-0.53853	0.396605	-1.38377
Br	1.937811	0.0	0.0
H	-1.643411	0.352142	-1.253122
H	-0.288456	-1.043075	0.170744
N	-0.492083	0.950335	0.953882
H	-0.194451	0.679712	1.884599
H	-1.515638	0.87694	0.915614
C	-0.148212	-0.556344	-2.421852
N	0.14453	-1.325911	-3.258854
C	-0.147354	1.754228	-1.761833
N	0.140933	2.838812	-2.107324
Cl	-3.45766	0.0	0.0
