13

C	0.0	0.0	0.0
C	-0.258945	0.170131	-1.554595
Br	2.002832	0.0	0.0
H	0.542045	0.825006	-1.916328
H	-0.343207	-0.976624	0.333445
N	-0.475872	1.011501	0.858981
H	-0.243281	1.933558	0.507161
H	-1.498484	0.894887	0.877382
C	-1.476673	0.836245	-2.049411
N	-2.164003	1.484537	-2.752809
C	-0.069185	-1.114658	-2.234236
N	0.12639	-2.134378	-2.783489
Cl	-3.299765	0.0	0.0
