13

C	0.0	0.0	0.0
C	-0.427403	0.366106	-1.491452
Br	1.953352	0.0	0.0
H	0.483411	0.47145	-2.093311
H	-0.320037	-1.021792	0.192656
N	-0.455548	0.832794	1.055071
H	-1.474642	0.707573	1.080343
H	-0.255045	1.806302	0.851731
C	-1.077522	1.676222	-1.553054
N	-1.388663	2.806274	-1.619791
C	-1.182327	-0.708963	-2.139065
N	-1.571567	-1.620723	-2.770106
Cl	-3.260107	0.0	0.0
