13

C	0.0	0.0	0.0
C	-0.454132	0.255858	-1.481339
Br	1.943825	0.0	0.0
H	0.452852	0.365427	-2.086427
H	-0.284429	-1.017965	0.278758
N	-0.461332	1.04161	0.863871
H	-0.198938	0.814783	1.81698
H	-1.488023	0.993259	0.803827
C	-1.178562	1.512491	-1.687433
N	-1.62091	2.557888	-1.987223
C	-1.142913	-0.90529	-2.054826
N	-1.50655	-1.868161	-2.619524
Cl	-3.273865	0.0	0.0
