13

C	0.0	0.0	0.0
C	-0.458757	-0.22757	-1.484305
Br	1.94182	0.0	0.0
H	0.446024	-0.305416	-2.099132
H	-0.288361	-0.873612	0.590076
N	-0.454988	1.266421	0.486967
H	-0.188743	1.353103	1.462081
H	-1.481422	1.20538	0.448727
C	-1.197625	0.894474	-2.074667
N	-1.617038	1.792578	-2.70426
C	-1.136933	-1.517047	-1.654832
N	-1.484274	-2.617773	-1.872227
Cl	-3.264852	0.0	0.0
