13

C	0.0	0.0	0.0
C	-0.408548	0.068777	-1.533355
Br	2.011972	0.0	0.0
H	0.50618	0.03794	-2.1351
H	-0.295545	-0.971673	0.389786
N	-0.441064	1.018964	0.874667
H	-0.271532	1.93319	0.469864
H	-1.455305	0.884549	0.960318
C	-1.044245	1.344622	-1.8615
N	-1.392416	2.424172	-2.164631
C	-1.175305	-1.105613	-1.955811
N	-1.530898	-2.117706	-2.435489
Cl	-3.237587	0.0	0.0
