13

C	0.0	0.0	0.0
C	-0.388751	-0.426268	-1.483902
Br	2.00286	0.0	0.0
H	0.536344	-0.533037	-2.061984
H	-0.319226	-0.781938	0.685427
N	-0.428649	1.262372	0.472311
H	-0.220921	1.986304	-0.206471
H	-1.447411	1.183277	0.570839
C	-1.131919	0.622759	-2.184782
N	-1.493128	1.524324	-2.844919
C	-1.020986	-1.744926	-1.533564
N	-1.331843	-2.873241	-1.641307
Cl	-3.205026	0.0	0.0
