17

C	-0.391138	0.011744	-1.46517
C	0.0	0.0	0.0
Cl	0.179277	1.516193	-2.218213
H	1.095605	0.0	0.0
C	0.192333	-1.173823	-2.198108
H	1.265639	-1.180724	-1.980549
H	0.012529	-1.087673	-3.269057
H	-0.256872	-2.097457	-1.82557
N	-1.914607	0.010406	-1.658013
O	-2.622469	0.079791	-0.655475
O	-2.332277	-0.080434	-2.809281
C	-0.415005	-1.256179	0.620358
N	-0.72256	-2.257293	1.157328
N	-0.392465	1.182113	0.739404
H	0.39121	1.442065	1.327853
H	-1.215465	1.021534	1.301414
H	2.655711	0.0	0.0
