17

C	-0.426655	0.006148	-1.460903
C	0.0	0.0	0.0
Cl	0.348752	1.382372	-2.271768
H	1.101365	0.0	0.0
C	-0.042578	-1.27225	-2.171377
H	-0.284716	-1.203946	-3.234353
H	-0.570338	-2.116337	-1.728647
H	1.035356	-1.400941	-2.043716
N	-1.947967	0.204533	-1.541845
O	-2.599641	-0.766675	-1.161531
O	-2.418871	1.263798	-1.931127
C	-0.441253	-1.205232	0.682855
N	-0.717508	-2.169701	1.296878
N	-0.52823	1.193419	0.687012
H	-0.384544	1.046451	1.681238
H	0.106989	1.948845	0.436179
H	2.677646	0.0	0.0
