17

C	-0.370564	0.099766	-1.476173
C	0.0	0.0	0.0
Cl	-2.147362	0.376866	-1.718191
H	1.094279	0.0	0.0
C	0.41347	1.199201	-2.148392
H	1.468825	1.059365	-1.888804
H	0.270472	1.171873	-3.229194
H	0.071187	2.161775	-1.768728
N	-0.044514	-1.233874	-2.143815
O	-0.831325	-2.162119	-1.991159
O	1.02712	-1.292982	-2.741645
C	-0.547419	-1.175036	0.663585
N	-0.947068	-2.108826	1.256187
N	-0.300307	1.198724	0.764653
H	0.518919	1.797579	0.72827
H	-1.117943	1.684509	0.421079
H	2.615249	0.0	0.0
