17

C	-0.613698	0.059022	-1.394424
C	0.0	0.0	0.0
Cl	0.055838	-1.259696	-2.397963
H	1.105033	0.0	0.0
C	-2.123505	-0.002963	-1.416173
H	-2.496132	0.058301	-2.436923
H	-2.511018	0.836513	-0.834757
H	-2.445327	-0.942041	-0.963949
N	-0.176845	1.361284	-2.069617
O	0.806956	1.937381	-1.631092
O	-0.841795	1.716653	-3.043713
C	-0.441124	-1.222922	0.654808
N	-0.820286	-2.173665	1.236346
N	-0.408838	1.1943	0.750231
H	-0.984004	0.947654	1.546328
H	0.455364	1.606708	1.094776
H	2.637952	0.0	0.0
