17

C	-0.473271	-0.01922	-1.466005
C	0.0	0.0	0.0
Cl	-0.291803	-1.652185	-2.128967
H	1.10654	0.0	0.0
C	-1.89117	0.470054	-1.674169
H	-1.974886	1.464427	-1.238879
H	-2.131593	0.488712	-2.740692
H	-2.578861	-0.208834	-1.166451
N	0.429621	0.931737	-2.278337
O	0.910885	0.552486	-3.337055
O	0.526761	2.061238	-1.814778
C	-0.507733	-1.159094	0.706813
N	-0.929627	-2.049306	1.352254
N	-0.405605	1.234283	0.687099
H	0.462458	1.719789	0.909541
H	-0.860692	1.005669	1.561574
H	2.611157	0.0	0.0
