17

C	-0.409757	-0.001762	-1.459068
C	0.0	0.0	0.0
Cl	-2.204556	0.114413	-1.652966
H	1.092539	0.0	0.0
C	0.278289	1.114772	-2.200834
H	1.356446	0.989941	-2.038323
H	0.030415	1.077974	-3.260527
H	-0.034277	2.058201	-1.758818
N	-0.014465	-1.31576	-2.130691
O	-0.169332	-1.379241	-3.347329
O	0.448577	-2.205777	-1.425859
C	-0.54297	-1.100689	0.784549
N	-1.001449	-1.901593	1.514674
N	-0.324764	1.300149	0.590113
H	0.472435	1.560069	1.165369
H	-1.150362	1.242021	1.171732
H	2.64693	0.0	0.0
