17

C	0.0	0.0	0.0
C	-0.561755	0.062876	-1.421346
F	1.361916	0.0	0.0
H	-1.658445	0.012352	-1.308347
C	-0.554083	1.039333	0.934754
H	-0.134694	0.885556	1.930373
H	-0.283856	2.032942	0.573083
H	-1.64565	0.939107	0.955078
N	-0.345721	-1.379981	0.587888
O	-1.318728	-1.97254	0.134819
O	0.392641	-1.777985	1.487012
N	-0.109133	-0.981346	-2.324395
H	-0.627979	-1.824064	-2.114819
H	0.878806	-1.155244	-2.18439
C	-0.209041	1.376129	-1.979975
N	0.067128	2.429898	-2.417307
Br	-4.027913	0.0	0.0
