17

C	-0.524387	0.000905	-1.424934
C	0.0	0.0	0.0
Br	0.005564	-1.66477	-2.358624
H	1.101748	0.0	0.0
H	0.008503	0.775703	-1.982542
C	-2.030446	0.141799	-1.557118
H	-2.341825	1.122114	-1.184159
H	-2.520728	-0.628551	-0.961669
H	-2.349408	0.054354	-2.597984
N	-0.549964	-1.1417	0.756407
H	-0.068129	-1.968074	0.41002
H	-0.209022	-1.0298	1.707916
C	-0.412917	1.290579	0.700739
H	0.184578	1.393523	1.611713
H	-0.193176	2.163708	0.079366
H	-1.473595	1.290996	0.969308
H	3.016734	0.0	0.0
