17

C	-0.443085	0.036514	-1.466848
C	0.0	0.0	0.0
Br	-0.038639	-1.677274	-2.361052
H	1.095591	0.0	0.0
H	0.201085	0.748063	-1.988655
C	-1.909371	0.351752	-1.720321
H	-2.144022	0.308353	-2.786195
H	-2.137595	1.358402	-1.358185
H	-2.563616	-0.356987	-1.203529
N	-0.454569	-1.139883	0.789182
H	0.188531	-1.904184	0.616935
H	-1.378373	-1.443882	0.497453
C	-0.424261	1.295782	0.687165
H	-1.499722	1.324656	0.898384
H	0.114866	1.349606	1.634803
H	-0.15233	2.175212	0.093126
H	2.9848	0.0	0.0
