16

C	0.0	0.0	0.0
C	-0.5004	-0.221812	-1.435064
F	1.378235	0.0	0.0
H	-1.582855	-0.396919	-1.347687
N	-0.494381	1.233983	0.507789
H	-1.518573	1.17899	0.433925
H	-0.264803	1.298417	1.494179
C	-0.336737	-1.185759	0.846331
N	-0.517542	-2.107847	1.551314
C	0.141281	-1.409818	-1.996508
N	0.672826	-2.335217	-2.487081
C	-0.238943	0.998011	-2.321319
H	-0.823697	1.841897	-1.960576
H	0.819175	1.265934	-2.305475
H	-0.53422	0.774708	-3.348775
Cl	-3.496128	0.0	0.0
