16

C	0.0	0.0	0.0
C	-0.50045	0.269392	-1.424785
F	1.38448	0.0	0.0
H	-1.580898	0.066753	-1.399629
N	-0.489175	0.994674	0.891202
H	-0.253204	0.729402	1.841066
H	-1.513557	0.972489	0.80959
C	-0.331069	-1.401066	0.402629
N	-0.500014	-2.512568	0.743695
C	0.14587	-0.655759	-2.354398
N	0.652987	-1.368906	-3.137701
C	-0.250964	1.719123	-1.848897
H	-0.853283	2.385941	-1.234823
H	-0.534677	1.848002	-2.89546
H	0.802948	1.978824	-1.72956
Cl	-3.495053	0.0	0.0
