16

C	0.0	0.0	0.0
C	-0.231611	0.231198	-1.540521
F	1.389358	0.0	0.0
H	0.475252	-0.455884	-2.019322
N	-0.555244	0.917315	0.918588
H	-0.446254	1.86438	0.570627
H	-1.55691	0.718693	1.002414
C	-0.409255	-1.378136	0.346354
N	-0.678159	-2.486723	0.620692
C	0.241862	1.588204	-1.830582
N	0.589251	2.688895	-2.049147
C	-1.617346	0.006563	-2.130564
H	-1.980163	-0.989921	-1.881838
H	-1.543475	0.10516	-3.217741
H	-2.355063	0.700253	-1.740756
Cl	-3.975041	0.0	0.0
