16

C	0.0	0.0	0.0
C	-0.49906	-0.201345	-1.438336
F	1.377864	0.0	0.0
H	-1.587372	-0.341909	-1.355597
N	-0.495	1.230193	0.517713
H	-1.518673	1.17561	0.43715
H	-0.274135	1.282887	1.506247
C	-0.342285	-1.194051	0.830708
N	-0.546026	-2.136598	1.501412
C	0.104997	-1.407844	-2.003092
N	0.60685	-2.347735	-2.497961
C	-0.188597	1.012799	-2.317836
H	-0.731677	1.880028	-1.946666
H	0.88127	1.230836	-2.306783
H	-0.500033	0.809298	-3.344515
Cl	-3.502058	0.0	0.0
