16

C	0.0	0.0	0.0
C	-0.45052	0.274368	-1.454267
F	1.394411	0.0	0.0
H	-1.533794	0.087339	-1.452567
N	-0.474461	0.901507	0.991931
H	-1.491967	0.772736	1.032708
H	-0.291001	1.851513	0.690973
C	-0.375032	-1.38455	0.380416
N	-0.519477	-2.508547	0.683724
C	0.206555	-0.653266	-2.373271
N	0.734266	-1.370041	-3.14045
C	-0.174682	1.719966	-1.877015
H	-0.84045	2.398313	-1.340883
H	-0.373331	1.840726	-2.94291
H	0.867095	1.991247	-1.685983
Cl	-3.45059	0.0	0.0
