16

C	0.0	0.0	0.0
C	-0.229329	0.40708	-1.505476
F	1.389774	0.0	0.0
H	0.466145	-0.233856	-2.059585
N	-0.554634	0.805363	1.017553
H	-0.449516	1.786479	0.779717
H	-1.555943	0.59813	1.0839
C	-0.407407	-1.409673	0.179467
N	-0.673202	-2.546063	0.295654
C	0.264955	1.780519	-1.637971
N	0.629123	2.894361	-1.719164
C	-1.619261	0.273956	-2.11275
H	-1.541295	0.466111	-3.187151
H	-2.01504	-0.727537	-1.950045
H	-2.335458	0.954249	-1.662676
Cl	-3.965446	0.0	0.0
