19

C	-0.306616	0.113929	-1.494569
C	0.0	0.0	0.0
Cl	-1.986784	0.661812	-1.853375
H	1.094099	0.0	0.0
C	0.704493	1.053843	-2.121307
H	0.461501	2.076107	-1.827618
H	0.676356	0.983767	-3.209329
H	1.684613	0.778166	-1.710947
N	-0.168588	-1.267072	-2.149197
O	0.910262	-1.51668	-2.672771
O	-1.122729	-2.031283	-2.078812
N	-0.536673	-1.250834	0.589313
O	0.084243	-2.290016	0.365963
O	-1.558446	-1.188695	1.282322
C	-0.457861	1.199522	0.800746
H	0.041807	2.08901	0.41427
H	-1.537901	1.341592	0.793059
H	-0.125492	1.065408	1.831776
F	2.590733	0.0	0.0
