19

C	-0.547722	-0.054098	-1.426835
C	0.0	0.0	0.0
Cl	0.454343	-1.05797	-2.504658
H	1.103332	0.0	0.0
C	-1.998159	-0.470846	-1.574318
H	-2.335449	-0.304502	-2.598079
H	-2.077198	-1.528283	-1.336234
H	-2.627577	0.110288	-0.899174
N	-0.407388	1.384738	-1.951128
O	0.711628	1.790076	-2.228997
O	-1.439283	2.055936	-1.99572
N	-0.387464	-1.208354	0.747753
O	-0.505381	-1.122513	1.975224
O	-0.489512	-2.277746	0.137243
C	-0.387716	1.251541	0.767511
H	-1.467331	1.424209	0.836822
H	0.022517	1.160092	1.770287
H	0.092796	2.112264	0.302827
F	2.484771	0.0	0.0
