19

C	-0.583882	-0.160711	-1.404356
C	0.0	0.0	0.0
Cl	0.396125	-1.231079	-2.43423
H	1.104454	0.0	0.0
C	-2.035035	-0.600925	-1.475771
H	-2.411628	-0.495937	-2.49401
H	-2.093053	-1.644155	-1.176849
H	-2.646575	0.009311	-0.810244
N	-0.482223	1.239041	-2.032528
O	-1.511406	1.916232	-2.023442
O	0.607687	1.618328	-2.434682
N	-0.38678	-1.144332	0.844725
O	-0.470969	-2.261481	0.322967
O	-0.525619	-0.958789	2.058513
C	-0.356461	1.309879	0.68181
H	0.092807	1.292162	1.671996
H	0.112404	2.127484	0.134239
H	-1.431686	1.496675	0.778172
F	2.485514	0.0	0.0
