19

C	-0.524	-0.136565	-1.435942
C	0.0	0.0	0.0
Cl	0.562484	-1.095739	-2.469157
H	1.103607	0.0	0.0
C	-1.934696	-0.677613	-1.567508
H	-2.612019	-0.133927	-0.90788
H	-2.283044	-0.577266	-2.596011
H	-1.9252	-1.730896	-1.297847
N	-0.500143	1.288751	-2.003753
O	0.576107	1.763663	-2.334499
O	-1.575128	1.889466	-2.01566
N	-0.43084	-1.180793	0.7713
O	-0.235785	-2.293014	0.274544
O	-0.929016	-1.020966	1.893729
C	-0.417145	1.278375	0.700286
H	-1.498196	1.444111	0.743189
H	-0.028229	1.240299	1.716234
H	0.067665	2.119432	0.203865
F	2.496645	0.0	0.0
