16

C	0.0	0.0	0.0
C	-0.474321	0.140259	-1.435647
Br	2.046616	0.0	0.0
H	-0.192398	1.10456	-1.851151
H	-1.569991	0.019959	-1.401855
C	-0.429117	1.231285	0.774662
H	-1.523939	1.261308	0.73894
H	0.003673	2.13733	0.347956
H	-0.101893	1.149114	1.814041
N	-0.489922	-1.153306	0.600097
H	-0.330515	-2.003394	0.084053
H	-0.288289	-1.229714	1.583964
N	0.073691	-0.875333	-2.372189
O	0.487543	-0.474718	-3.458457
O	0.055472	-2.056934	-2.026979
Br	-3.931439	0.0	0.0
