16

C	0.0	0.0	0.0
C	-0.209711	-0.149647	-1.528806
Br	1.991747	0.0	0.0
H	0.530065	0.451014	-2.052896
H	-0.09381	-1.201649	-1.783159
C	-0.439591	1.33618	0.570335
H	-0.034183	2.177915	0.007882
H	-1.532888	1.358719	0.535575
H	-0.108537	1.407304	1.610674
N	-0.521854	-1.155284	0.663768
H	-0.467359	-1.009945	1.667296
H	-1.525127	-1.177826	0.437049
N	-1.488653	0.310329	-2.15978
O	-1.713505	1.51629	-2.118486
O	-2.126897	-0.523136	-2.793934
Br	-3.893039	0.0	0.0
