16

C	0.0	0.0	0.0
C	-0.241908	-0.106829	-1.528354
Br	1.990327	0.0	0.0
H	-0.227571	-1.160324	-1.801723
H	0.542328	0.430531	-2.058568
C	-0.422989	1.317539	0.627296
H	-0.073395	1.344217	1.663208
H	-0.022941	2.178929	0.092303
H	-1.515644	1.34951	0.611705
N	-0.519819	-1.171865	0.637953
H	-1.528404	-1.175025	0.430634
H	-0.442	-1.056482	1.643772
N	-1.476836	0.48403	-2.143545
O	-1.646443	1.689645	-1.993055
O	-2.119144	-0.246154	-2.890502
Br	-3.858354	0.0	0.0
