16

C	0.0	0.0	0.0
C	-0.497862	-0.001928	-1.446345
Br	1.951651	0.0	0.0
H	-0.188173	-0.923635	-1.929204
H	-1.590597	0.0937	-1.41737
C	-0.44536	1.219991	0.794161
H	-0.110901	1.10935	1.830059
H	-1.53802	1.250453	0.764359
H	-0.041001	2.147834	0.389112
N	-0.470169	-1.262055	0.53594
H	-0.242991	-1.295792	1.524758
H	-1.492778	-1.225899	0.46904
N	0.032452	1.109437	-2.270216
O	-0.367193	2.245616	-2.024607
O	0.832082	0.825945	-3.161763
Br	-3.830332	0.0	0.0
