16

C	0.0	0.0	0.0
C	-0.425638	-0.070945	-1.466086
Br	2.055773	0.0	0.0
H	-1.518264	-0.19166	-1.453917
H	-0.131308	0.819868	-2.016443
C	-0.426061	1.340645	0.562526
H	-1.519523	1.381279	0.516589
H	0.005104	2.167098	-0.003712
H	-0.104049	1.404385	1.602668
N	-0.443973	-1.049168	0.851771
H	-1.442587	-0.892638	1.009074
H	-0.344365	-1.938092	0.377655
N	0.150371	-1.214358	-2.21678
O	0.722849	-0.96923	-3.277625
O	0.008025	-2.343908	-1.746445
Br	-3.781118	0.0	0.0
