12

C	0.0	0.0	0.0
C	-0.648906	-0.01753	-1.349656
Br	1.941971	0.0	0.0
H	-1.7614	-0.030741	-0.971462
H	-0.321914	0.90822	0.505967
H	-0.319262	-0.864089	0.581672
C	-0.369799	-1.233524	-2.105943
N	-0.188668	-2.196501	-2.759863
N	-0.397878	1.211005	-2.09306
H	0.485964	1.152065	-2.587132
H	-1.135433	1.333972	-2.777044
H	-2.964014	0.0	0.0
