12

C	0.0	0.0	0.0
C	-0.619105	-0.088715	-1.377643
Br	1.939605	0.0	0.0
H	-1.719657	-0.173617	-1.044412
H	-0.343426	0.915581	0.479106
H	-0.319955	-0.844856	0.610032
C	-0.206634	-1.285986	-2.096117
N	0.127951	-2.259431	-2.665801
N	-0.485943	1.09374	-2.213688
H	0.444278	1.487892	-2.115242
H	-1.161134	1.769904	-1.869484
H	-2.927015	0.0	0.0
