12

C	0.0	0.0	0.0
C	-0.453293	0.059376	-1.488817
Br	1.939675	0.0	0.0
H	0.280021	-0.529402	-2.053036
H	-0.363421	0.839371	0.588129
H	-0.331142	-0.935557	0.446035
C	-0.28596	1.445063	-1.974828
N	-0.153991	2.539213	-2.381732
N	-1.77117	-0.429174	-1.813036
H	-1.74987	-1.442498	-1.73635
H	-2.500712	-0.129145	-1.091927
H	-3.523969	0.0	0.0
