12

C	0.0	0.0	0.0
C	-0.511655	0.069487	-1.451694
Br	1.936462	0.0	0.0
H	0.280741	-0.309053	-2.10659
H	-0.323488	-0.949431	0.419583
H	-0.351561	0.823305	0.61585
C	-0.675739	1.494448	-1.849106
N	-0.770882	2.601585	-2.232736
N	-1.67029	-0.785734	-1.595408
H	-2.448815	-0.460515	-0.93089
H	-2.037486	-0.683483	-2.538612
H	-3.508787	0.0	0.0
