12

C	0.0	0.0	0.0
C	-0.667134	-0.096664	-1.346387
Br	1.939591	0.0	0.0
H	-1.766514	-0.185271	-0.946557
H	-0.304916	-0.83814	0.624387
H	-0.334785	0.916025	0.482577
C	-0.279684	-1.287112	-2.08613
N	0.037608	-2.259893	-2.670665
N	-0.617417	1.089806	-2.179944
H	0.282019	1.547145	-2.099201
H	-1.332315	1.715094	-1.820713
H	-2.933417	0.0	0.0
