12

C	0.0	0.0	0.0
C	-0.488763	0.217076	-1.444945
Br	1.936328	0.0	0.0
H	0.291223	-0.158955	-2.117179
H	-0.328547	-0.985343	0.321223
H	-0.355293	0.761069	0.688999
C	-0.553629	1.672789	-1.731119
N	-0.578894	2.808025	-2.03733
N	-1.69913	-0.545427	-1.676108
H	-2.457924	-0.297749	-0.956478
H	-2.082116	-0.287809	-2.580622
H	-3.537635	0.0	0.0
