16

C	-0.593606	-0.055488	-1.407553
C	0.0	0.0	0.0
F	0.172943	-0.916727	-2.166506
H	1.095919	0.0	0.0
N	-1.93783	-0.418536	-1.424525
H	-2.287228	-0.602813	-0.495709
H	-2.50527	0.195585	-1.986178
N	-0.38641	1.295419	-2.115156
O	0.715489	1.805802	-1.989916
O	-1.317279	1.733813	-2.790901
N	-0.487993	-1.202687	0.716842
H	-0.078019	-1.163071	1.645616
H	-0.032745	-1.990016	0.260233
C	-0.520009	1.184333	0.685461
N	-0.967403	2.113009	1.24785
Br	3.461313	0.0	0.0
