16

C	-0.224453	0.010852	-1.519549
C	0.0	0.0	0.0
F	0.113012	1.26232	-1.980065
H	1.099009	0.0	0.0
N	0.489701	-1.030905	-2.127823
H	0.501719	-0.904328	-3.132914
H	1.447409	-1.016543	-1.771332
N	-1.692015	-0.138312	-1.951597
O	-2.02276	0.405434	-2.999312
O	-2.423911	-0.831153	-1.249745
N	-0.385795	-1.180693	0.74538
H	0.358065	-1.861759	0.673133
H	-1.246112	-1.568433	0.388287
C	-0.56073	1.212577	0.594309
N	-1.04966	2.165943	1.0739
Br	3.402388	0.0	0.0
