16

C	-0.316389	0.10132	-1.506761
C	0.0	0.0	0.0
F	-1.607416	0.494591	-1.751287
H	1.094149	0.0	0.0
N	0.589497	0.952104	-2.125683
H	0.549522	0.909387	-3.133951
H	1.540285	0.803242	-1.786828
N	-0.29674	-1.355902	-2.077832
O	-1.331186	-2.01546	-2.000814
O	0.774667	-1.749366	-2.529527
N	-0.475788	-1.162449	0.717115
H	-1.378796	-1.467689	0.379572
H	0.196293	-1.910811	0.61394
C	-0.487109	1.231133	0.631253
N	-0.894583	2.195682	1.162341
Br	3.423923	0.0	0.0
