16

C	-0.539111	0.013707	-1.427158
C	0.0	0.0	0.0
F	0.171261	-0.923066	-2.154615
H	1.091944	0.0	0.0
N	-1.924656	-0.198461	-1.465162
H	-2.105836	-1.031388	-0.916202
H	-2.232175	-0.312297	-2.421361
N	-0.264891	1.318437	-2.155721
O	-0.730386	1.384638	-3.291577
O	0.388125	2.184243	-1.587575
N	-0.438824	-1.29083	0.585473
H	-0.824848	-1.133224	1.508012
H	0.398279	-1.853087	0.701109
C	-0.530587	1.109263	0.784761
N	-0.962566	1.935672	1.497975
Br	3.420957	0.0	0.0
