16

C	-0.516452	0.019122	-1.432586
C	0.0	0.0	0.0
F	0.113099	-1.018814	-2.10134
H	1.095257	0.0	0.0
N	-1.913776	-0.054268	-1.49777
H	-2.215168	-0.23077	-2.447776
H	-2.208985	-0.791499	-0.866967
N	-0.100358	1.26119	-2.199665
O	0.449818	2.168205	-1.590184
O	-0.390941	1.250923	-3.39296
N	-0.489727	-1.280789	0.571228
H	-0.455793	-1.200986	1.581384
H	0.210303	-1.974379	0.321822
C	-0.539215	1.10465	0.785835
N	-0.985645	1.929089	1.492689
Br	3.447186	0.0	0.0
