15

C	-0.412349	0.038751	-1.470091
C	0.0	0.0	0.0
Cl	-2.194777	-0.175825	-1.634955
H	1.092239	0.0	0.0
H	-0.219976	1.066626	-1.784914
C	0.342933	-0.909827	-2.380449
H	0.040292	-1.940476	-2.216134
H	1.41069	-0.813492	-2.164093
H	0.151628	-0.637276	-3.420918
N	-0.420122	-1.252482	0.709211
O	-0.233372	-2.308743	0.115001
O	-0.875154	-1.147273	1.845074
C	-0.508664	1.159921	0.719631
N	-0.905888	2.141196	1.227988
Cl	3.187151	0.0	0.0
