15

C	-0.40757	0.042717	-1.473073
C	0.0	0.0	0.0
Cl	-2.191936	-0.153238	-1.641944
H	1.097048	0.0	0.0
H	-0.199732	1.066509	-1.792505
C	0.335287	-0.92604	-2.372105
H	0.143169	-0.666162	-3.415674
H	1.404296	-0.840914	-2.158071
H	0.02055	-1.951264	-2.19347
N	-0.441794	-1.25893	0.682458
O	-1.102513	-1.164989	1.713127
O	-0.088758	-2.31007	0.159324
C	-0.511022	1.156446	0.72296
N	-0.903383	2.129202	1.250836
Cl	3.191019	0.0	0.0
