15

C	-0.501174	-0.021113	-1.445276
C	0.0	0.0	0.0
Cl	0.031493	1.495594	-2.228513
H	1.092217	0.0	0.0
H	0.024277	-0.827073	-1.955038
C	-2.006035	-0.155454	-1.572815
H	-2.336826	-1.098765	-1.132565
H	-2.507701	0.674839	-1.071802
H	-2.295495	-0.147808	-2.625274
N	-0.367362	-1.296514	0.673929
O	-0.307345	-2.308142	-0.021862
O	-0.642754	-1.271158	1.869502
C	-0.543453	1.111288	0.765086
N	-0.971544	2.035945	1.349002
Cl	3.162566	0.0	0.0
