15

C	-0.53521	0.042453	-1.429973
C	0.0	0.0	0.0
Cl	-0.0241	-1.450999	-2.271694
H	1.092039	0.0	0.0
H	-1.625758	0.01438	-1.406146
C	-0.003561	1.26204	-2.158506
H	1.087216	1.272618	-2.112044
H	-0.391487	2.171637	-1.692037
H	-0.32492	1.243379	-3.201472
N	-0.525475	-1.228952	0.700849
O	0.280337	-1.963976	1.253474
O	-1.7456	-1.392595	0.661721
C	-0.502677	1.153731	0.740346
N	-0.907697	2.101581	1.304212
Cl	3.253738	0.0	0.0
