16

C	0.0	0.0	0.0
C	-0.500623	-0.013331	-1.460908
Cl	1.860367	0.0	0.0
H	0.291214	0.452476	-2.062399
H	-0.220548	-0.941269	0.507183
N	-0.464213	1.127409	0.733416
H	0.26821	1.610683	1.224651
H	-0.980021	1.734561	0.107443
N	-1.680454	0.833295	-1.565766
H	-2.486699	0.458569	-0.99208
H	-1.975677	0.870674	-2.534892
C	-0.691917	-1.459161	-1.923256
H	-0.901402	-1.487941	-2.997891
H	-1.549046	-1.884106	-1.398975
H	0.198611	-2.068471	-1.733357
H	-3.738276	0.0	0.0
