16

C	0.0	0.0	0.0
C	-0.27774	-0.059202	-1.518746
Cl	1.912759	0.0	0.0
H	0.458426	-0.742683	-1.961982
H	-0.227899	-0.952272	0.477028
N	-0.580285	1.070852	0.686698
H	-0.724891	1.822079	0.018535
H	-1.494981	0.778452	1.033123
N	-0.121508	1.303151	-2.039123
H	0.862425	1.508148	-2.166354
H	-0.584934	1.375687	-2.935036
C	-1.668616	-0.59414	-1.805545
H	-1.901736	-0.468716	-2.870679
H	-1.701285	-1.666732	-1.588292
H	-2.471695	-0.144736	-1.197426
H	-3.923308	0.0	0.0
