16

C	0.0	0.0	0.0
C	-0.403648	-0.08614	-1.517982
Cl	1.78355	0.0	0.0
H	0.450358	0.319268	-2.072187
H	-0.276871	-0.924768	0.518132
N	-0.536932	1.189265	0.604764
H	-1.557357	1.04118	0.551176
H	-0.296111	1.185408	1.591892
N	-1.572886	0.66277	-1.929898
H	-2.369504	0.376721	-1.327978
H	-1.406765	1.641033	-1.713339
C	-0.583099	-1.551022	-1.894016
H	-1.469488	-1.940496	-1.387006
H	-0.738019	-1.635397	-2.971902
H	0.288916	-2.148984	-1.609508
H	-3.318079	0.0	0.0
