16

C	0.0	0.0	0.0
C	-0.500347	-0.052584	-1.44712
Cl	1.799023	0.0	0.0
H	-1.593388	-0.046837	-1.309899
H	-0.255716	-0.959526	0.469735
N	-0.549329	1.14299	0.667373
H	-1.575587	0.994412	0.547028
H	-0.371079	1.057231	1.665441
N	-0.149461	-1.284259	-2.151583
H	-0.637863	-2.055828	-1.705086
H	0.846975	-1.45097	-2.042963
C	-0.077793	1.155856	-2.261659
H	-0.300532	2.074409	-1.71711
H	0.99482	1.1328	-2.480171
H	-0.62031	1.150116	-3.210028
H	-3.131038	0.0	0.0
