16

C	0.0	0.0	0.0
C	-0.399209	-0.034681	-1.501347
Cl	1.840298	0.0	0.0
H	0.291318	0.663277	-1.999235
H	-0.339678	-0.894073	0.541918
N	-0.430491	1.22217	0.636236
H	-1.203269	1.017028	1.254761
H	0.308796	1.741364	1.081889
N	-1.748872	0.414442	-1.761223
H	-2.468253	-0.061065	-1.158967
H	-1.831601	1.395986	-1.500854
C	-0.183739	-1.42683	-2.061248
H	0.851192	-1.744171	-1.937744
H	-0.412127	-1.449497	-3.130761
H	-0.853894	-2.135238	-1.568435
H	-3.842072	0.0	0.0
