16

C	0.0	0.0	0.0
C	-0.589519	0.045782	-1.388198
Cl	1.856635	0.0	0.0
H	-1.667613	-0.079111	-1.151959
H	-0.261208	-0.960268	0.439806
N	-0.468551	1.055334	0.810257
H	-0.035411	1.938669	0.585629
H	-0.384907	0.85889	1.795548
N	-0.128689	-1.1147	-2.149337
H	0.761729	-0.904317	-2.588153
H	-0.801514	-1.301604	-2.882898
C	-0.396518	1.386094	-2.08517
H	-0.852971	1.344749	-3.078279
H	0.665922	1.63009	-2.204748
H	-0.897632	2.183669	-1.531604
H	-3.611141	0.0	0.0
