16

C	0.0	0.0	0.0
C	-0.352145	0.087244	-1.528012
Cl	1.803465	0.0	0.0
H	0.382796	0.778997	-1.962273
H	-0.305988	-0.968974	0.398349
N	-0.540612	1.016175	0.84912
H	-1.548689	0.81181	0.889592
H	-0.440812	1.915569	0.388395
N	-1.67036	0.589371	-1.858095
H	-1.706115	1.582676	-1.655166
H	-2.398751	0.188936	-1.226629
C	-0.162914	-1.28034	-2.180083
H	-0.368019	-1.194031	-3.248593
H	-0.88176	-1.989027	-1.756289
H	0.848513	-1.670765	-2.035813
H	-3.453151	0.0	0.0
