13
Coordinates from ORCA-job run
  C   0.78315776473366     -0.65294496438985      0.20671014964677
  C   -0.37358348851835     -0.33337369299949     -0.71989243171866
  F   0.30035595789666     -1.38071501786184      1.29401336937337
  H   -0.80023681598522     -1.28617139848900     -1.04597166678785
  H   1.49042732452453     -1.33526009215906     -0.28571420385751
  H   0.02371275470229      0.15648111590150     -1.61685948569118
  N   1.38520420478788      0.54100469475621      0.72674497917895
  H   1.53602828199078      1.21926383708788     -0.00730168406589
  H   2.26907357321940      0.33743969121513      1.17409252004550
  C   -1.44772485296658      0.52479263756556     -0.05928848768487
  H   -1.06100519101677      1.50264167550889      0.22724050405994
  H   -1.81372748384009      0.03615292878518      0.84403023254431
  H   -2.29168202952819      0.67168858507889     -0.73680379504288
