12

C	0.0	0.0	0.0
C	-0.547236	0.157077	-1.429005
Br	1.940038	0.0	0.0
H	-1.661171	0.141262	-1.252741
H	-0.363521	-0.944624	0.4049
C	-0.411158	1.107439	0.861345
N	-0.569409	2.014423	1.59137
C	-0.161085	-0.973016	-2.26724
N	0.130202	-1.888134	-2.944182
C	-0.149049	1.418215	-2.042901
N	0.14932	2.436043	-2.54803
Cl	-3.258891	0.0	0.0
