12

C	0.0	0.0	0.0
C	-0.439004	0.158586	-1.501265
Br	1.943276	0.0	0.0
H	0.484167	0.238775	-2.0892
H	-0.35116	-0.945307	0.404216
C	-0.397684	1.109247	0.860907
N	-0.486613	2.035617	1.58006
C	-1.169795	1.392639	-1.802298
N	-1.531673	2.440221	-2.193573
C	-1.100762	-1.048154	-2.004293
N	-1.406112	-2.054297	-2.528326
Cl	-2.931757	0.0	0.0
