12

C	0.0	0.0	0.0
C	-0.435573	-0.253645	-1.491082
Br	1.942793	0.0	0.0
H	0.488728	-0.333623	-2.077478
H	-0.354163	-0.801553	0.643589
C	-0.398045	1.303737	0.516995
N	-0.483442	2.397449	0.939647
C	-1.1683	0.852061	-2.110776
N	-1.51257	1.780576	-2.743706
C	-1.091378	-1.553739	-1.651531
N	-1.374238	-2.669087	-1.892618
Cl	-2.924358	0.0	0.0
