12

C	0.0	0.0	0.0
C	-0.439223	-0.482031	-1.429412
Br	1.943174	0.0	0.0
H	0.482918	-0.624797	-2.00718
H	-0.354291	-0.686294	0.764258
C	-0.393773	1.369539	0.313846
N	-0.483045	2.510006	0.586214
C	-1.208216	0.495361	-2.203316
N	-1.576056	1.284537	-2.99394
C	-1.063226	-1.806533	-1.378568
N	-1.353619	-2.943408	-1.414307
Cl	-2.926674	0.0	0.0
