12

C	0.0	0.0	0.0
C	-0.442713	0.13295	-1.501719
Br	1.943048	0.0	0.0
H	0.479301	0.209338	-2.091988
H	-0.354459	-0.935047	0.425087
C	-0.394477	1.130359	0.834752
N	-0.492294	2.073326	1.530223
C	-1.18187	1.355502	-1.82626
N	-1.552043	2.391382	-2.239731
C	-1.090216	-1.091106	-1.980125
N	-1.353387	-2.124848	-2.471873
Cl	-2.93466	0.0	0.0
