15
Coordinates from ORCA-job run
  C   0.40290756695187      0.00911648893966     -0.31618030384925
  C   -0.63180489310794     -0.56203552425474      0.63085950882103
  H   0.53842410927676     -0.69924268520200     -1.14519452274188
  H   -0.80708422681635      0.11247590389828      1.46883538676261
  H   -0.35172932608138     -1.55025250881567      1.00544698269331
  C   1.71940492725470      0.15914431326088      0.43428776634386
  H   2.05964828827775     -0.79484402628421      0.84342786533523
  H   1.60571269058625      0.87660334403282      1.25040473606306
  H   2.49876572126467      0.52889361186974     -0.23721913690737
  N   -0.05449301670479      1.32438902790718     -0.75883139068501
  H   -0.77199644076694      1.20916067777675     -1.46472202901406
  H   0.71408420750550      1.82335170519830     -1.19075281396488
  N   -1.97105884853555     -0.75243076113959     -0.01573522387960
  O   -2.02124236769474     -0.81131157095058     -1.24398472205259
  O   -2.92953839140984     -0.87501799623681      0.73935789707554
