15
Coordinates from ORCA-job run
  C   0.34226721515244     -0.02330973754406     -0.35650518925023
  C   -0.61074701903447     -0.57981493085977      0.68907798004087
  H   0.39674950558252     -0.75951301497758     -1.16341397648571
  H   -0.77370982221771      0.12161447447890      1.50825701137563
  H   -0.26736013350795     -1.54138044073926      1.07550204596855
  C   1.72979650704020      0.17129683567660      0.25294366324829
  H   1.68899475893396      0.89003907269041      1.07763016846258
  H   2.14347627075927     -0.76589528174164      0.63665702131433
  H   2.41964125283017      0.56214737217975     -0.49876652866492
  N   -0.26507388481451      1.17823149540685     -0.91690550810950
  H   0.20705400433573      1.44758380086148     -1.77071075674096
  H   -0.18566459121026      1.95042708296551     -0.26403883138518
  N   -1.94378149325600     -0.82074093669206      0.06837522691807
  O   -2.90684247251995     -0.21224596380787      0.52458395575098
  O   -1.97380009807344     -1.61843982789724     -0.86468628244281
