15
Coordinates from ORCA-job run
  C   0.32081699790831     -0.02533385610832     -0.37574563020005
  C   -0.59942299245492     -0.57669613171316      0.70126639283633
  H   0.29515313705434     -0.73161749181089     -1.21037550171078
  H   -0.68446429584975      0.10065182957084      1.55192561823303
  H   -0.28120772137624     -1.56639447144803      1.03450876261394
  C   1.74740582681299      0.08150840419011      0.16060064973749
  H   1.78642389872190      0.76799410129538      1.01242153700169
  H   2.13649302607083     -0.88805084802655      0.48499481831412
  H   2.41262352460679      0.47023733419027     -0.61405296543361
  N   -0.25793265804606      1.22365343596060     -0.85773451563003
  H   0.18187948326078      1.50496926456469     -1.72489557576114
  H   -0.10775945666176      1.96498695385433     -0.18186680644532
  N   -1.97417605787259     -0.73335610462886      0.14830584370622
  O   -2.09247911198964     -1.49277167264976     -0.80941222938974
  O   -2.88135360018499     -0.10078074724065      0.68005960212785
