15
Coordinates from ORCA-job run
  C   0.40455431739606      0.07381469087678     -0.55990169667085
  C   -0.77573313856628     -0.86542407993134     -0.31944704553195
  H   0.81497986677863     -0.24135660591938     -1.53534701496956
  H   -1.48241265444023     -0.82923070757635     -1.14896392064708
  H   -0.43725528964654     -1.88865775367930     -0.15338826104620
  C   1.50704994823982     -0.06031488285786      0.48018963899377
  H   1.14787350010742      0.25590752408866      1.45874993003202
  H   1.86043960166342     -1.09139306598668      0.55048241497047
  H   2.35742226185526      0.56798472250898      0.20018551390385
  N   -0.09302724472393      1.44406371062262     -0.55398900765906
  H   -0.77921913690242      1.58787814850581     -1.28594640193705
  H   0.67031798503121      2.09055109619393     -0.71069957168048
  N   -1.54359116322334     -0.45537893946640      0.88822136882371
  O   -2.59235451411796      0.15778859618498      0.70911858092367
  O   -1.05904433945113     -0.74523245356447      1.98073547249475
