15
Coordinates from ORCA-job run
  C   0.35499512447615      0.12145099960018     -0.34854861797171
  C   -0.53982119419140     -0.75333232889742      0.50455985359762
  H   0.37160658788643     -0.29264742567609     -1.36618774830909
  H   -0.59461091678505     -0.37553854402551      1.52541169892215
  H   -0.21420717512367     -1.79701597894746      0.51473698636521
  C   1.76348772775493      0.08711235130100      0.22899988052864
  H   1.76681459764949      0.51388742147847      1.23479143569387
  H   2.15465530213633     -0.93185095400090      0.27342122749094
  H   2.44284604147626      0.67641918631750     -0.39246712901754
  N   -0.15600895883838      1.48943726622928     -0.29801487534725
  H   -0.96346843539155      1.56811959387153     -0.90473081428904
  H   0.54735078430858      2.12819921501839     -0.64930921017394
  N   -1.95649274498320     -0.78931765519439      0.01495181392630
  O   -2.80168399551046     -1.17368136182410      0.81603699599276
  O   -2.17646274486445     -0.47224178525048     -1.15365149740891
