13

C	0.0	0.0	0.0
C	-0.546607	-0.153628	-1.414464
Br	1.959007	0.0	0.0
H	-1.620059	0.045296	-1.321642
H	-0.304673	0.956424	0.425959
H	-0.094396	0.62863	-2.031716
C	-0.400468	-1.079226	0.900663
N	-0.605196	-1.982576	1.622963
C	-0.327937	-1.532653	-2.016783
H	-0.87888	-2.282114	-1.444747
H	0.728918	-1.812464	-2.041691
H	-0.71095	-1.55235	-3.040613
Br	-3.759192	0.0	0.0
