13

C	0.0	0.0	0.0
C	-0.463285	0.086626	-1.457273
Br	1.95941	0.0	0.0
H	-1.528573	0.325065	-1.420844
H	-0.330968	0.863065	0.576333
H	0.074196	0.922073	-1.918116
C	-0.397939	-1.231004	0.679246
N	-0.625979	-2.225613	1.261248
C	-0.254397	-1.204948	-2.237493
H	0.754001	-1.609366	-2.116537
H	-0.422255	-1.032826	-3.304056
H	-0.974359	-1.953773	-1.90293
Br	-3.595158	0.0	0.0
