17

C	0.0	0.0	0.0
C	-0.628885	0.004575	-1.432754
Cl	1.737009	0.0	0.0
H	0.235247	-0.066769	-2.100217
N	-0.400469	1.060818	1.066656
O	-1.194604	1.941656	0.805469
O	0.166967	0.902781	2.143632
N	-0.367164	-1.347238	0.730085
O	-1.280257	-1.311378	1.534687
O	0.306807	-2.316687	0.424137
N	-1.293664	1.271157	-1.701261
H	-1.562858	1.221746	-2.680274
H	-2.153033	1.185391	-1.138408
N	-1.422266	-1.201645	-1.575025
H	-2.287734	-0.96197	-1.024182
H	-1.653405	-1.292319	-2.557353
F	-3.030221	0.0	0.0
