17

C	0.0	0.0	0.0
C	-0.598913	0.027624	-1.416238
Cl	1.74778	0.0	0.0
H	-1.695902	0.035088	-1.158286
N	-0.399326	1.235319	0.823936
O	-1.02266	2.132158	0.276611
O	0.010118	1.259164	1.979068
N	-0.44292	-1.235858	0.820118
O	0.014432	-2.299036	0.421597
O	-1.149865	-1.075678	1.797483
N	-0.223346	-1.170874	-2.117141
H	-0.924346	-1.395314	-2.808369
H	0.682851	-1.05715	-2.557892
N	-0.083337	1.219322	-2.120911
H	-0.618143	2.018634	-1.802406
H	-0.319056	1.073853	-3.096218
F	-2.760252	0.0	0.0
