17

C	0.0	0.0	0.0
C	-0.44152	0.000363	-1.502329
Cl	1.770769	0.0	0.0
H	-1.496659	-0.263487	-1.408177
N	-0.435744	1.180433	0.873059
O	-0.924369	2.165004	0.337334
O	-0.160415	1.108261	2.06289
N	-0.467031	-1.323249	0.638007
O	-0.3427	-1.446973	1.846934
O	-0.829536	-2.202408	-0.125717
N	0.337184	-0.992269	-2.222762
H	0.947092	-0.519985	-2.878248
H	-0.277742	-1.638188	-2.69061
N	-0.203545	1.306647	-2.124827
H	-0.650781	1.241734	-3.03327
H	-0.731601	1.987752	-1.594612
F	-2.474133	0.0	0.0
