13

C	0.0	0.0	0.0
C	-0.568617	0.224787	-1.394658
Br	1.939986	0.0	0.0
H	-1.622432	0.490478	-1.2323
H	-0.351022	-0.958243	0.373045
H	-0.315685	0.794685	0.669896
N	-0.496176	-0.857064	-2.316907
H	-1.297658	-1.454587	-2.158617
H	0.364899	-1.380674	-2.224529
N	0.08799	1.462286	-1.967561
O	0.752873	1.371153	-2.994141
O	-0.077312	2.495937	-1.32081
Br	-3.637959	0.0	0.0
