13

C	0.0	0.0	0.0
C	-0.558658	0.004557	-1.400025
Br	1.943123	0.0	0.0
H	-1.651944	0.071602	-1.26532
H	-0.33456	-0.907867	0.494256
H	-0.328739	0.876663	0.548586
N	-0.206871	-1.139915	-2.159119
H	0.762777	-1.101664	-2.445554
H	-0.785243	-1.199099	-2.985064
N	-0.161819	1.321864	-2.080074
O	0.23103	1.269723	-3.246826
O	-0.292656	2.355106	-1.430731
Br	-3.687545	0.0	0.0
