13

C	0.0	0.0	0.0
C	-0.568315	0.220851	-1.394278
Br	1.939816	0.0	0.0
H	-1.623147	0.481098	-1.233114
H	-0.353218	-0.956415	0.375077
H	-0.317418	0.795588	0.667852
N	-0.488756	-0.861939	-2.314798
H	-1.290796	-1.459874	-2.162018
H	0.371423	-1.385584	-2.216466
N	0.082671	1.46107	-1.968944
O	-0.083784	2.49386	-1.320608
O	0.742873	1.373501	-2.999723
Br	-3.636289	0.0	0.0
