13

C	-0.513817	0.042293	-1.429222
C	0.0	0.0	0.0
Br	-0.207592	-1.642302	-2.354002
H	1.090565	0.0	0.0
H	0.024582	0.800373	-1.991373
H	-1.588734	0.226784	-1.480972
N	-0.423691	-1.118428	0.783235
H	-1.176487	-0.850782	1.40375
H	0.366905	-1.388432	1.360371
N	-0.343585	1.293829	0.621748
O	-0.300456	2.305627	-0.095187
O	-0.548196	1.329797	1.844497
H	2.575361	0.0	0.0
