13

C	-0.540921	0.036287	-1.411231
C	0.0	0.0	0.0
Br	-0.236212	-1.654473	-2.34508
H	1.0986	0.0	0.0
H	-1.617146	0.200149	-1.428006
H	-0.020771	0.792233	-1.990148
N	-0.532614	-1.099088	0.796046
H	-0.087558	-1.00733	1.706197
H	-0.136951	-1.943123	0.386683
N	-0.344705	1.259337	0.652946
O	-0.482813	2.269295	-0.05752
O	-0.320717	1.28559	1.891287
H	2.612157	0.0	0.0
