13

C	-0.586812	-0.074038	-1.396705
C	0.0	0.0	0.0
Br	-0.41481	1.547567	-2.46314
H	1.089738	0.0	0.0
H	-1.652591	-0.304166	-1.357047
H	-0.044073	-0.856465	-1.924162
N	-0.408435	-1.193865	0.686338
H	-1.305611	-1.056321	1.134603
H	0.302393	-1.414739	1.375325
N	-0.531841	1.236975	0.685064
O	-1.667628	1.159607	1.177701
O	0.159286	2.248998	0.695985
H	2.798316	0.0	0.0
