13

C	-0.356826	-0.052391	-1.452628
C	0.0	0.0	0.0
Br	-2.282097	-0.352679	-1.791844
H	1.096597	0.0	0.0
H	0.157068	-0.899665	-1.904825
H	-0.104767	0.870061	-1.964471
N	-0.392645	-1.105421	0.804854
H	0.421065	-1.679678	0.989777
H	-1.140284	-1.646299	0.394618
N	-0.418565	1.300953	0.601716
O	-0.445499	2.284838	-0.150501
O	-0.596691	1.362742	1.816446
H	2.60979	0.0	0.0
