13

C	-0.613493	0.076428	-1.373573
C	0.0	0.0	0.0
Br	0.368757	1.172758	-2.676267
H	1.09548	0.0	0.0
H	-0.612644	-0.927844	-1.787836
H	-1.62337	0.487337	-1.361722
N	-0.284897	-1.266587	0.637959
H	0.571882	-1.532471	1.121624
H	-1.001229	-1.146288	1.343712
N	-0.389088	1.139566	0.823049
O	-0.33155	1.00789	2.058415
O	-0.650607	2.214656	0.258804
H	2.485032	0.0	0.0
