13

C	-0.35798	0.003634	-1.453905
C	0.0	0.0	0.0
Br	-2.287263	-0.259662	-1.798805
H	1.093673	0.0	0.0
H	0.144743	-0.832845	-1.937324
H	-0.095204	0.940944	-1.932197
N	-0.398576	-1.129494	0.764773
H	0.411456	-1.714934	0.927914
H	-1.153321	-1.649563	0.341159
N	-0.414519	1.284597	0.643502
O	-0.645351	1.301476	1.850535
O	-0.384163	2.298267	-0.068031
H	2.616533	0.0	0.0
