13

C	-0.341938	-0.028345	-1.457845
C	0.0	0.0	0.0
Br	-2.265189	-0.313115	-1.819977
H	1.093666	0.0	0.0
H	0.173488	-0.868118	-1.920825
H	-0.081908	0.902651	-1.949374
N	-0.402654	-1.1154	0.784827
H	0.410076	-1.698104	0.951061
H	-1.147202	-1.648225	0.358597
N	-0.434256	1.29891	0.602329
O	-0.284029	2.30484	-0.10474
O	-0.814267	1.330615	1.771953
H	2.620534	0.0	0.0
