15

C	0.0	0.0	0.0
C	-0.317108	0.170259	-1.548954
Br	1.96607	0.0	0.0
H	0.419602	-0.462398	-2.056543
H	-0.059522	1.210094	-1.789986
C	-0.41	1.174526	0.763695
N	-0.657963	2.147144	1.375284
C	-0.599914	-1.264749	0.567346
H	-0.292777	-2.12407	-0.036592
H	-1.691398	-1.089375	0.498944
H	-0.292616	-1.423201	1.60385
N	-1.630002	-0.156922	-2.025027
H	-1.693362	-1.166337	-2.097229
H	-2.352168	0.084619	-1.289097
F	-3.138951	0.0	0.0
