15

C	0.0	0.0	0.0
C	-0.54868	0.024068	-1.424756
Br	1.961069	0.0	0.0
H	-1.604638	-0.252582	-1.265303
H	0.006358	-0.71602	-2.011033
C	-0.390513	1.209666	0.729433
N	-0.601865	2.195983	1.331915
C	-0.498095	-1.239983	0.731618
H	-0.097529	-1.285356	1.746622
H	-0.18083	-2.132483	0.182753
H	-1.5949	-1.1161	0.712042
N	-0.393589	1.35152	-2.030551
H	-0.533146	1.260542	-3.030471
H	-1.174739	1.904951	-1.687281
F	-2.865482	0.0	0.0
