15

C	0.0	0.0	0.0
C	-0.496005	0.002747	-1.438996
Br	1.973314	0.0	0.0
H	-0.181915	-0.954167	-1.886303
H	-1.5926	0.012353	-1.272329
C	-0.383465	1.24156	0.675646
N	-0.613679	2.256599	1.219813
C	-0.493985	-1.224675	0.749707
H	-0.141527	-1.218976	1.783601
H	-0.122754	-2.126008	0.252118
H	-1.592502	-1.123956	0.677918
N	-0.040249	1.177324	-2.169788
H	-0.707806	1.403094	-2.893476
H	0.859263	1.006699	-2.600198
F	-2.842429	0.0	0.0
