15

C	0.0	0.0	0.0
C	-0.509829	0.016547	-1.440203
Br	1.974077	0.0	0.0
H	-1.604871	-0.01297	-1.258653
H	-0.223847	0.97219	-1.902937
C	-0.390199	1.237928	0.676534
N	-0.589886	2.251782	1.236526
C	-0.490113	-1.221293	0.759708
H	-0.116938	-1.216007	1.786662
H	-0.145297	-2.114892	0.238571
H	-1.587221	-1.108483	0.710635
N	-0.041136	-1.156213	-2.172087
H	0.847201	-0.962669	-2.618087
H	-0.714751	-1.384307	-2.89106
F	-2.850913	0.0	0.0
