18

C	0.0	0.0	0.0
C	-0.558079	-0.167112	-1.421088
F	1.388149	0.0	0.0
H	-1.571786	-0.558508	-1.28182
C	-0.369477	1.315255	0.568528
N	-0.55933	2.376528	1.032603
C	-0.478465	-1.104267	0.923931
H	0.000121	-0.995177	1.899848
H	-1.564195	-1.036033	1.021276
H	-0.207714	-2.075954	0.505304
C	0.295251	-1.143537	-2.21691
H	1.270728	-0.700781	-2.425287
H	0.439834	-2.087221	-1.686763
H	-0.200439	-1.370176	-3.166072
N	-0.576974	1.128406	-2.10911
H	-1.366683	1.651601	-1.736794
H	-0.799795	0.955038	-3.084436
Cl	-3.74136	0.0	0.0
