18

C	0.0	0.0	0.0
C	-0.355959	-0.075245	-1.518248
F	1.398272	0.0	0.0
H	0.31409	-0.876206	-1.862621
C	-0.39707	1.28615	0.600588
N	-0.628198	2.335423	1.074411
C	-0.540673	-1.160355	0.796851
H	-0.254607	-2.097751	0.311554
H	-0.134399	-1.14405	1.810584
H	-1.631106	-1.083194	0.838726
C	0.036795	1.220127	-2.218818
H	1.034899	1.553368	-1.926447
H	0.009307	1.060251	-3.297956
H	-0.681245	2.007648	-1.975601
N	-1.699822	-0.436138	-1.888094
H	-2.406965	0.158416	-1.456321
H	-1.933017	-1.365982	-1.562518
Cl	-4.262804	0.0	0.0
