18

C	0.0	0.0	0.0
C	-0.368771	0.237763	-1.497733
F	1.395761	0.0	0.0
H	0.294222	-0.477336	-2.006603
C	-0.398282	1.134181	0.854754
N	-0.623531	2.066277	1.532458
C	-0.540002	-1.299372	0.543447
H	-0.258732	-2.117075	-0.12598
H	-1.629749	-1.23225	0.608251
H	-0.126644	-1.492424	1.536026
C	0.01698	1.649886	-1.922864
H	1.030511	1.907149	-1.605779
H	-0.053611	1.720795	-3.009514
H	-0.680684	2.372956	-1.49128
N	-1.71918	-0.041278	-1.91403
H	-2.42377	0.435477	-1.350741
H	-1.94053	-1.022691	-1.80589
Cl	-4.294427	0.0	0.0
