18

C	0.0	0.0	0.0
C	-0.40888	-0.166447	-1.469685
F	1.401734	0.0	0.0
H	0.012848	0.712081	-1.986094
C	-0.377539	1.346456	0.475711
N	-0.608842	2.432368	0.856809
C	-0.522678	-1.074901	0.922426
H	-0.062387	-0.966044	1.906386
H	-1.607074	-0.978863	1.019785
H	-0.274348	-2.046326	0.496618
C	-1.911451	-0.191426	-1.658567
H	-2.14694	-0.156994	-2.726993
H	-2.429018	0.639	-1.177842
H	-2.355039	-1.093458	-1.239792
N	0.186435	-1.417228	-1.944938
H	-0.260428	-1.679686	-2.81453
H	1.173801	-1.282666	-2.121795
Cl	-4.870718	0.0	0.0
