18

C	0.0	0.0	0.0
C	-0.376208	0.237725	-1.494406
F	1.396111	0.0	0.0
H	0.283931	-0.476759	-2.007799
C	-0.395631	1.13308	0.857161
N	-0.631131	2.061802	1.535951
C	-0.536895	-1.300124	0.545657
H	-1.626592	-1.235432	0.611287
H	-0.254708	-2.117675	-0.123711
H	-0.122163	-1.491444	1.537823
C	0.007435	1.649	-1.924114
H	1.024828	1.904168	-1.617644
H	-0.073753	1.718354	-3.010183
H	-0.684207	2.374877	-1.486721
N	-1.728564	-0.041555	-1.902634
H	-1.957729	-1.018944	-1.773398
H	-2.429647	0.449425	-1.347471
Cl	-4.311289	0.0	0.0
