18

C	0.0	0.0	0.0
C	-0.358785	-0.060075	-1.507756
F	1.40093	0.0	0.0
H	0.297787	0.69758	-1.954839
C	-0.363229	1.321267	0.551793
N	-0.560959	2.39208	0.991068
C	-0.569615	-1.106845	0.848246
H	-0.263787	-2.076424	0.453496
H	-1.661813	-1.029355	0.836425
H	-0.21476	-1.015655	1.876641
C	-1.800094	0.279025	-1.82424
H	-2.525606	-0.35558	-1.314197
H	-1.942794	0.182386	-2.903275
H	-2.055253	1.296644	-1.525438
N	0.001224	-1.338778	-2.111239
H	-0.695297	-2.035313	-1.872381
H	0.902114	-1.649711	-1.766816
Cl	-4.650911	0.0	0.0
