15

C	-0.312746	0.091657	-1.484076
C	0.0	0.0	0.0
F	-0.029762	-1.134516	-2.082498
H	1.088548	0.0	0.0
H	-0.338422	0.894885	0.528368
C	-1.71477	0.426902	-1.811011
N	-2.787323	0.80972	-2.097279
C	0.651364	1.11257	-2.078051
H	0.392774	2.123134	-1.755241
H	0.616988	1.06703	-3.169039
H	1.64109	0.841583	-1.67918
N	-0.628226	-1.149755	0.680438
O	-1.563149	-1.73229	0.124986
O	-0.19806	-1.440637	1.796253
F	2.601739	0.0	0.0
