15

C	-0.316024	-0.202373	-1.474161
C	0.0	0.0	0.0
F	-1.649598	-0.594247	-1.687942
H	1.088733	0.0	0.0
H	-0.427649	0.914894	0.404246
C	-0.192288	1.126367	-2.10945
N	-0.132248	2.1818	-2.619029
C	0.644108	-1.175254	-2.136522
H	0.563897	-1.125129	-3.224279
H	1.645315	-0.900538	-1.782343
H	0.410743	-2.179838	-1.789025
N	-0.482257	-1.094667	0.852074
O	-0.465226	-2.249018	0.422457
O	-0.841088	-0.793277	1.993094
F	2.571246	0.0	0.0
