15

C	-0.518394	0.042058	-1.425432
C	0.0	0.0	0.0
F	0.182331	0.959817	-2.196503
H	1.089447	0.0	0.0
H	-0.337509	-0.908581	0.49971
C	-0.259998	-1.297463	-2.003434
N	-0.088603	-2.370728	-2.447715
C	-1.999952	0.360675	-1.583041
H	-2.275097	0.321207	-2.639187
H	-2.604053	-0.360503	-1.028935
H	-2.185221	1.36428	-1.203928
N	-0.472446	1.118008	0.81264
O	-0.693956	0.903372	2.007963
O	-0.56497	2.232234	0.288076
F	2.503546	0.0	0.0
