15

C	-0.315099	-0.071509	-1.468449
C	0.0	0.0	0.0
F	-1.68351	-0.303084	-1.707954
H	1.090889	0.0	0.0
H	-0.357974	-0.902363	0.494845
C	0.035908	1.147521	-2.224499
N	0.324856	2.021998	-2.952381
C	0.510322	-1.223822	-2.024249
H	0.14427	-2.157532	-1.589271
H	0.434038	-1.275137	-3.111567
H	1.540676	-1.051295	-1.696391
N	-0.579594	1.131141	0.725352
O	-0.719964	2.206383	0.141762
O	-0.859999	0.947709	1.91266
F	2.562762	0.0	0.0
