15

C	-0.324768	-0.011224	-1.476449
C	0.0	0.0	0.0
F	0.125565	-1.192246	-2.058668
H	1.088558	0.0	0.0
H	-0.324414	0.934426	0.462881
C	-1.767332	0.102982	-1.779331
N	-2.906362	0.291155	-1.998032
C	0.480225	1.122835	-2.100125
H	0.081831	2.096233	-1.802662
H	0.448666	1.035438	-3.188076
H	1.498373	0.998423	-1.713532
N	-0.596288	-1.089541	0.77851
O	-1.205499	-1.985909	0.191271
O	-0.435532	-1.045843	1.997651
F	2.571002	0.0	0.0
