15

C	-0.306602	0.185072	-1.488549
C	0.0	0.0	0.0
F	-0.247399	-1.11481	-2.02019
H	1.08908	0.0	0.0
H	-0.443212	-0.918287	0.377115
C	-1.676095	0.666747	-1.765475
N	-2.760734	1.05288	-1.998203
C	0.759138	1.011394	-2.181869
H	0.638473	2.062501	-1.921291
H	0.679578	0.880773	-3.263932
H	1.71866	0.660518	-1.78253
N	-0.466926	1.108531	0.830013
O	-0.759665	0.860316	2.000799
O	-0.483568	2.242574	0.337944
F	2.583702	0.0	0.0
