15

C	-0.453607	0.030854	-1.442281
C	0.0	0.0	0.0
F	-0.188151	-1.213833	-2.013795
H	1.088564	0.0	0.0
H	-0.366249	0.883908	0.530823
C	-1.895963	0.287669	-1.641963
N	-3.015558	0.567358	-1.856505
C	0.394732	1.070033	-2.154656
H	1.428056	0.878341	-1.857095
H	0.251749	0.983854	-3.231979
H	0.10516	2.074395	-1.836889
N	-0.554646	-1.175634	0.717396
O	0.176065	-1.748475	1.51834
O	-1.725199	-1.495917	0.49183
F	2.615881	0.0	0.0
