14

C	-0.390853	-0.013241	-1.476156
C	0.0	0.0	0.0
F	0.039412	1.167922	-2.0428
H	1.092387	0.0	0.0
C	0.283356	-1.145022	-2.139919
N	0.768704	-2.045116	-2.717811
C	-1.843253	-0.126522	-1.738434
N	-2.983827	-0.240918	-1.997359
C	-0.556837	-1.143974	0.686323
N	-0.970574	-2.093033	1.244618
N	-0.54817	1.262269	0.602499
O	0.259945	2.120549	0.937349
O	-1.774891	1.35235	0.704149
F	2.435365	0.0	0.0
