14

C	-0.408947	-0.015081	-1.470374
C	0.0	0.0	0.0
F	0.024077	1.159521	-2.049023
H	1.092397	0.0	0.0
C	0.245297	-1.156406	-2.137568
N	0.736706	-2.063663	-2.698547
C	-1.867588	-0.11608	-1.712964
N	-3.010655	-0.219778	-1.962151
C	-0.566594	-1.131375	0.698061
N	-0.996205	-2.070013	1.261741
N	-0.532441	1.275185	0.597724
O	-1.757424	1.385406	0.693621
O	0.286161	2.122684	0.932174
F	2.432759	0.0	0.0
