14

C	-0.308621	-0.036547	-1.503574
C	0.0	0.0	0.0
F	0.180599	1.084387	-2.124691
H	1.092319	0.0	0.0
C	0.342209	-1.224048	-2.091552
N	0.797167	-2.174596	-2.610566
C	-1.760796	-0.100308	-1.786631
N	-2.914598	-0.127482	-2.009182
C	-0.543261	-1.178317	0.636177
N	-0.932463	-2.171376	1.132435
N	-0.566064	1.238612	0.596794
O	-0.008126	2.290334	0.298541
O	-1.542437	1.137133	1.345463
F	2.420314	0.0	0.0
