14

C	-0.417305	-0.015846	-1.468489
C	0.0	0.0	0.0
F	0.011634	1.159988	-2.047866
H	1.092388	0.0	0.0
C	0.235247	-1.155207	-2.139405
N	0.694745	-2.070193	-2.714597
C	-1.875452	-0.117997	-1.702302
N	-3.02241	-0.225999	-1.934099
C	-0.562122	-1.130736	0.702759
N	-0.981741	-2.069443	1.274058
N	-0.528569	1.274067	0.602709
O	-1.75351	1.389734	0.693205
O	0.293835	2.113203	0.948273
F	2.436578	0.0	0.0
