14

C	-0.332699	0.031536	-1.478445
C	0.0	0.0	0.0
F	-1.685781	0.224745	-1.726
H	1.095467	0.0	0.0
C	0.42279	1.067933	-2.203838
N	1.028426	1.851057	-2.833815
C	0.035512	-1.274036	-2.063834
N	0.262217	-2.30083	-2.583448
C	-0.552984	-1.158348	0.659043
N	-1.003244	-2.120299	1.162941
N	-0.422976	1.237352	0.686095
O	-0.54979	2.253311	0.001875
O	-0.5588	1.181233	1.905178
F	2.398061	0.0	0.0
