14

C	-0.331165	0.052217	-1.495034
C	0.0	0.0	0.0
F	-0.079645	-1.211487	-2.000102
H	1.094676	0.0	0.0
C	-1.751969	0.354491	-1.76646
N	-2.891054	0.544459	-1.980519
C	0.525643	1.000631	-2.228258
N	1.160943	1.709968	-2.914874
C	-0.56483	-1.163685	0.635521
N	-0.99603	-2.137003	1.134833
N	-0.419536	1.236133	0.675089
O	-0.506639	1.221164	1.89874
O	-0.585662	2.228799	-0.040864
F	2.402097	0.0	0.0
