17

C	0.0	0.0	0.0
C	-0.328292	0.353145	-1.497238
F	1.396316	0.0	0.0
H	0.585048	0.043627	-2.021598
C	-0.491804	1.023879	0.989489
H	-0.048297	2.000916	0.786458
H	-0.204155	0.708575	1.99573
H	-1.581891	1.077854	0.925167
C	-0.467274	-1.400831	0.320968
H	-0.084367	-1.682132	1.305309
H	-1.559975	-1.417047	0.328922
H	-0.08851	-2.113257	-0.417633
C	-0.448373	1.794467	-1.734603
N	-0.456395	2.951321	-1.934054
C	-1.397802	-0.392025	-2.174863
N	-2.055488	-1.020245	-2.917736
Cl	-3.70784	0.0	0.0
