17

C	0.0	0.0	0.0
C	-0.527907	0.27561	-1.42421
F	1.396619	0.0	0.0
H	-1.634246	0.258676	-1.323233
C	-0.448625	1.105468	0.934191
H	-0.027543	2.063213	0.617936
H	-1.539731	1.157587	0.945543
H	-0.08323	0.884063	1.940028
C	-0.45765	-1.36698	0.460893
H	-0.082005	-1.540279	1.471745
H	-1.549523	-1.401048	0.465596
H	-0.05733	-2.145133	-0.193374
C	-0.108574	-0.759643	-2.372671
N	0.227183	-1.604474	-3.115825
C	-0.099813	1.585345	-1.923348
N	0.255143	2.633368	-2.315989
Cl	-3.690042	0.0	0.0
