17

C	0.0	0.0	0.0
C	-0.402564	-0.091825	-1.519723
F	1.396361	0.0	0.0
H	0.563853	-0.121982	-2.039875
C	-0.445489	1.298685	0.632377
H	-1.536224	1.343181	0.629692
H	-0.032352	2.1515	0.087803
H	-0.074617	1.327848	1.660034
C	-0.448424	-1.211477	0.784139
H	-0.027163	-2.123253	0.353644
H	-1.539136	-1.260212	0.77772
H	-0.088328	-1.112098	1.811451
C	-1.088087	1.088793	-2.053467
N	-1.481572	2.075702	-2.553082
C	-1.081847	-1.332142	-1.906886
N	-1.458589	-2.378591	-2.284252
Cl	-3.602968	0.0	0.0
