17

C	0.0	0.0	0.0
C	-0.267347	0.333257	-1.51309
F	1.396301	0.0	0.0
H	0.567776	-0.175454	-2.012642
C	-0.510053	1.039364	0.961429
H	-0.076933	2.017812	0.746045
H	-1.600862	1.075315	0.885024
H	-0.231325	0.748111	1.97773
C	-0.491874	-1.392148	0.314673
H	-0.109621	-2.111171	-0.416246
H	-0.134323	-1.680877	1.306677
H	-1.585916	-1.391845	0.303904
C	-0.084258	1.762121	-1.794069
N	0.112513	2.898797	-2.01261
C	-1.461047	-0.176445	-2.201984
N	-2.231217	-0.579974	-2.992401
Cl	-3.779647	0.0	0.0
