17

C	0.0	0.0	0.0
C	-0.530113	0.022914	-1.450586
F	1.390503	0.0	0.0
H	-1.635997	0.020918	-1.344738
C	-0.453921	1.247023	0.730903
H	-0.079456	1.20512	1.756619
H	-0.045673	2.140524	0.251789
H	-1.544673	1.288154	0.742672
C	-0.454153	-1.269586	0.690773
H	-0.045015	-2.14671	0.183082
H	-0.081445	-1.260973	1.717899
H	-1.545104	-1.311434	0.699134
C	-0.105479	-1.157715	-2.206508
N	0.243268	-2.105317	-2.805229
C	-0.104291	1.227523	-2.16817
N	0.248846	2.190586	-2.739115
Cl	-3.693162	0.0	0.0
