17

C	0.0	0.0	0.0
C	-0.401665	0.070178	-1.519798
F	1.396589	0.0	0.0
H	0.561771	0.018684	-2.043705
C	-0.450966	1.212198	0.78014
H	-1.541668	1.255602	0.773815
H	-0.035051	2.12426	0.345936
H	-0.089043	1.117224	1.807127
C	-0.441531	-1.298212	0.637272
H	-0.032897	-2.150937	0.088962
H	-0.060829	-1.328412	1.66132
H	-1.532257	-1.343644	0.644362
C	-1.00137	1.342358	-1.937082
N	-1.305854	2.415567	-2.301178
C	-1.16687	-1.075754	-2.025969
N	-1.615837	-2.022046	-2.556833
Cl	-3.606059	0.0	0.0
