18

C	0.0	0.0	0.0
C	-0.495875	-0.066891	-1.444624
Br	1.986943	0.0	0.0
H	-1.590653	-0.141003	-1.300644
N	-0.487397	1.204181	0.602992
H	-0.423335	1.090859	1.612436
H	-1.500593	1.195909	0.382132
C	-0.419015	-1.254381	0.749868
H	-1.517677	-1.242801	0.717597
H	-0.02964	-2.160164	0.288581
H	-0.085274	-1.191161	1.790984
N	-0.040782	-1.301324	-2.085918
H	-0.600583	-1.448955	-2.919269
H	0.925979	-1.18224	-2.373412
N	-0.213145	1.178354	-2.150736
H	0.785662	1.3538	-2.128662
H	-0.496577	1.06938	-3.117829
H	-3.204469	0.0	0.0
