18

C	0.0	0.0	0.0
C	-0.500436	0.025147	-1.448508
Br	1.986936	0.0	0.0
H	-1.587741	0.144914	-1.283539
N	-0.481924	1.144476	0.72282
H	-0.356686	1.946132	0.108562
H	-1.503931	0.981782	0.771695
C	-0.453161	-1.252869	0.719586
H	-0.180596	-1.174912	1.77364
H	-1.548856	-1.272464	0.628359
H	0.001019	-2.151449	0.299289
N	-0.182748	-1.206153	-2.188319
H	-0.697198	-1.96744	-1.75343
H	-0.596187	-1.099002	-3.111159
N	-0.006372	1.201258	-2.137411
H	0.927944	1.000344	-2.481004
H	-0.608329	1.405779	-2.926895
H	-3.234879	0.0	0.0
