16
Coordinates from ORCA-job run
  C   0.68178400951444     -0.39154129432681      0.41495589137047
  C   -0.83576757949127     -0.29142326538963      0.20663108400397
  Br  1.08201003454886     -2.32162994193556      0.39616881233929
  H   -1.37768821224762     -0.88847785008146      0.93974571133821
  C   1.57308910520949      0.29439910785168     -0.61641217262748
  H   2.61349668399251      0.14190740439529     -0.32754047917113
  H   1.35930079826597      1.36155954611673     -0.64304239516960
  H   1.41550719810781     -0.13496558412565     -1.60392347200511
  C   0.96737401085818      0.07811529934835      1.76863351083070
  N   1.20423265885275      0.44486383338774      2.86039907164886
  N   -1.26344470470981     -0.76649602427272     -1.15222196558256
  O   -1.85714538271505     -1.83647032359828     -1.19830817967389
  O   -0.98160907673661     -0.02746680386556     -2.09110782087269
  N   -1.38176069152906      1.11558043729396      0.32077064648253
  O   -0.60072719758990      2.03863738405423      0.51432059698120
  O   -2.59965165433071      1.18440807514766      0.21293116010723
