16
Coordinates from ORCA-job run
  C   0.72136172066403     -0.31031490883560      0.14654621828826
  C   -0.75419222536885      0.07698120292359     -0.00569777370925
  Br  1.37272722878407     -1.32568469566001     -1.39038641950532
  H   -1.04250683048495      0.75521938375199      0.79930542648560
  C   1.59894015155099      0.93582197636294      0.30618580452696
  H   1.24546464169161      1.53491688022323      1.14950284221028
  H   2.62421097497455      0.62063673087205      0.49975515290398
  H   1.57713618745961      1.54175147820018     -0.59772216969774
  C   0.84155038212042     -1.13422772734231      1.34771921818634
  N   0.97009648430610     -1.71509253659483      2.36185652462631
  N   -1.73706607157704     -1.06215325864207      0.04769335965932
  O   -1.31921657140135     -2.21010442210901     -0.01746904478728
  O   -2.90278866006078     -0.69615491700475      0.14963679839850
  N   -1.01259913439979      0.81301527226757     -1.29284137878043
  O   -0.73947470123185      2.00872700470570     -1.26703938756188
  O   -1.44464357702678      0.16666253688132     -2.23704517124367
