16
Coordinates from ORCA-job run
  C   0.73692308089341     -0.35881289933373      0.09735894029270
  C   -0.63376360748037     -0.08927946935383     -0.51696937923104
  Br  1.36884211420772     -2.01373747683640     -0.76519153652747
  H   -0.55907626983580      0.03719066646828     -1.59616767335940
  C   1.71664942010725      0.76200750963159     -0.25182622998229
  H   1.73929952457491      0.91467411545718     -1.33285524963063
  H   1.42176853324155      1.68239830893588      0.25263201327433
  H   2.71648835644412      0.48345879393885      0.08121529725784
  C   0.71455283873717     -0.60223039285265      1.53507749382581
  N   0.80373535109054     -0.78027543611222      2.69383580379571
  N   -1.30504837462547      1.15162199562141      0.02194283547845
  O   -0.86890983343196      1.65293668766075      1.05138544269074
  O   -2.26613091451895      1.52950214090844     -0.63912380369679
  N   -1.62320722610420     -1.19529938803834     -0.27233750393081
  O   -1.94006339042135     -1.37339835677365      0.89921251948085
  O   -2.02205960287859     -1.80075679932156     -1.25918896973801
