16
Coordinates from ORCA-job run
  C   0.70481724131334     -0.37551702262563      0.00043655740488
  C   -0.73176849894125      0.14188859355910      0.13932116959762
  Br  0.96028108529682     -1.38807721507276     -1.65072152991173
  H   -0.80002378327712      0.81522593139029      0.99553888934000
  C   1.70639620955051      0.78435002429029      0.01321080161285
  H   1.56945010061333      1.42220001183576     -0.85803021876098
  H   1.57438217846205      1.38054438629583      0.91994778869836
  H   2.71686589997136      0.37594881988072      0.00110739279582
  C   0.97369377413901     -1.24871048285695      1.14120142245348
  N   1.23805405296263     -1.87352021528144      2.10149152116189
  N   -1.78561587004913     -0.90995326981401      0.36058842968260
  O   -2.87210359417892     -0.44939669180630      0.69352656333815
  O   -1.49418131541747     -2.08629785820965      0.19346845852000
  N   -1.16082333137367      0.93975986469867     -1.06255776560933
  O   -0.77767587367906      2.10512262642863     -1.07174201572089
  O   -1.82274827539244      0.36543249728744     -1.91578746460270
