16
Coordinates from ORCA-job run
  C   0.71351219968217     -0.44211053713808      0.02253780336626
  C   -0.64769246544436     -0.04122248408703     -0.53696343604087
  Br  1.31545994052201     -1.96375121334986     -1.06096216459386
  H   -0.57670447291056      0.20561577031328     -1.59469667719965
  C   1.71343234820304      0.70326263229678     -0.15349950029707
  H   1.43985354121224      1.54494473616205      0.48605301989890
  H   2.70648676639945      0.35724508572713      0.13281716441901
  H   1.73545525086326      1.03242258447063     -1.19355588109698
  C   0.67367766465975     -0.84530129351439      1.42407438328176
  N   0.75317979891726     -1.09311475871866      2.57066461183453
  N   -1.15675600930344      1.18889275656466      0.16875059879194
  O   -0.96314172309191      2.25315969747469     -0.40892386119506
  O   -1.68005357257966      1.01511081138749      1.26381185799455
  N   -1.73442038150948     -1.07200393939829     -0.40159402909595
  O   -1.58029321733884     -1.98806124796558      0.39384922604895
  O   -2.71099566828091     -0.85508860022485     -1.11236311611648
