16
Coordinates from ORCA-job run
  C   0.67054222261242     -0.48052421018259      0.33215011677473
  C   -0.83922522203848     -0.35168227746313      0.08258411394429
  Br  1.14048134413050     -2.33467789774585     -0.11775350298989
  H   -1.40371129126186     -1.00954380858142      0.74085728524846
  C   1.57924038886844      0.49222172985552     -0.41551277382115
  H   1.33139044013763      1.51868979315262     -0.13670586820362
  H   2.61138212742430      0.29308439804300     -0.12556952464897
  H   1.46976950576665      0.37228001221466     -1.48926389191123
  C   0.87449709727411     -0.33521751732149      1.77291521475265
  N   1.06598348219755     -0.18425669968192      2.92342754505901
  N   -1.30514430199626     -0.65642620778519     -1.31312678707442
  O   -2.48483569247108     -0.99054711535779     -1.37609038385192
  O   -0.52819079546986     -0.51690615193600     -2.24754095140911
  N   -1.29479602212004      1.05782552641231      0.37844513241647
  O   -1.20532883786070      1.87285073228582     -0.53287228935177
  O   -1.68305444519330      1.25482969409147      1.52405656506645
