16
Coordinates from ORCA-job run
  C   0.71620032679739     -0.38615416033724      0.13614244516875
  C   -0.59093465928631     -0.03818166853609     -0.57072513812335
  Br  1.37248118656315     -2.00908262228823     -0.76792012853065
  H   -0.42326154748072      0.14741169311643     -1.63074133898797
  C   1.75163165551873      0.72051100035955     -0.06598212424612
  H   1.86862995691996      0.93244052798913     -1.13079829921722
  H   1.44089889611186      1.62067684049354      0.46482564790008
  H   2.71235835507647      0.39251308720349      0.33100751653523
  C   0.56694929248062     -0.71001458478574      1.55024366654893
  N   0.55488532236990     -0.97372485095007      2.69596983769811
  N   -1.27001954183526      1.19053442357413     -0.01443142311480
  O   -0.90830011340307      1.61645112350771      1.07594590055610
  O   -2.16121349655104      1.63765540676267     -0.72818408079780
  N   -1.62670537634500     -1.12393357367697     -0.47442758358121
  O   -2.04643161748694     -1.35785892063376      0.65417935300679
  O   -1.95716863944973     -1.65924372179854     -1.52510425081487
