16
Coordinates from ORCA-job run
  C   0.72020772327784     -0.40854495679639      0.14477522764718
  C   -0.58682038834121     -0.13175130469491     -0.59106020472123
  Br  1.48079759210180     -2.01304914175439     -0.69058650920583
  H   -0.41430044113829     -0.01269950251692     -1.65918470107963
  C   1.69434821456451      0.75387727425832     -0.06159117087712
  H   2.66340518433226      0.48666757907529      0.35957772770403
  H   1.32843772544149      1.64813096703798      0.44726560347917
  H   1.81299484882140      0.96643111342554     -1.12525625587989
  C   0.54905090764937     -0.65521857621851      1.57249159203776
  N   0.52210053365953     -0.77774599435817      2.74152722432225
  N   -1.19644403492676      1.15393987763690     -0.09683857522902
  O   -1.80217215780744      1.09635526616949      0.96774474375250
  O   -0.99496160497667      2.14362999481449     -0.79216341272302
  N   -1.65632566395538     -1.17857823338427     -0.43545843311950
  O   -1.54552516793517     -2.00496670270479      0.45903760336361
  O   -2.57479327076726     -1.06647765998965     -1.24128045947128
