16
Coordinates from ORCA-job run
  C   0.72613102168714     -0.37899273446232      0.09914609232255
  C   -0.63326002733388     -0.06751951137910     -0.52082459011373
  Br  1.31766406358386     -2.04508776347529     -0.77045835245881
  H   -0.54918705185898      0.06389423281191     -1.59872846902800
  C   1.73806498108632      0.71656831805755     -0.23756117357842
  H   1.77196981274728      0.87427512168566     -1.31756394705097
  H   2.72782505865073      0.40939902942444      0.10039870225561
  H   1.46515250040019      1.64224257820360      0.26962918868541
  C   0.68808882663592     -0.63149844525225      1.53497593256732
  N   0.76701214743683     -0.83157557878231      2.69092049591934
  N   -1.27223101370164      1.18800626017900      0.02324367463369
  O   -2.21765166882787      1.59818162025482     -0.64117255953584
  O   -0.82949262377571      1.66850866027431      1.05973876134554
  N   -1.65418156813157     -1.14702886438266     -0.28880227228701
  O   -2.06039268580868     -1.73823090280026     -1.28129621688384
  O   -1.98551177278992     -1.32114202035712      0.87935473320717
