16
Coordinates from ORCA-job run
  C   0.65245706876309     -0.43852420346273      0.41448978224262
  C   -0.84611585347303     -0.31468681285830      0.10666809176678
  Br  1.07147315062487     -2.35215251282550      0.19173550475730
  H   -1.43556900862631     -0.99560551742977      0.72028973645286
  C   1.61163017385474      0.36808017977291     -0.45624119163554
  H   1.39001182820983      1.43053580297611     -0.36979434862830
  H   2.62891656537261      0.18292794317450     -0.10976291424042
  H   1.53299915882924      0.06115499304502     -1.49738590599386
  C   0.83283173639887     -0.13739318702369      1.83266540740172
  N   0.98613673649927      0.09365709033261      2.97532254737213
  N   -1.16719959986558     -0.62283902331100     -1.32763349209554
  O   -0.82177995414803      0.22308879054239     -2.14741185951358
  O   -1.74639003894594     -1.67929335403276     -1.54611084605755
  N   -1.41222168069575      1.06835217262821      0.34773626384400
  O   -0.65731576671003      1.96066510498845      0.71299010139968
  O   -2.61886451608784      1.15003253348355      0.15544312292770
