16
Coordinates from ORCA-job run
  C   0.67266795748197     -0.10517873979405      0.41743989287926
  C   -0.70759395737006      0.21359943892735     -0.16868425621854
  Br  0.73810686605274     -1.89361194996324      1.20146084664966
  H   -0.66696212422927      1.15630785542242     -0.71714341504697
  C   1.75803697410538     -0.01281341734341     -0.66047568756468
  H   1.61108697276484     -0.77586101967302     -1.42259141913096
  H   1.73365798910195      0.97411687017114     -1.12998015370639
  H   2.73130810098860     -0.15889385109885     -0.19208600089296
  C   0.95090718128599      0.88202167573381      1.45864487772492
  N   1.23263511042824      1.72517855606434      2.22811635201307
  N   -1.82144318379027      0.37052649869991      0.83207414438501
  O   -2.84502713898204      0.84490096951925      0.35193503601379
  O   -1.63180976769140      0.02480376904487      1.99011391696559
  N   -1.15515573992384     -0.83153807067820     -1.15490229286177
  O   -1.91363306218490     -1.70202903365930     -0.75124018954308
  O   -0.68778217803794     -0.71052955137304     -2.28268165166596
