16
Coordinates from ORCA-job run
  C   0.63356788913984     -0.03183416519484      0.49496454440138
  C   -0.71814461402238      0.27072037743395     -0.16864964353137
  Br  0.52660763339868     -1.57703380649892      1.68911998467596
  H   -0.71730843691185      1.28824226281204     -0.56357122341006
  C   1.71857605361807     -0.26748047193749     -0.55999301489312
  H   1.52900500280799     -1.19266695762237     -1.10113223706332
  H   1.74319543240549      0.57483877519747     -1.25834303804816
  H   2.68742224078748     -0.33842627417439     -0.06609910614426
  C   1.01234174842703      1.12056182633263      1.31153604784018
  N   1.39653744290680      2.05590664407819      1.91154091753488
  N   -1.86958392383732      0.20263007524460      0.80826535785877
  O   -2.75388950406765     -0.61396369120078      0.59663814395491
  O   -1.79041753067219      1.00452768567001      1.72802395810272
  N   -1.04144099775867     -0.62315735758484     -1.32412143506319
  O   -1.55390115202851     -0.05612631608671     -2.28704748795951
  O   -0.80256728419280     -1.81873860646855     -1.21213176825580
