16
Coordinates from ORCA-job run
  C   0.62875675425427     -0.20373271016548      0.44868365091059
  C   -0.67405471207165      0.28885600759314     -0.19175194351375
  Br  0.49557202289674     -2.06088187402615      1.04071056379582
  H   -0.51920419206363      1.27612251749730     -0.63045651682514
  C   1.79636033095497     -0.09631721058122     -0.53813314505739
  H   2.71724681078125     -0.37024390470472     -0.02339352946089
  H   1.88374960000198      0.93098135211380     -0.90156527755933
  H   1.64916027254954     -0.76444453547586     -1.38469906693071
  C   0.90330102109558      0.64655852489737      1.60527174733910
  N   1.18941893950032      1.38086216642516      2.47782313603723
  N   -1.84588959656934      0.43587879785308      0.74200498268698
  O   -2.79198063370400      1.03796532799606      0.24628210714352
  O   -1.77096799716564     -0.03762856874834      1.86750457367402
  N   -1.12364424675482     -0.60800197263577     -1.31365237825117
  O   -1.97363259473180     -1.44982689719980     -1.05867100969761
  O   -0.56519177897380     -0.41014702083860     -2.38795789429125
