16
Coordinates from ORCA-job run
  C   0.70732191630259     -0.43175750623911      0.14089851666223
  C   -0.60316667838454     -0.12120920484202     -0.57525245985306
  Br  1.38544218603832     -2.08653401738052     -0.66702105221079
  H   -0.44776687417133     -0.02881242375256     -1.64863758180069
  C   1.72357392733261      0.68385979139575     -0.11495850957847
  H   2.68931430923682      0.38800384477231      0.29454123951543
  H   1.40447946617336      1.60533662277692      0.37640913114760
  H   1.82915256706979      0.86391170437512     -1.18594321961755
  C   0.55467823910463     -0.63424122301223      1.57761737621413
  N   0.53930159513067     -0.71976939478236      2.75016600946523
  N   -1.15681563317818      1.19533622815451     -0.09588317047129
  O   -0.91663524291406      2.16561046168940     -0.80636241313287
  O   -1.76009408126684      1.17929532891993      0.97143536003250
  N   -1.70544918452643     -1.12565558706579     -0.37862954251274
  O   -1.61508200871409     -1.92591352918082      0.54170171161508
  O   -2.62725450323333     -1.00846109582852     -1.18008139547474
