16
Coordinates from ORCA-job run
  C   0.74793613140891     -0.27100539138604      0.06994114918901
  C   -0.75745766605438      0.01558695475026      0.02892037626850
  Br  1.40865993497849     -0.95288661706459     -1.63767515522190
  H   -1.06223413546081      0.52028264805376      0.94738209954943
  C   1.53559752632591      0.99661671468574      0.41850335140231
  H   1.43064407188787      1.74426586177098     -0.36556560885946
  H   1.17376327598565      1.41235864964868      1.36262963921186
  H   2.58877456755747      0.73701198805357      0.52541790163428
  C   0.98028848741052     -1.27539138152193      1.10597434982080
  N   1.19630479303777     -2.00815179792689      1.99978138368531
  N   -1.64890067825504     -1.19229852535978     -0.08806757350282
  O   -1.14882029888700     -2.27457171453460     -0.36225437503641
  O   -2.83345767661630     -0.94505349303299      0.10913703926772
  N   -1.12402785107062      0.93672230384906     -1.10315946958317
  O   -0.93974427189971      2.12863496814539     -0.87884137713089
  O   -1.54632621034873      0.42787883186937     -2.13212373069455
