16
Coordinates from ORCA-job run
  C   0.70539943792409     -0.39146463697039      0.37165971938286
  C   -0.81939822535571     -0.33650603318296      0.20461660105581
  Br  1.17636129220999     -2.29933751440121      0.21099194750534
  H   -1.32021508984281     -1.00020874483953      0.90911402726072
  C   1.54515655893496      0.39679728794885     -0.62954306883675
  H   1.38058207274872      0.02870877471529     -1.64040879728716
  H   2.59711284817773      0.26637090648520     -0.37354603588312
  H   1.29060953349418      1.45417530976220     -0.57901573710535
  C   1.00778402598567     -0.00513042520711      1.74772047794510
  N   1.25967578301899      0.29475838873317      2.85637350583113
  N   -1.26274950256107     -0.73741968154116     -1.17280816968436
  O   -1.81944086661206     -1.82307029914871     -1.27670743832813
  O   -1.02965321828260      0.07115775627062     -2.06666278560817
  N   -1.41381634325959      1.03819194141406      0.42453053892780
  O   -0.66303644812988      1.97474088442332      0.66677782279772
  O   -2.63537185845060      1.06823608553835      0.34490739202659
