16
Coordinates from ORCA-job run
  C   0.62380978015390     -0.21636828482719      0.44941830247558
  C   -0.66404758308437      0.30941145460816     -0.19526607772597
  Br  0.42477169836450     -2.05246761562963      1.08638368508123
  H   -0.47528604612390      1.27867676917674     -0.66005131486412
  C   1.78837966117257     -0.17622746296989     -0.54613252765795
  H   1.91273026419948      0.83864952201260     -0.93282806273828
  H   2.70137968819579     -0.47376890736118     -0.03046204368421
  H   1.60997860236212     -0.85688266131359     -1.37649498770132
  C   0.93754588138243      0.65062968701787      1.58350204869141
  N   1.25595648912708      1.39429358796593      2.43671969382773
  N   -1.82245412192737      0.52440255591940      0.74205582441823
  O   -1.75871891314742      0.07366981049444      1.87755015051788
  O   -2.74725206626628      1.15234944860679      0.23832105434951
  N   -1.15511887326223     -0.59756422445980     -1.29120692121268
  O   -0.59514542561209     -0.44992281950933     -2.37269872216662
  O   -2.03652903553420     -1.39788085973133     -1.01081010161042
