16
Coordinates from ORCA-job run
  C   0.64456349447415     -0.18815898678006      0.42997804732096
  C   -0.68642340282980      0.26330759680367     -0.18376497891049
  Br  0.59483059966699     -2.06286235201197      0.97835042304470
  H   -0.57325995682459      1.25603242599647     -0.62261615956988
  C   1.79616323543817     -0.00846804213378     -0.56487337110305
  H   1.66539491348297     -0.65892442707422     -1.42754577286847
  H   1.83886322153686      1.03111745855118     -0.90048312488972
  H   2.73271053450036     -0.25886532189919     -0.06665369511909
  C   0.89549315339484      0.64555667198516      1.60387996798910
  N   1.15660270446219      1.36972209229895      2.49266700210497
  N   -1.84198420904698      0.36864284285641      0.77448156601071
  O   -2.79869535460880      0.98669225562916      0.32015335924930
  O   -1.74831218812290     -0.15576693688906      1.87589407656639
  N   -1.13001858170759     -0.64588464432924     -1.29895435563528
  O   -1.97329155051522     -1.49244127300767     -1.03808261534491
  O   -0.57363661330065     -0.45069935999580     -2.37443036884524
