16
Coordinates from ORCA-job run
  C   0.65886803086118     -0.47660450260724      0.35982211607150
  C   -0.84573169105888     -0.33518023243411      0.08677082532685
  Br  1.10410460263439     -2.35496523261380     -0.00644009371885
  H   -1.42792794142484     -0.95743132909620      0.76394577476674
  C   1.59185162097656      0.44975440091683     -0.41622310585535
  H   1.35449176408246      1.49064547631047     -0.18621432785971
  H   1.49605394155202      0.28443121079641     -1.48523713263838
  H   2.61691340759202      0.24969589256622     -0.10272218724577
  C   0.84847213063976     -0.27447348042655      1.79570690273292
  N   1.02960872294786     -0.07975406889535      2.94129451054616
  N   -1.29926009467583     -0.68934088340220     -1.30165907489600
  O   -2.48264099102856     -1.00997478945951     -1.36587602620849
  O   -0.50949527548891     -0.59737580603394     -2.23114052884527
  N   -1.28332723448459      1.09150229258523      0.31962918348284
  O   -1.68481621968793      1.34016473771910      1.45057981303256
  O   -1.16916477343670      1.86790631407464     -0.62223664869176
