16
Coordinates from ORCA-job run
  C   0.69170379758648     -0.42384284436890      0.36145489578035
  C   -0.82284235704070     -0.38390270747942      0.10905075062443
  Br  1.25370814997245     -2.27533841161722      0.01835145140609
  H   -1.35664597633643     -1.01259750268365      0.81919011921877
  C   1.54721710136228      0.54830541396816     -0.44679937292401
  H   2.58948550546803      0.41818838148421     -0.15384959058798
  H   1.24954369485324      1.57537491234758     -0.22373358088615
  H   1.43873419245452      0.36261769104745     -1.51130152992106
  C   0.89214382595425     -0.18593952007326      1.79020189524426
  N   1.07951611005112      0.03606851709370      2.92976942809147
  N   -1.27019325833307     -0.81872799528354     -1.25685517413232
  O   -0.51639744769680     -0.66372538134048     -2.20798898708752
  O   -2.41407645092262     -1.26442789934854     -1.28514219628151
  N   -1.33951045128489      1.02396825322375      0.29815815736614
  O   -1.33042728143223      1.75917077051460     -0.68213475611962
  O   -1.68895915465564      1.30180832251554      1.43962849020867
