16
Coordinates from ORCA-job run
  C   0.70184870600058     -0.41099128313041      0.14088596913012
  C   -0.58759745626361     -0.01996334724098     -0.57556244763791
  Br  1.30935788073301     -2.05541472416640     -0.75879745744521
  H   -0.40664724006914      0.15592360480283     -1.63503321108405
  C   1.77502668310092      0.66048229766688     -0.05352386801983
  H   1.90639625946838      0.86903185658481     -1.11734038339656
  H   1.49077766893371      1.57017333130844      0.47585722432271
  H   2.72139821326790      0.30034550415726      0.34998613172737
  C   0.53240856363309     -0.72958997790512      1.55389210773106
  N   0.50548626192355     -0.98667113397150      2.70087793889235
  N   -1.22692027008641      1.23353313155004     -0.02765079879198
  O   -2.09309872988649      1.71279608899920     -0.75141486777726
  O   -0.86318293032039      1.64543584088508      1.06747825850367
  N   -1.66211193072818     -1.06805518130059     -0.48191834239341
  O   -2.00415239596879     -1.59621607219616     -1.53242023609721
  O   -2.09798928373812     -1.28081993604340      0.64468398233615
