16
Coordinates from ORCA-job run
  C   0.70637688856785     -0.43457641353690      0.13161332272193
  C   -0.60316645743422     -0.10550706574371     -0.57791387410694
  Br  1.38167180219223     -2.07198582062918     -0.71373682399329
  H   -0.44649014982265      0.01529798336275     -1.64824674472768
  C   1.72513401935021      0.68437493275657     -0.09812989638372
  H   1.40750806229735      1.59528178690096      0.41342112373469
  H   2.68982116808834      0.37722230601689      0.30548022358125
  H   1.83198976593558      0.88794571108666     -1.16475053935937
  C   0.55249937372185     -0.66985176377229      1.56317135347905
  N   0.53778006628891     -0.78123584590428      2.73354587862883
  N   -1.15815921649074      1.19772485178474     -0.06450034762992
  O   -0.91251932152437      2.18710558574520     -0.74619352207289
  O   -1.76786560942180      1.15266655510812      0.99827604157748
  N   -1.70455029032531     -1.11591350524999     -0.40978912876205
  O   -2.61891535660659     -0.98727982033103     -1.21808615338042
  O   -1.62111474481665     -1.93126947759453      0.49783908669304
