16
Coordinates from ORCA-job run
  C   0.66606979272863     -0.39732954325967      0.43410478639542
  C   -0.84485854500502     -0.27061118091610      0.19351982532987
  Br  1.02706003631264     -2.33541268358370      0.45303904412496
  H   -1.41232918387818     -0.84122375957845      0.92842237977002
  C   1.59260041061860      0.25409697429856     -0.58858209951511
  H   1.44499070648451     -0.18603641446427     -1.57292188506767
  H   2.62339112312535      0.08350510861160     -0.27625439588429
  H   1.40307832727961      1.32529526829036     -0.63469867968162
  C   0.93159103429694      0.08770534467207      1.78644244178493
  N   1.14648757795261      0.46838394562133      2.87792134472031
  N   -1.25698006384485     -0.76460266591490     -1.16279802837552
  O   -0.93465097840411     -0.05548670959824     -2.11181609575406
  O   -1.87771024490928     -1.81957520803136     -1.19813128608995
  N   -1.36349636467242      1.14942099437525      0.26990135610878
  O   -2.57711306298411      1.24147680722000      0.13417490908066
  O   -0.56813056510093      2.05939372225753      0.46667638305328
