16
Coordinates from ORCA-job run
  C   0.60850580587341     -0.43727225940853      0.47734969041513
  C   -0.86252312686526     -0.27830731536175      0.06844956875054
  Br  0.96735548020558     -2.37355916199949      0.38051844574852
  H   -1.51399225650110     -0.90291702470567      0.67928630085479
  C   1.65001969375464      0.28739463617527     -0.37030896639675
  H   1.46673282552277      1.36025842330420     -0.34885153400101
  H   2.63645071648020      0.08199567098408      0.04668246681211
  H   1.62144839857856     -0.06811394749422     -1.39834483925035
  C   0.71113832176753     -0.06714063478098      1.88691715899489
  N   0.79983835381358      0.21858399840749      3.02403454554687
  N   -1.10609780586912     -0.65488098450619     -1.36452878438350
  O   -1.70982588821953     -1.70165625658870     -1.56251602299120
  O   -0.67986614832163      0.13208766147896     -2.20481354669585
  N   -1.38859312943702      1.13507516418818      0.19859595441212
  O   -2.57633974137650      1.24840321100426     -0.07680142204818
  O   -0.62425149940610      2.01904881930310      0.56433098423187
