16
Coordinates from ORCA-job run
  C   0.67489299102280     -0.39042891490648      0.42679962361240
  C   -0.83580535216132     -0.31595837046348      0.16539532236503
  Br  1.11595065578927     -2.31129491470625      0.36700343498426
  H   -1.38984597353790     -0.95099650977536      0.85611896412289
  C   1.59047206082624      0.34282003401403     -0.54920668771100
  H   1.48119880428834     -0.06179655433535     -1.55360918972318
  H   1.35461445057260      1.40562256364940     -0.55516377075259
  H   2.62183646485068      0.20381842458318     -0.22334170467551
  C   0.89848131396071      0.04455591901703      1.80347767311502
  N   1.08460069299704      0.38607206249751      2.91322669966565
  N   -1.20296351317285     -0.74985423649646     -1.22459355479315
  O   -1.77358319348583     -1.82787420744070     -1.33110637895255
  O   -0.90075845861359      0.02768910232317     -2.12540096748598
  N   -1.41833452944814      1.07328760214357      0.30951901697708
  O   -2.63626899956469      1.11405620274819      0.18810375929911
  O   -0.66348741432336      2.01128179714802      0.53277775995251
