16
Coordinates from ORCA-job run
  C   0.66855442296247     -0.47340927866176      0.34618953970790
  C   -0.83970656736307     -0.34993736133365      0.08531564300508
  Br  1.14070522403728     -2.33696648663027     -0.05982764619344
  H   -1.40771196762593     -0.99435675771345      0.75381483222536
  C   1.58201762479601      0.48248011413318     -0.41716375410966
  H   2.61238991782487      0.28920567252842     -0.11688495299876
  H   1.33315826306808      1.51498372397086     -0.16238045166538
  H   1.47887910606168      0.33928395151427     -1.48869174396569
  C   0.86426164326211     -0.29681361804247      1.78463790786446
  N   1.04933259041213     -0.12230826443058      2.93286329483487
  N   -1.29737139057901     -0.68338483163670     -1.30689860759371
  O   -0.51444739979783     -0.56549305161866     -2.23919048403045
  O   -2.47748779279321     -1.01599391018806     -1.37000176065917
  N   -1.29698605111625      1.06525514587375      0.34879673227110
  O   -1.69341050116894      1.28636234008091      1.48722668235288
  O   -1.20117712198039      1.86109261215421     -0.57880523104537
