16
Coordinates from ORCA-job run
  C   0.71951539199087     -0.43155795893772      0.03404255624578
  C   -0.63963921803089     -0.05206944159971     -0.54504701893338
  Br  1.35715716166679     -1.94889791970941     -1.03462190334626
  H   -0.55784905396266      0.19254017137459     -1.60251562206332
  C   1.70537154734137      0.72717136418940     -0.13371095677584
  H   2.69915297590435      0.39666819334937      0.16801310697289
  H   1.41108456654764      1.56795813113606      0.49776761160391
  H   1.73718236066758      1.05158514300531     -1.17500022228281
  C   0.66659414180703     -0.82949794183128      1.43666445334576
  N   0.73308429274865     -1.07228957098784      2.58517413455531
  N   -1.17615541539307      1.17272777840156      0.14936747992504
  O   -0.99071955777585      2.23777607902303     -0.42960518709661
  O   -1.71203417956882      0.99489094539777      1.23765528131821
  N   -1.71301245819121     -1.09813836488142     -0.42150375861098
  O   -1.55758001515509     -2.00838515258667      0.38036804924119
  O   -2.68115254059669     -0.89948145534305     -1.14904800409888
