16
Coordinates from ORCA-job run
  C   0.66280384770696     -0.38870200201194      0.44596091541434
  C   -0.84576346026761     -0.27677535703491      0.18555559964469
  Br  1.04010042634442     -2.32366569051901      0.48525810513463
  H   -1.41819215313140     -0.84893268475936      0.91530494257792
  C   1.59580135010764      0.26224410114833     -0.57106421210257
  H   2.62420788684968      0.10573754591256     -0.24385238467834
  H   1.39579576294275      1.33087239110199     -0.62997586189161
  H   1.46608722764410     -0.18888147381686     -1.55291028355964
  C   0.91025298172997      0.10868855081564      1.79719403664732
  N   1.11721363483329      0.49722352254030      2.88751136217739
  N   -1.23469195701622     -0.78078092115047     -1.17432414720897
  O   -0.91169552168482     -0.06965335179503     -2.12145219439085
  O   -1.84117300150121     -1.84381694587614     -1.21351917246811
  N   -1.37780385980406      1.13892267192006      0.24735499249234
  O   -2.59022873487855      1.21942235363786      0.09553166529762
  O   -0.59271442987495      2.05709728988698      0.44742663691382
