16
Coordinates from ORCA-job run
  C   0.66861177764250     -0.38098938192041      0.23582245577266
  C   -0.78442705707325      0.07612364408491      0.03791877613944
  Br  1.15853989402566     -1.80781817447453     -1.00861082375711
  H   -1.12474210030309      0.61945703412736      0.92141455503090
  C   1.63247807748800      0.79823026932312      0.07267844156732
  H   1.33229970915388      1.61580680421152      0.73536875901900
  H   2.63764299256394      0.47868702930505      0.34660944073259
  H   1.64127570549149      1.14271320810415     -0.96027640127206
  C   0.80461354453827     -0.91846797393354      1.58869509512166
  N   0.98090508410173     -1.27740317258318      2.69437034804678
  N   -1.74203209336146     -1.08061209333034     -0.13406275120231
  O   -2.41961417038342     -1.11914817105713     -1.15028973542173
  O   -1.74695988778939     -1.86583323706908      0.80316114437139
  N   -0.96004134021121      1.00933101052394     -1.11755597041899
  O   -0.43991530864702      0.70310400254010     -2.18285406273921
  O   -1.63763482723665      2.00781920214805     -0.88238927099032
