16
Coordinates from ORCA-job run
  C   0.66497395761020     -0.39071434333292      0.44100710233496
  C   -0.84121425649540     -0.30602541182985      0.15677423389425
  Br  1.09297346203230     -2.31480073205353      0.40075919154870
  H   -1.41135414089844     -0.92458658018066      0.84954141318048
  C   1.59851229122830      0.32950308965021     -0.52776005296613
  H   1.49843511123131     -0.07999699382527     -1.53102906876102
  H   1.37126207530570      1.39414527222635     -0.54273232269570
  H   2.62459584117263      0.18470259431687     -0.18820149077582
  C   0.87421370754054      0.05149214222835      1.81759218558606
  N   1.04982569296048      0.39539534469794      2.92825182542849
  N   -1.19242795720798     -0.75999949604778     -1.23075248840654
  O   -1.77003198730030     -1.83528931285482     -1.32749141506154
  O   -0.87094805585953     -0.00055902699345     -2.14008129078559
  N   -1.41139549495472      1.09141818491047      0.26963314175552
  O   -0.65531268616859      2.01938889146729      0.52769177597670
  O   -2.62210756019649      1.14792637762082      0.09479725974719
