16
Coordinates from ORCA-job run
  C   0.64749293731804     -0.45019028268710      0.41213533035387
  C   -0.84973550739031     -0.32061928954174      0.09630068629119
  Br  1.08383246474513     -2.35545843248329      0.21241730489281
  H   -1.45141496407707     -0.87988706334709      0.81048273126617
  C   1.60339902601431      0.40271027765443     -0.41814579818910
  H   1.37373396846260      1.46085330403908     -0.27478486352842
  H   2.62105691170475      0.21867253346343     -0.07217311581081
  H   1.52366767845937      0.15401778174873     -1.47224584149147
  C   0.80943584725522     -0.13131254590265      1.83013908210063
  N   0.96888096050411      0.15582648755277      2.95939028917754
  N   -1.27840940345924     -0.78521005692722     -1.26713937871389
  O   -0.46663808971836     -0.78700650591435     -2.18231654381605
  O   -2.46536779346428     -1.09228431511697     -1.33148442583187
  N   -1.27926784217548      1.12376912498007      0.20054272995810
  O   -1.14405039111282      1.81673429723331     -0.80147672708876
  O   -1.69761580306597      1.46938468524857      1.29935854043006
