14

C	-0.513017	-0.092877	-1.421044
C	0.0	0.0	0.0
F	-0.259437	1.122556	-2.064131
H	1.088708	0.0	0.0
H	-1.600194	-0.214884	-1.4454
H	-0.368314	-0.857686	0.570622
C	0.216633	-1.191591	-2.158877
H	-0.059459	-1.179591	-3.216329
H	1.29186	-1.039478	-2.045157
H	-0.041195	-2.167787	-1.740845
N	-0.590581	1.196026	0.655991
O	0.15236	2.052993	1.115396
O	-1.82408	1.246909	0.704162
H	2.972971	0.0	0.0
