14

C	-0.482853	-0.030285	-1.43653
C	0.0	0.0	0.0
F	-0.194971	-1.318224	-1.915411
H	1.089735	0.0	0.0
H	0.107935	0.667564	-2.033722
H	-0.371205	-0.853699	0.566075
C	-1.96714	0.196425	-1.628792
H	-2.240123	1.206122	-1.322618
H	-2.230079	0.062616	-2.681755
H	-2.532342	-0.527751	-1.036091
N	-0.407585	1.208271	0.684935
O	-0.61172	1.15689	1.906044
O	-0.413452	2.265075	0.030663
H	2.656489	0.0	0.0
