17

C	-0.103426	0.049923	-1.53339
C	0.0	0.0	0.0
Cl	-1.811898	0.339261	-2.101349
H	1.093741	0.0	0.0
N	0.729761	1.14269	-1.960531
H	0.913186	1.040226	-2.952995
H	1.611572	1.027856	-1.440794
C	0.351406	-1.303207	-2.068848
H	1.356507	-1.457198	-1.665675
H	0.391815	-1.258523	-3.160604
H	-0.308652	-2.120162	-1.773505
C	-0.609035	-1.170642	0.587992
N	-1.046365	-2.152743	1.063309
N	-0.521074	1.232214	0.648652
O	0.186962	2.23258	0.600448
O	-1.626667	1.17342	1.193903
F	2.559267	0.0	0.0
