17

C	-0.090748	-0.002451	-1.547496
C	0.0	0.0	0.0
Cl	-1.775518	0.389276	-2.088743
H	1.09497	0.0	0.0
N	0.830726	0.932532	-2.151817
H	0.553248	1.86546	-1.867765
H	1.712663	0.746564	-1.653687
C	0.283276	-1.392048	-2.028896
H	0.294362	-1.379138	-3.119605
H	-0.406091	-2.156732	-1.670187
H	1.291371	-1.58986	-1.649829
C	-0.588147	-1.152775	0.641478
N	-1.011901	-2.131912	1.135609
N	-0.484566	1.238992	0.647125
O	-1.117347	1.136564	1.699332
O	-0.195378	2.313859	0.120292
F	2.532996	0.0	0.0
