17

C	-0.18765	-0.018421	-1.532403
C	0.0	0.0	0.0
Cl	0.247959	1.700945	-2.139785
H	1.093049	0.0	0.0
N	0.778049	-0.963524	-1.948072
H	1.679402	-0.748386	-1.486823
H	0.862454	-0.987099	-2.955533
C	-1.567544	-0.30992	-2.076818
H	-1.881286	-1.294193	-1.721872
H	-1.53748	-0.320188	-3.169249
H	-2.276025	0.446566	-1.750841
C	-0.508128	-1.22023	0.595725
N	-0.929073	-2.20247	1.086602
N	-0.597331	1.138446	0.747489
O	-0.10385	1.380184	1.844013
O	-1.568851	1.723708	0.269228
F	2.549357	0.0	0.0
