17

C	-0.370073	0.117621	-1.490711
C	0.0	0.0	0.0
Cl	-0.001927	-1.583108	-2.17405
H	1.096183	0.0	0.0
N	-1.739048	0.449895	-1.66261
H	-2.336667	-0.236033	-1.21525
H	-1.979012	0.508712	-2.644133
C	0.575453	1.040549	-2.237654
H	0.506867	0.857496	-3.313318
H	1.583376	0.83192	-1.869717
H	0.31521	2.074451	-2.020611
C	-0.603858	-1.148617	0.645181
N	-1.093827	-2.088777	1.154685
N	-0.392242	1.226923	0.753605
O	-0.111368	2.312279	0.254232
O	-0.909737	1.087764	1.86398
F	2.498769	0.0	0.0
