11
Coordinates from ORCA-job run
  C   0.58160692334777      0.56832391812262     -0.01064244045598
  C   -0.36057602115232     -0.41108756307519     -0.12656316212254
  C   1.21036163275289      1.05595980866366     -1.20020170057934
  N   1.72687281051379      1.46562522968639     -2.17659483609145
  C   0.99168995094803      1.17794899072367      1.21547663743424
  N   1.40112088235052      1.75388623625601      2.15810983992352
  C   -0.73593058146522     -0.95492224504287     -1.38353197684664
  N   -1.00686193880127     -1.37840371278608     -2.45050177863869
  N   -1.08630545652428     -0.95850253941092      1.04488017672259
  O   -0.67160844983122     -0.65163773194016      2.15398994110219
  O   -2.05036975213869     -1.66819039119711      0.77657929955211
