11
Coordinates from ORCA-job run
  C   0.60472940430375      0.54732311964510      0.02232951096247
  C   -0.34244361141334     -0.41422519117572     -0.16982771000897
  C   0.94512322980216      1.08786076935656      1.29940738044075
  N   1.28241001674724      1.62678286504534      2.29194438429366
  C   1.29688367348701      1.07330527950273     -1.11235268203244
  N   1.86974880618983      1.50165490599496     -2.04892658360929
  C   -0.69830250492750     -0.90245700802744     -1.45337501617582
  N   -0.96946744770112     -1.29620973520988     -2.53162679310568
  N   -1.13140296011149     -0.95253637383606      0.96314853301646
  O   -0.56763623101503     -1.02106637312889      2.04686088652028
  O   -2.28864237536151     -1.25143225816671      0.69341808969856
