11
Coordinates from ORCA-job run
  C   0.48037851357634      0.64971112039258      0.11952148271500
  C   -0.45459319181713     -0.31648437331851     -0.09736714272268
  C   0.17597479599260      2.00782441423713     -0.20661858458255
  N   -0.06823000503024      3.13212463670669     -0.46368838261616
  C   1.79101580695291      0.38997907862603      0.62678687217319
  N   2.90086832364456      0.26604370418274      1.00345403867827
  C   -1.73818690615269     -0.05376972501529     -0.64008489286529
  N   -2.80581791112481      0.18427445424291     -1.08120087592991
  N   -0.16065114322924     -1.74043045002947      0.18263097096709
  O   -0.66465360733822     -2.53965374655849     -0.59844634092088
  O   0.54489532452590     -1.97961911346632      1.15501285510391
