11
Coordinates from ORCA-job run
  C   0.59480435851464      0.55172954214076      0.01464887995375
  C   -0.34447956899988     -0.41572265933336     -0.17702293223093
  C   1.21468012574140      1.16746654113882     -1.11575214383617
  N   1.72757252291187      1.68869672391782     -2.03994956593606
  C   1.00693642688832      1.02548149981409      1.30038402129534
  N   1.39750113550526      1.50565800744235      2.30305845847329
  C   -0.77423486934466     -0.82876899589942     -1.46566508292311
  N   -1.12144488156494     -1.16759934902755     -2.54065455935960
  N   -1.05339622524552     -1.03707178487360      0.96461386162123
  O   -0.43044403420942     -1.14430820010264      2.01208071664142
  O   -2.21749499019708     -1.34656132521727      0.74425834630084
