11
Coordinates from ORCA-job run
  C   0.58176371919839      0.56817671616452      0.00395475472544
  C   -0.36947071584631     -0.39881503541660     -0.13714086829622
  C   1.27177245120499      1.02202752761343     -1.16490548289464
  N   1.84497523252931      1.40367344247206     -2.12146189196631
  C   0.96074559426749      1.18569481033415      1.23531390288513
  N   1.36502190764983      1.77224681228279      2.17393570583343
  C   -0.69658641509603     -0.96341548643319     -1.39821667518334
  N   -0.94504156906526     -1.41252820357898     -2.45971950134624
  N   -1.14503622110190     -0.92723140459892      1.01405437047582
  O   -2.01252156704265     -1.74604829617330      0.72901054658181
  O   -0.85562241669786     -0.50378088266595      2.12417513918512
