11
Coordinates from ORCA-job run
  C   0.47154450431148      0.68764194896343      0.07434224098291
  C   -0.42299296705596     -0.32383926359863     -0.08363923381209
  C   0.07115563559767      2.02002738257161     -0.25745653918650
  N   -0.29983636920773      3.11078082801262     -0.50769703494926
  C   1.79965775658968      0.48589576451850      0.55526454265189
  N   2.91614526797173      0.36907769242951      0.91687747353991
  C   -1.75513368790160     -0.14319453796033     -0.53556206288216
  N   -2.86999088038766      0.00424199308081     -0.89849842734966
  N   -0.05104492789354     -1.72880327990106      0.18003398432355
  O   0.59243826904850     -1.94234674537540      1.20064369257738
  O   -0.45294260107258     -2.53948178274106     -0.64430863589598
