11
Coordinates from ORCA-job run
  C   0.47735548924222      0.67427450450502      0.16710198702815
  C   -0.45836811005065     -0.28064225492996     -0.07256590379900
  C   0.15575663201852      2.04424968813553     -0.06025272739476
  N   -0.19556342875363      3.16082988245981     -0.20945240589771
  C   1.80389905145987      0.34006212354609      0.57682410446415
  N   2.92216302432024      0.10250687576093      0.86847496213665
  C   -1.76689929128378     -0.01359799789799     -0.54842265237464
  N   -2.84424721252830      0.14121372622309     -1.00394234608353
  N   -0.11821429377043     -1.71009256411021      0.07048194463766
  O   -0.34577431238553     -2.39068319672215     -0.92339328298390
  O   0.36989245173146     -2.06812078697016      1.13514632026694
