11
Coordinates from ORCA-job run
  C   0.62302428743469      0.52138108780296      0.00121197736844
  C   -0.39856474848232     -0.37143775498914     -0.13460034130455
  C   1.04797201510927      1.11577256997243      1.22829243626049
  N   1.49305553352436      1.67901314826015      2.16255925493226
  C   1.34731245318331      0.91409509721861     -1.16960636330799
  N   1.94949874809205      1.24283155585015     -2.12797018218191
  C   -0.77013786281495     -0.91454396959581     -1.39288851642700
  N   -1.05050939537405     -1.34988769822110     -2.45240405116191
  N   -1.21183642839719     -0.83089089083281      1.01940910697259
  O   -0.85086809741338     -0.47746817559260      2.13319492945272
  O   -2.17894650486179     -1.52886496987284      0.73280174939684
