11
Coordinates from ORCA-job run
  C   0.53543420079871      0.61662904114319      0.09300013411692
  C   -0.47935146580364     -0.27866219112204     -0.06429881013609
  C   1.86298709467708      0.24971718514111      0.46966144377060
  N   2.98541629303060      0.02359473610518      0.74749096958454
  C   0.28695522453646      2.00343157385597     -0.14867075848477
  N   0.08188274410465      3.14735680000033     -0.34268094137760
  C   -1.78615154596687      0.08518971695711     -0.47902772897303
  N   -2.87199861011701      0.39533728836691     -0.81963577005283
  N   -0.25601090774518     -1.72933651170887      0.13786099588297
  O   -0.87613640168005     -2.46083329441135     -0.62582054407047
  O   0.51597337416526     -2.05242434432753      1.03112100973974
