11
Coordinates from ORCA-job run
  C   0.53085713640840      0.62618986014853      0.04724998872923
  C   -0.46913473212666     -0.29037016189233     -0.05404144091774
  C   0.21932200048678      2.01208110453129     -0.10001516439478
  N   -0.08126433323923      3.14752558604125     -0.20079017370717
  C   1.88632695923177      0.24361752905885      0.28409357905069
  N   3.01826048666968     -0.03307145379844      0.46630789783582
  C   -1.81961945687327      0.06202976606907     -0.30084926929754
  N   -2.91366817266756      0.45229691626985     -0.50603562221676
  N   -0.18415670487625     -1.72929227798600      0.08482889294002
  O   -0.34205368395836     -2.39832551801365     -0.92556840109196
  O   0.15513050094471     -2.09268135042844      1.20581971307017
