11
Coordinates from ORCA-job run
  C   0.48163288950157      0.62913758872945     -0.01932750862193
  C   -0.43659660971305     -0.31117250800496     -0.03629857037062
  C   0.09709343673774      2.01947465073489     -0.13152067091144
  N   -0.21170070040296      3.18863935056859     -0.18231064494951
  C   1.87706494788113      0.34753864317336      0.12978683748128
  N   3.03894508982507      0.14866018516891      0.25470221842246
  C   -1.81258676983374     -0.02265135630568     -0.23880949683274
  N   -2.92483501264029      0.29272130434161     -0.40777423002219
  N   -0.08926204522337     -1.74135400481911      0.16779227632189
  O   -0.74839043218483     -2.54004931608869     -0.56211207716617
  O   0.72763520605274     -2.01194453749836      1.02587186664898
