11
Coordinates from ORCA-job run
  C   0.56112279121511      0.58745357883872     -0.00624209225210
  C   -0.33612275093767     -0.42445544146418     -0.16486109571147
  C   1.07974959930995      1.24710350450096     -1.16553551820975
  N   1.51525667369682      1.79724500020973     -2.11213576341886
  C   1.04130128171303      1.04563954604970      1.25699371779448
  N   1.49188527315312      1.49959102419931      2.24645207220398
  C   -0.82242870642040     -0.83967335409953     -1.43138260025250
  N   -1.20147717459061     -1.16995368833644     -2.49798160822553
  N   -0.95596897423842     -1.08847797653314      1.01109774311771
  O   -0.27663974346569     -1.15783022156083      2.02645659096670
  O   -2.09767826943525     -1.49664197180430      0.83613855398733
