11
Coordinates from ORCA-job run
  C   0.54527024016071      0.60760008436437      0.04984422722988
  C   -0.48587111551479     -0.27694206771931     -0.04868461775308
  C   1.86018990550676      0.25051629308117      0.47850330697615
  N   2.97494331592415      0.04024787715927      0.79694730029850
  C   0.33148733312387      1.97419826318097     -0.31205637846494
  N   0.16127373391136      3.10266843951830     -0.60627822940562
  C   -1.77826438803341      0.08017662371534     -0.51062035284301
  N   -2.85276253594641      0.39465153911414     -0.88090075402424
  N   -0.29549900485589     -1.70970072829370      0.27310226190514
  O   -0.92102885388872     -2.48827996231046     -0.43763320823946
  O   0.46026136961238     -1.97513636181008      1.19877644432068
