11
Coordinates from ORCA-job run
  C   0.55524004243924      0.60182092899762      0.05780376488707
  C   -0.48337682691864     -0.27164929759932     -0.06896677801907
  C   0.36896437926894      1.97383972039213     -0.30163789182172
  N   0.23492275193581      3.10823575153232     -0.59272258605812
  C   1.85623559568727      0.22260830177950      0.50653406541650
  N   2.95891733656699     -0.00450599043199      0.85543444907117
  C   -1.77041613391287      0.10758670215689     -0.53158105674498
  N   -2.84159153625910      0.43190795692536     -0.90180216941303
  N   -0.32476588924829     -1.70747478848380      0.24821393642705
  O   0.40327457892451     -1.98635716370096      1.19371057360575
  O   -0.95840429848387     -2.47701212156774     -0.46598630735062
