11
Coordinates from ORCA-job run
  C   0.51387131348682      0.63247772347337      0.05409672235206
  C   -0.46951154555801     -0.28350249595620     -0.16272615851519
  C   1.80379625033133      0.25577880946720      0.53805797590677
  N   2.86322265103933     -0.03347350064679      0.97000720828441
  C   0.26594234115161      2.02782743427851     -0.13435075187425
  N   0.14088190744621      3.19655267002283     -0.23025636823303
  C   -1.78050843654524      0.04006467570696     -0.59210686315204
  N   -2.84071306952241      0.34522237882680     -1.00803386535480
  N   -0.22045964440973     -1.71633496483413      0.11478823899785
  O   -1.06933880518981     -2.25642712153599      0.81386971263483
  O   0.79281703776991     -2.20718560880258     -0.36334585104661
