11
Coordinates from ORCA-job run
  C   0.50818217479148      0.63893343918816      0.05305097947607
  C   -0.44929313690967     -0.31450268815571     -0.11961328983874
  C   1.85047794370449      0.35440938994757      0.45005234896247
  N   2.96782476407530      0.21183008037016      0.79574189375257
  C   0.17010872242699      2.01383592934381     -0.14640603860660
  N   -0.10100503652922      3.14887012486034     -0.31130423911018
  C   -1.78908155917495     -0.01869891901158     -0.47845265767917
  N   -2.89557574309715      0.23777549158772     -0.79544191021762
  N   -0.15336938117176     -1.74536110708719      0.12096657294646
  O   0.96151555392435     -2.14195845879625     -0.19242399930084
  O   -1.06978430203985     -2.38713328224703      0.62183033961557
