11
Coordinates from ORCA-job run
  C   0.59657377867604      0.55931791489428     -0.00203679219373
  C   -0.37233217454992     -0.38238569753837     -0.17439343130223
  C   1.13456537904498      0.92300218916455      1.27022274564923
  N   1.61633166224386      1.30018145843787      2.27721472912980
  C   1.10608099469229      1.25540816421577     -1.14233316394108
  N   1.53227492733842      1.83171461478655     -2.07785349082748
  C   -0.92505594834449     -0.70995054567928     -1.43863550091858
  N   -1.36336585319226     -0.98602800167691     -2.49794100616231
  N   -0.96000614100251     -1.09353496499883      0.98377177467011
  O   -2.15810080226843     -1.33528187512319      0.89034680894919
  O   -0.20696582263798     -1.36244325648242      1.91063732694709
