11
Coordinates from ORCA-job run
  C   0.47545756295979      0.66584038604466     -0.00105894845618
  C   -0.32899265378948     -0.41951101883584     -0.17509264339277
  C   0.75971110598114      1.24844736667817      1.27182614345956
  N   1.06498986370098      1.77614250806135      2.28016780901552
  C   1.10230663868340      1.26129058062164     -1.13985604399581
  N   1.62074650136882      1.75796947056017     -2.07450165825674
  C   -0.57572910361159     -1.01262294144166     -1.43936278796952
  N   -0.78721247206921     -1.48574773888014     -2.49858234872281
  N   -0.96066640559622     -1.09469597473093      0.98139735203615
  O   -1.03971072075803     -2.31454529472423      0.88976090446823
  O   -1.33190031686961     -0.38256734335319      1.90530222181439
