11
Coordinates from ORCA-job run
  C   0.46182169756239      0.67499512253450      0.12685312452953
  C   -0.44860474338907     -0.32119372077833     -0.04863272712110
  C   0.10428434586157      2.02211422497905     -0.19377094258916
  N   -0.23712407198057      3.11209822392200     -0.49469281221197
  C   1.80157691492304      0.43271932356011      0.55635769432668
  N   2.92956935441098      0.29140631936902      0.86402219692643
  C   -1.75768097742848     -0.11063255087405     -0.55242918828062
  N   -2.81001303494846      0.11511081324342     -1.03684513418861
  N   -0.09335935396471     -1.73067175168446      0.19968171890520
  O   -0.49460441729218     -2.52305850564793     -0.64404897876102
  O   0.54413428624550     -1.96288749862333      1.22450504846463
