11
Coordinates from ORCA-job run
  C   0.52735789227137      0.62068077527184      0.07895678922276
  C   -0.44706774345159     -0.30232987770430     -0.15335920306744
  C   1.80492351104693      0.30471935662224      0.63415059375221
  N   2.87111058956224      0.13622915440736      1.10655309073823
  C   0.27371212993805      1.99574166008459     -0.21976918001536
  N   0.07246661203848      3.13064216465832     -0.46562605571324
  C   -1.72573840198193      0.02649391440099     -0.67114750850428
  N   -2.77881418433621      0.30964405937054     -1.11992448032308
  N   -0.24254036914752     -1.72942219553075      0.18473319505608
  O   0.88116471395673     -2.18457027695770      0.01550500125273
  O   -1.23557474989655     -2.30882873462314      0.60992775760139
