11
Coordinates from ORCA-job run
  C   0.58172855961891      0.57469815306908     -0.02619180556511
  C   -0.34576594980174     -0.41509750927736     -0.15150978422370
  C   0.97019862286097      1.14505018767797      1.22446065835815
  N   1.33250001088150      1.68159978401845      2.20884948122841
  C   1.20334855327735      1.10339775379262     -1.20009941615459
  N   1.72564992301263      1.53949490948767     -2.16240711620847
  C   -0.74924375876835     -0.95150446681652     -1.40077638106792
  N   -1.05975699446904     -1.40295488941878     -2.44489930182390
  N   -1.04417750358278     -0.96107256187736      1.03426158195133
  O   -0.39282110681621     -1.05965029086768      2.06598091140865
  O   -2.22066035621324     -1.25396106978810      0.85333117209717
