11
Coordinates from ORCA-job run
  C   0.59555879823937      0.56038459404449      0.02739854399573
  C   -0.34545481731989     -0.40143943573467     -0.18477763139815
  C   1.28406884826663      1.12303338704000     -1.09234400303110
  N   1.85753614389592      1.58478977569132     -2.01252047956724
  C   0.93117960373402      1.07421670292823      1.31723104177108
  N   1.25395751804943      1.56913288249532      2.33659748823890
  C   -0.69173158362672     -0.88366974301190     -1.47247558432085
  N   -0.95406602532705     -1.28882410223659     -2.54816630082255
  N   -1.11712326028679     -0.97551865068367      0.94111764727036
  O   -0.52424450899324     -1.12819598286927      2.00103133638735
  O   -2.28868071663169     -1.23290942766326      0.68790794147647
