11
Coordinates from ORCA-job run
  C   0.61218289973224      0.54213598995102      0.00386589678943
  C   -0.37689031127120     -0.37691963171861     -0.17652201349884
  C   1.10682432583589      0.93636553177479      1.28467881185183
  N   1.55702298771038      1.33484298477187      2.29799101351062
  C   1.19250853116469      1.17839163644996     -1.13756795725816
  N   1.67609941744047      1.70684906415244     -2.07342114023838
  C   -0.88263328823575     -0.73814883891294     -1.45123394100824
  N   -1.27975603441848     -1.04447688106436     -2.51839845118242
  N   -1.03642394137052     -1.02510061682997      0.97985838481109
  O   -2.23682472906732     -1.23199709956907      0.84252620885105
  O   -0.33310985752041     -1.28194213900515      1.94822318737200
