11
Coordinates from ORCA-job run
  C   0.54023691629040      0.61298724384541      0.03308636250485
  C   -0.45819118861095     -0.30015099667773     -0.12327795143664
  C   1.83115407247078      0.29685571143330      0.55649949544359
  N   2.91074673335484      0.12910536469478      0.99766316471279
  C   0.30109736160567      1.97844903929427     -0.31747063655846
  N   0.11219572174087      3.10523609830521     -0.60661844212572
  C   -1.74789352983206      0.02985124060847     -0.61201587971184
  N   -2.81023255080417      0.31371057953652     -1.03802685306021
  N   -0.26693563562684     -1.71450848090330      0.27072435661587
  O   -1.25373418638105     -2.25509032723654      0.75729205081443
  O   0.84155628579251     -2.19844547290038      0.08214433280134
