11
Coordinates from ORCA-job run
  C   0.56681818412680      0.58761074505645     -0.03088514617971
  C   -0.34388760747518     -0.41794583948231     -0.15258417346028
  C   1.02551029655618      1.09810105363277      1.22185128032367
  N   1.43866793564500      1.59656239039492      2.20635747523942
  C   1.09216496846830      1.20225848562797     -1.21024151679393
  N   1.53456067787964      1.71165894404758     -2.17657314375388
  C   -0.82290636775893     -0.88891700868606     -1.40152291558737
  N   -1.20180725988659     -1.28117796722222     -2.44704829485248
  N   -0.94504312880932     -1.05152847336281      1.04299123287777
  O   -0.22136437914317     -1.19083345362168      2.02036118295289
  O   -2.12371331960275     -1.36678887638461      0.92529401923390
