11
Coordinates from ORCA-job run
  C   0.52658512315530      0.62262743457933      0.06239150214266
  C   -0.45188259025735     -0.30442061317977     -0.13523888021688
  C   1.82615858717903      0.31167308070079      0.56726958679705
  N   2.91273304575577      0.14837783424314      0.99271157131886
  C   0.25687374585627      1.99689475350971     -0.22603639097028
  N   0.04056659094362      3.13103907825374     -0.46235072489051
  C   -1.74828199103822      0.01908267975273     -0.61064728544849
  N   -2.81500575700117      0.29896713149710     -1.02796629397686
  N   -0.23032511686817     -1.73053742265570      0.19584346644194
  O   -1.20517801119434     -2.31236754630057      0.65838090817131
  O   0.88775637346928     -2.18233641040049     -0.01435745936880
