11
Coordinates from ORCA-job run
  C   0.52951937604506      0.61902946746720      0.07530556634555
  C   -0.45182596595586     -0.29948248057138     -0.14537092578397
  C   1.82427229538505      0.29207421415129      0.58240990715148
  N   2.90468612696048      0.11502002447044      1.01789348507113
  C   0.26677281786485      1.99992951172582     -0.18615474058633
  N   0.05769731500672      3.13931547996555     -0.40303745656403
  C   -1.74618067394265      0.04000930326550     -0.61496244894776
  N   -2.81296384357017      0.33282958964448     -1.02325588423001
  N   -0.23662182119139     -1.73307555913519      0.15564995913057
  O   0.88066323862276     -2.18414226651058     -0.06032661144874
  O   -1.21501886522485     -2.32150728447314      0.60184914986212
