18

C	0.0	0.0	0.0
C	-0.194971	-0.127052	-1.54469
Cl	1.883757	0.0	0.0
H	0.468567	0.64422	-1.950322
N	-0.597655	1.203077	0.53559
O	-0.563863	2.218543	-0.231114
O	-0.581775	1.301153	1.796119
N	-0.322883	-1.154308	0.793971
H	-0.019018	-1.957428	0.256176
H	0.200201	-1.083055	1.659892
C	-1.563217	0.139754	-2.155219
H	-2.266316	-0.667428	-1.947558
H	-1.949673	1.088449	-1.787729
H	-1.422175	0.218038	-3.247787
N	0.228703	-1.4839	-1.938106
H	-0.114085	-1.663282	-2.874321
H	1.240439	-1.517653	-1.967648
H	-1.87533	0.0	0.0
