18

C	0.0	0.0	0.0
C	-0.588907	0.118554	-1.406728
Cl	1.766467	0.0	0.0
H	-1.662686	0.295314	-1.168673
N	-0.335335	1.319294	0.780642
O	-1.14538	1.232302	1.692562
O	0.224901	2.347323	0.417348
N	-0.558572	-1.042699	0.77958
H	-1.591648	-0.874178	0.718643
H	-0.352624	-1.925092	0.327152
C	-0.500285	-1.222081	-2.13907
H	0.530036	-1.596007	-2.179348
H	-0.847908	-1.077733	-3.166148
H	-1.147466	-1.973745	-1.682908
N	-0.060259	1.239693	-2.167259
H	0.854822	1.010361	-2.539831
H	-0.684192	1.415585	-2.945503
H	-3.157394	0.0	0.0
