18

C	0.0	0.0	0.0
C	-0.526499	0.036414	-1.438668
Cl	1.776695	0.0	0.0
H	-1.602933	0.23284	-1.285037
N	-0.306751	1.385806	0.70137
O	-0.575064	2.369973	0.020758
O	-0.241456	1.37838	1.927416
N	-0.614625	-1.025771	0.713766
H	-1.653294	-0.832981	0.568165
H	-0.397496	-0.918262	1.699542
C	-0.369666	-1.337262	-2.073408
H	0.688008	-1.590668	-2.186287
H	-0.858609	-2.09781	-1.47069
H	-0.83597	-1.329192	-3.064955
N	0.15999	1.026598	-2.270122
H	0.033903	0.766112	-3.238701
H	-0.262732	1.930952	-2.123038
H	-3.051082	0.0	0.0
