18

C	0.0	0.0	0.0
C	-0.404094	0.242747	-1.521782
Cl	1.774099	0.0	0.0
H	0.418266	-0.266504	-2.036002
N	-0.306904	1.171869	1.018362
O	-0.661744	0.822325	2.138972
O	-0.098901	2.329324	0.679354
N	-0.560746	-1.19694	0.453587
H	-1.586468	-1.04069	0.401314
H	-0.317475	-1.342304	1.427068
C	-0.393017	1.696382	-1.978592
H	0.532095	2.214607	-1.724582
H	-0.520203	1.678761	-3.063335
H	-1.230817	2.241621	-1.543872
N	-1.619807	-0.388955	-1.967803
H	-2.401099	-0.133396	-1.324114
H	-1.512908	-1.393529	-1.87076
H	-3.266469	0.0	0.0
