18

C	0.0	0.0	0.0
C	-0.251147	0.065906	-1.577177
Cl	1.781908	0.0	0.0
H	0.526314	0.727632	-1.958714
N	-0.327725	1.372421	0.628497
O	-0.142196	2.351814	-0.090194
O	-0.669251	1.403684	1.800282
N	-0.65327	-0.975789	0.752694
H	-1.689313	-0.70626	0.646344
H	-0.526309	-1.868346	0.28735
C	-1.571468	0.586327	-2.119384
H	-2.411359	-0.034542	-1.815467
H	-1.462303	0.617627	-3.211243
H	-1.793019	1.584085	-1.745287
N	-0.021243	-1.250446	-2.170569
H	0.837569	-1.662543	-1.824049
H	-0.797218	-1.857568	-1.931951
H	-3.122138	0.0	0.0
