18

C	0.0	0.0	0.0
C	-0.496248	-0.048685	-1.501385
Cl	1.768674	0.0	0.0
H	0.391535	-0.281516	-2.097336
N	-0.322114	1.375255	0.664875
O	0.193771	2.368875	0.161525
O	-1.040061	1.378109	1.652668
N	-0.527327	-0.990805	0.861262
H	-1.520273	-0.724509	0.976468
H	-0.563513	-1.832699	0.290609
C	-1.101591	1.249757	-2.044138
H	-1.436591	1.048403	-3.067491
H	-0.386829	2.073163	-2.068987
H	-1.978383	1.515419	-1.451583
N	-1.40841	-1.188749	-1.606607
H	-1.64453	-1.294372	-2.588999
H	-2.276447	-0.890392	-1.105115
H	-3.264826	0.0	0.0
