18
Coordinates from ORCA-job run
  C   0.78558855579450     -0.16596047143790      0.64989644983386
  C   -0.72195838473393      0.04500162186773      0.37664451954035
  Br  1.00755805506643     -1.63099449138721      1.96191506135504
  H   -1.19421548942557      0.14865014827593      1.36027985887936
  C   1.34278012011876      1.02090614812850      1.29774936891980
  N   1.78308162654335      1.99933097291283      1.77854516417863
  C   1.61227626945720     -0.51650173049190     -0.58435391337855
  H   2.66455739459880     -0.61703389153051     -0.31679017329658
  H   1.51873630256029      0.27627352370130     -1.33070345331266
  H   1.27270462683826     -1.45892675120092     -1.01352916645093
  C   -1.35847255788309     -1.13858264489740     -0.34741696735412
  H   -1.01501094129296     -1.20193885934088     -1.38292798282630
  H   -1.14994499346146     -2.08677177342522      0.14992513397772
  H   -2.44261506052276     -1.00451791756118     -0.37159635001798
  C   -0.96617930090644      1.33897305974407     -0.40489196619875
  H   -0.54083279309506      1.28756157039565     -1.41050364467380
  H   -2.04282918321753      1.49187735580177     -0.51388462204760
  H   -0.55522424643878      2.21365413044535      0.10264268287253
