18
Coordinates from ORCA-job run
  C   0.80942288530831     -0.03753857934327      0.46261781104108
  C   -0.48861854355131      0.29034889358179     -0.30796254921375
  Br  0.40622910753317     -0.97116263568977      2.15841789323904
  H   -0.13216639800338      0.85556611536311     -1.18209747193949
  C   1.47586698591454      1.21029935185983      0.83488396651149
  N   2.01944853697422      2.22440625703548      1.07637392518486
  C   1.78068898073087     -0.91224820768657     -0.32686871684791
  H   2.72002003446274     -1.02459590054078      0.21564761814920
  H   1.35627994586347     -1.90199794981980     -0.49130746127599
  H   1.98492623980715     -0.44091980403992     -1.29321663628501
  C   -1.43440406705604      1.19361084147187      0.47903863109103
  H   -1.86998768373308      0.65878414463337      1.32539717010631
  H   -0.92940330987413      2.08551736965027      0.85631697406036
  H   -2.25031030873671      1.52011178985361     -0.17050112536914
  C   -1.21239031003086     -0.95560478448517     -0.81104779716906
  H   -1.50840884774819     -1.59846782058570      0.02098669995036
  H   -0.60760529458906     -1.54018439969993     -1.50611429669619
  H   -2.11958795327171     -0.65492468155842     -1.34056463453722
