18
Coordinates from ORCA-job run
  C   0.72697496713302     -0.23695816564965      0.69383732148513
  C   -0.75366188296192     -0.00138353591717      0.31347937946578
  Br  0.85232277675204     -1.84201282040197      1.84522079381838
  H   -1.31227241061512     -0.01553117692499      1.25640578287177
  C   1.20844130014269      0.86947143074362      1.51950029687054
  N   1.60155819602295      1.78387802473799      2.14550776695718
  C   1.66311053502580     -0.44170292276717     -0.49398078611728
  H   1.37353565453766     -1.32971177658171     -1.05560599614722
  H   1.62581035496217      0.43052046753652     -1.15126827441557
  H   2.68917273686665     -0.57006152907462     -0.14793576133211
  C   -1.30637872461013     -1.09410646227788     -0.59815175648744
  H   -0.87948139523155     -1.02691208577906     -1.60196316547194
  H   -1.11953353913491     -2.09376807873245     -0.20351989107360
  H   -2.38762547505452     -0.96962140715105     -0.69500242742899
  C   -0.94597383475728      1.37486109611784     -0.32970879286271
  H   -0.42404058295343      1.44801814484842     -1.28723531233606
  H   -0.60339145081180      2.18528041492207      0.31632082122067
  H   -2.00956722531232      1.53174038235126     -0.52589999901652
