18
Coordinates from ORCA-job run
  C   0.81784670537316     -0.02813291187948      0.44856047845753
  C   -0.49883547503631      0.28558741071326     -0.29597531348760
  Br  0.45994943580946     -0.99137953684730      2.13794475169149
  H   -0.16768743418178      0.87002013902380     -1.16741308438300
  C   1.46780587860903      1.22645627326812      0.82683032946910
  N   1.99639864180457      2.24715358335993      1.07443606362622
  C   1.79138175001228     -0.87447278027916     -0.36886126538574
  H   2.74190825931964     -0.97585645219077      0.15597211377801
  H   1.38234258925966     -1.86967512808755     -0.53874403261966
  H   1.96980631763892     -0.38706903343525     -1.33231757717281
  C   -1.44871578410895      1.15881236378409      0.51947770042591
  H   -0.95328434807722      2.05120960299682      0.90810888319652
  H   -2.27749093341109      1.48471799591088     -0.11387708519867
  H   -1.86562966935133      0.60132128853798      1.36058766337535
  C   -1.20704448012804     -0.96679468158470     -0.80524938131182
  H   -0.60387272702526     -1.52909248170784     -1.51983698195007
  H   -1.47541017664511     -1.62778532965739      0.02202609544474
  H   -2.12946854986163     -0.67602032192545     -1.31366935795551
