12
Coordinates from ORCA-job run
  C   -1.03872952863691     -0.26014388353901      0.27775413759133
  C   0.38782803764471     -0.69193883852776     -0.05529332305340
  Br  -2.28267571796308     -1.75745628089129      0.08626561663007
  H   0.63939764164603     -1.53235633792349      0.59713708555651
  H   -1.11460359749484      0.04396430532598      1.32425099876996
  H   0.40976180702344     -1.06060140390753     -1.08413209601226
  C   -1.48744904420516      0.83981197919271     -0.56713599759484
  N   -1.80361760576840      1.73866426701010     -1.25433201478313
  C   1.37845771093682      0.45399648273665      0.13279144741173
  H   1.34911936470161      0.83928271262735      1.15537453738754
  H   1.16843271294367      1.27976004669863     -0.54985394511233
  H   2.39507821917210      0.10701695119767     -0.06282644679119
