12
Coordinates from ORCA-job run
  C   -0.96308716010242      0.13871007741776     -0.26498731025428
  C   0.32898026603741     -0.18295107892218      0.48577038380642
  Br  -1.00634953396398      2.00073736123575     -0.87005284537458
  H   0.21636345939874     -1.19939264222278      0.87987175357298
  H   -1.03925288688289     -0.45891839893016     -1.17650528797025
  H   0.40790211305739      0.48826013560366      1.34518971003540
  C   -2.13779353950663     -0.10555694904879      0.56294317492198
  N   -3.05944292228352     -0.33408216645222      1.25436561281538
  C   1.57243706204137     -0.09919998308518     -0.38961959712053
  H   1.49282067184314     -0.76841188462437     -1.25037513134117
  H   1.73414305917174      0.91434403919617     -0.75786460148852
  H   2.45427941118966     -0.39453851016768      0.18226413839717
