12
Coordinates from ORCA-job run
  C   -1.07770054768785     -0.43081050800042      0.00214294736709
  C   0.39189849976403     -0.62622345112719      0.37710287845452
  Br  -1.38977555051410     -0.77739354736003     -1.90095327636808
  H   0.44538102216809     -0.55510013188466      1.46998987502351
  H   -1.70462179817834     -1.15760709760864      0.52214339003813
  H   0.66954094658216     -1.64847962223233      0.10531522229233
  C   -1.54775889563182      0.91218202532917      0.32039024594605
  N   -1.89222827518548      1.99691148851319      0.61165351716666
  C   1.34017344129938      0.38101954420913     -0.25872864381405
  H   1.32044223802100      0.31082831622025     -1.34704275020050
  H   2.36287845090646      0.19083527548074      0.07257795847147
  H   1.07977046845646      1.40283770846078      0.02540863562287
