12
Coordinates from ORCA-job run
  C   -1.08165992523334     -0.41729251734974      0.05361056780011
  C   0.39756603881676     -0.61917253115242      0.38434002832955
  Br  -1.46372721375233     -0.82536434275357     -1.82400063245202
  H   0.65438923646843     -1.65274619493228      0.13536401299351
  H   -1.69952224981846     -1.11610936680801      0.62055940694014
  H   0.49005387637780     -0.51518810598605      1.47203298950887
  C   -1.52377476236845      0.94221360616801      0.34024557042176
  N   -1.84411384539251      2.04149845410024      0.60339009631055
  C   1.33441158842837      0.35609428077284     -0.31541360973202
  H   1.09445862940808      1.38949906518865     -0.05623763912731
  H   2.36564726028799      0.16524384760431     -0.01234384148412
  H   1.27727136677769      0.25132380514802     -1.39954694950902
