13
Coordinates from ORCA-job run
  C   -0.88362628225739     -0.66096607337098      0.25140767814072
  C   0.31607736109941     -0.44493505349204     -0.67573065349329
  H   -1.60473866187625     -1.32263600298359     -0.23891274347606
  H   -0.03193390963078      0.02602001586503     -1.60347000898418
  H   -0.55161080384155     -1.18232851715638      1.15594568981931
  H   0.72142966741358     -1.42403677548673     -0.95751550067128
  N   -1.60372175567086      0.53729898918621      0.67659150616079
  H   -1.89329463932163      1.07161471341578     -0.13414240225168
  H   -1.00194245599836      1.13180393721088      1.23154601966783
  C   1.41810313697532      0.40304748176220     -0.04843733912153
  H   1.06853865989374      1.41401015457269      0.17299592490698
  H   1.76885442298727     -0.04438692859841      0.88631049119890
  H   2.27786526022749      0.49649405907535     -0.71558866189652
