13
Coordinates from ORCA-job run
  C   -0.95791129655919     -0.60145346572519     -0.03977062666469
  C   0.54840651431053     -0.63100989927424      0.23533151318953
  H   -1.13087028549927     -0.71835279933236     -1.11525286631022
  H   0.94380206291289     -1.60213511907172     -0.08550036455530
  H   -1.43057384036419     -1.46211641783576      0.44404060760484
  H   0.71319296095494     -0.57080016120114      1.31830409819714
  N   -1.67650841267719      0.59561828308358      0.39126275184544
  H   -1.50805679608107      0.76314595069676      1.37624664464584
  H   -1.34529727257823      1.40679256979742     -0.11454639643908
  C   1.31164846033634      0.48832816789142     -0.46579470769388
  H   2.38661565286347      0.40942197110455     -0.28906723480218
  H   1.14829197616146      0.45267280952540     -1.54700695577944
  H   0.99626027621950      1.47188811034128     -0.11024646323801
