15

C	-0.44118	0.047272	-1.441549
C	0.0	0.0	0.0
Cl	-2.21915	-0.209168	-1.610052
H	1.096082	0.0	0.0
H	-0.338325	-0.956181	0.404893
C	-0.11949	1.30453	-2.108518
N	0.088217	2.359608	-2.582593
N	0.202278	-1.108947	-2.224072
O	0.701112	-0.842414	-3.309684
O	0.125633	-2.208344	-1.697524
C	-0.512429	1.176994	0.817078
H	-1.604233	1.228458	0.84035
H	-0.147679	1.073666	1.840737
H	-0.121643	2.119783	0.428453
Cl	3.365524	0.0	0.0
