15

C	-0.466848	-0.022509	-1.448202
C	0.0	0.0	0.0
Cl	0.245492	1.276168	-2.400992
H	1.093075	0.0	0.0
H	-0.341407	-0.934263	0.45655
C	-0.204097	-1.301458	-2.104013
N	-0.006362	-2.328732	-2.639175
N	-2.007298	0.139134	-1.428
O	-2.61073	-0.852776	-1.032086
O	-2.496294	1.223288	-1.703061
C	-0.518939	1.203989	0.774514
H	-0.030013	1.218125	1.750149
H	-1.601067	1.170442	0.932287
H	-0.267271	2.137403	0.268168
Cl	3.38947	0.0	0.0
