15

C	-0.48226	-0.02494	-1.442565
C	0.0	0.0	0.0
Cl	0.136494	-1.41681	-2.327663
H	1.092899	0.0	0.0
H	-0.349199	0.946569	0.422718
C	-1.943835	-0.017534	-1.538861
N	-3.117832	-0.054396	-1.578219
N	-0.015581	1.284215	-2.132307
O	0.822236	1.229453	-3.010885
O	-0.567873	2.287865	-1.691573
C	-0.518746	-1.176199	0.81451
H	-1.611648	-1.206982	0.860494
H	-0.153065	-2.12074	0.41048
H	-0.132634	-1.087832	1.831742
Cl	3.404825	0.0	0.0
