14

C	-0.501354	-0.078421	-1.420935
C	0.0	0.0	0.0
F	-0.248675	-1.374958	-1.918898
H	1.093926	0.0	0.0
H	-1.593596	0.029418	-1.456992
H	-0.336629	0.960925	0.411618
C	0.206192	0.907776	-2.322541
H	-0.103187	0.771159	-3.36217
H	1.284114	0.758382	-2.228117
H	-0.028053	1.932132	-2.019506
N	-0.594613	-1.08468	0.803303
H	-0.267556	-1.944886	0.375305
H	-0.134424	-1.054548	1.708373
H	3.197419	0.0	0.0
