14

C	-0.550749	-0.0541	-1.408194
C	0.0	0.0	0.0
F	-0.148603	1.102322	-2.09351
H	1.098835	0.0	0.0
H	-0.102258	-0.900684	-1.94468
H	-0.369762	0.917649	0.471991
C	-2.061289	-0.118071	-1.473178
H	-2.403943	-0.152229	-2.510828
H	-2.478826	0.776954	-0.999211
H	-2.414743	-0.995805	-0.932305
N	-0.493524	-1.179885	0.755995
H	0.227374	-1.890316	0.646211
H	-0.460061	-0.939381	1.739907
H	3.127211	0.0	0.0
