12

C	-0.379755	-0.064249	-1.480546
C	0.0	0.0	0.0
F	-1.739827	-0.279416	-1.641473
H	1.097546	0.0	0.0
H	0.154623	-0.906975	-1.928311
C	-0.024798	1.177388	-2.182158
N	0.210434	2.183949	-2.739152
C	-0.467561	-1.212671	0.669416
N	-0.833167	-2.19801	1.192825
C	-0.533281	1.19129	0.653397
N	-0.971588	2.151102	1.169091
Cl	3.121038	0.0	0.0
