12

C	-0.482192	-0.014899	-1.461261
C	0.0	0.0	0.0
F	-0.041201	1.125124	-2.088548
H	1.096625	0.0	0.0
H	-1.576824	-0.010909	-1.501746
C	0.001877	-1.202513	-2.181986
N	0.305419	-2.157241	-2.794974
C	-0.495421	-1.191382	0.685908
N	-0.904748	-2.158748	1.211679
C	-0.497149	1.209231	0.653954
N	-0.909156	2.181928	1.166971
Cl	3.132023	0.0	0.0
