12

C	-0.482793	-0.014636	-1.461044
C	0.0	0.0	0.0
F	-0.04079	1.124741	-2.088778
H	1.096647	0.0	0.0
H	-1.577432	-0.009379	-1.501009
C	-0.000609	-1.202925	-2.181881
N	0.301043	-2.157726	-2.79562
C	-0.49537	-1.191333	0.686022
N	-0.903266	-2.159296	1.211809
C	-0.496885	1.209294	0.654093
N	-0.908759	2.182113	1.166982
Cl	3.13193	0.0	0.0
