12

C	-0.482376	-0.014936	-1.461192
C	0.0	0.0	0.0
F	-0.041256	1.124939	-2.088655
H	1.096486	0.0	0.0
H	-1.577009	-0.010737	-1.50151
C	0.001306	-1.20271	-2.181914
N	0.304384	-2.157469	-2.795076
C	-0.495423	-1.191354	0.685972
N	-0.904757	-2.158828	1.211532
C	-0.497111	1.209278	0.653913
N	-0.908959	2.182199	1.166621
Cl	3.131996	0.0	0.0
