12

C	-0.380841	-0.024631	-1.487879
C	0.0	0.0	0.0
F	0.04299	-1.210332	-2.037127
H	1.092614	0.0	0.0
H	0.144868	0.793527	-1.984369
C	-1.830023	0.096845	-1.708402
N	-2.984748	0.182386	-1.894343
C	-0.52004	-1.172645	0.695518
N	-0.92434	-2.133168	1.233922
C	-0.483587	1.239208	0.602074
N	-0.877853	2.258427	1.030608
Cl	3.117543	0.0	0.0
