12

C	-0.397732	-0.085146	-1.472551
C	0.0	0.0	0.0
F	-1.774587	-0.198336	-1.608939
H	1.100847	0.0	0.0
H	0.06223	-0.980103	-1.902186
C	0.041153	1.100591	-2.224214
N	0.336276	2.034735	-2.870135
C	-0.474267	-1.192675	0.699641
N	-0.844952	-2.167038	1.239821
C	-0.516144	1.21207	0.62867
N	-0.930372	2.191731	1.125264
Cl	3.10955	0.0	0.0
