19

C	0.0	0.0	0.0
C	-0.423437	0.000302	-1.486542
Cl	1.802852	0.0	0.0
H	-1.518365	0.00048	-1.46443
N	-0.414534	1.239816	0.625584
H	-1.435807	1.218962	0.644392
H	-0.077832	1.250873	1.583759
N	-0.414452	-1.240395	0.624962
H	-1.435748	-1.219205	0.643535
H	-0.077555	-1.251886	1.583093
C	0.044792	-1.255075	-2.223846
H	-0.261045	-2.157259	-1.697309
H	1.134125	-1.268771	-2.323034
H	-0.38355	-1.2705	-3.231329
C	0.045062	1.255856	-2.223449
H	1.134383	1.269307	-2.32279
H	-0.260514	2.157948	-1.696568
H	-0.383413	1.271719	-3.230869
Br	-3.871845	0.0	0.0
