19

C	0.0	0.0	0.0
C	-0.34769	0.295584	-1.479069
Cl	1.85112	0.0	0.0
H	0.334283	-0.333363	-2.065068
N	-0.460431	1.037865	0.873578
H	-0.271312	0.779899	1.836469
H	-1.475158	1.066422	0.765734
N	-0.461203	-1.295122	0.373045
H	-0.205196	-1.514512	1.328504
H	-0.085304	-2.006662	-0.241105
C	-0.064069	1.754944	-1.829988
H	-0.091165	1.881051	-2.916608
H	-0.827861	2.401944	-1.396329
H	0.909555	2.08487	-1.465862
C	-1.777235	-0.080037	-1.855889
H	-2.53811	0.471937	-1.300851
H	-1.924793	0.125824	-2.922493
H	-1.9916	-1.13308	-1.678745
Br	-4.910399	0.0	0.0
