19

C	0.0	0.0	0.0
C	-0.460453	0.140788	-1.466626
Cl	1.811755	0.0	0.0
H	-1.550544	0.043836	-1.39727
N	-0.412401	1.067766	0.886675
H	-1.434751	1.051419	0.878561
H	-0.101209	1.965638	0.534272
N	-0.454983	-1.267572	0.502423
H	-0.289501	-1.261652	1.504657
H	-1.469832	-1.270884	0.369606
C	0.07088	-0.973653	-2.363919
H	-0.027042	-1.94188	-1.873082
H	-0.498315	-0.994655	-3.298874
H	1.124891	-0.815686	-2.609086
C	-0.159725	1.510273	-2.063367
H	-0.482108	1.530948	-3.108353
H	-0.702789	2.304093	-1.546445
H	0.911593	1.733276	-2.036416
Br	-3.801742	0.0	0.0
