19

C	0.0	0.0	0.0
C	-0.293931	0.215648	-1.523579
Cl	1.815674	0.0	0.0
H	0.475537	0.920055	-1.857299
N	-0.405338	1.077491	0.875927
H	-0.102234	1.970763	0.502593
H	-1.424661	1.069923	0.902368
N	-0.516184	-1.250054	0.460752
H	-1.50707	-1.284156	0.2182
H	-0.455404	-1.252607	1.474078
C	-1.635555	0.85533	-1.850257
H	-1.692943	0.999341	-2.934599
H	-2.49253	0.261809	-1.537553
H	-1.747485	1.836159	-1.382536
C	-0.113057	-1.079934	-2.313399
H	-0.100467	-0.857892	-3.385474
H	0.81519	-1.589195	-2.052103
H	-0.941605	-1.764941	-2.122755
Br	-4.438541	0.0	0.0
