19

C	0.0	0.0	0.0
C	-0.47189	0.157524	-1.454608
Cl	1.858771	0.0	0.0
H	-1.560407	0.063249	-1.341892
N	-0.45209	1.086527	0.784215
H	-0.019005	1.959619	0.524118
H	-0.294314	0.884271	1.761773
N	-0.452059	-1.188874	0.666956
H	-1.476015	-1.12296	0.665088
H	-0.177585	-2.009487	0.142929
C	0.034334	-0.94062	-2.382891
H	-0.162903	-1.938967	-1.98491
H	-0.487777	-0.871561	-3.341553
H	1.108316	-0.849577	-2.567547
C	-0.182081	1.536364	-2.039723
H	-0.511365	1.570848	-3.082481
H	0.886937	1.770088	-2.014758
H	-0.73835	2.308514	-1.504676
Br	-3.943455	0.0	0.0
