17

C	-0.447654	-0.017007	-1.477284
C	0.0	0.0	0.0
Cl	0.245797	-1.541009	-2.160998
H	1.090171	0.0	0.0
N	-1.87934	-0.103986	-1.583587
H	-2.173609	0.139219	-2.521337
H	-2.322854	0.512091	-0.912725
C	0.213977	1.139736	-2.216816
H	1.290094	1.14684	-2.025565
H	-0.220138	2.08789	-1.886643
H	0.033654	1.029633	-3.288897
C	-0.563491	-1.093139	0.776647
N	-0.994821	-1.973439	1.423399
N	-0.450497	1.305898	0.610556
O	-1.640274	1.402647	0.930131
O	0.380225	2.203006	0.698675
Br	3.392305	0.0	0.0
