17

C	-0.495522	0.111161	-1.457441
C	0.0	0.0	0.0
Cl	-0.0482	-1.512787	-2.220166
H	1.096183	0.0	0.0
N	-1.896973	0.344821	-1.469609
H	-2.400256	-0.397136	-0.996975
H	-2.235711	0.425229	-2.42028
C	0.260352	1.161942	-2.248722
H	0.002646	1.066392	-3.307534
H	1.333944	1.01552	-2.11838
H	-0.014171	2.154733	-1.894734
C	-0.54315	-1.16981	0.67835
N	-0.992053	-2.12348	1.197629
N	-0.443546	1.234056	0.747597
O	0.135328	2.275603	0.464248
O	-1.348926	1.122546	1.569697
Br	3.383008	0.0	0.0
