17

C	-0.447811	-0.108506	-1.470872
C	0.0	0.0	0.0
Cl	-0.00249	1.50635	-2.262593
H	1.089896	0.0	0.0
N	0.29265	-1.197689	-1.986059
H	0.113552	-1.331814	-2.972772
H	1.292026	-1.076494	-1.82338
C	-1.936953	-0.289333	-1.693367
H	-2.494399	0.562625	-1.311055
H	-2.271286	-1.197491	-1.187723
H	-2.129604	-0.383146	-2.764973
C	-0.508111	-1.133105	0.763277
N	-0.922355	-2.039829	1.384552
N	-0.495077	1.25654	0.660167
O	0.336845	2.095602	0.97708
O	-1.712531	1.34621	0.833556
Br	3.397121	0.0	0.0
