16

C	-0.433667	0.117819	-1.466621
C	0.0	0.0	0.0
F	-1.7701	0.391713	-1.50965
H	1.093044	0.0	0.0
N	0.276845	1.095639	-2.203472
H	0.246389	1.939542	-1.638014
H	1.252074	0.801643	-2.242934
N	-0.243489	-1.226378	-2.159421
O	0.892626	-1.474386	-2.546687
O	-1.223256	-1.959313	-2.246142
C	-0.539519	-1.184644	0.672151
N	-0.996157	-2.085371	1.273826
N	-0.374409	1.259251	0.641967
H	-1.301785	1.206572	1.040338
H	0.297203	1.454264	1.372818
Br	3.399712	0.0	0.0
