16

C	-0.515694	0.058483	-1.43917
C	0.0	0.0	0.0
F	-0.227521	-1.122178	-2.063301
H	1.098263	0.0	0.0
N	-1.879468	0.395055	-1.534053
H	-2.339305	-0.134764	-2.260153
H	-2.339168	0.332492	-0.63679
N	0.255436	1.12012	-2.24235
O	0.457915	0.890547	-3.425959
O	0.512223	2.160667	-1.649553
C	-0.471163	-1.272318	0.560083
N	-0.881482	-2.258437	1.047498
N	-0.583259	1.087035	0.802576
H	-0.245842	0.960982	1.751474
H	-0.158805	1.942431	0.458398
Br	3.440177	0.0	0.0
