16

C	-0.457027	0.041332	-1.460947
C	0.0	0.0	0.0
F	0.078704	-1.005377	-2.13941
H	1.09258	0.0	0.0
N	-1.857653	0.008449	-1.632742
H	-2.089813	0.164587	-2.606771
H	-2.317121	0.695619	-1.050414
N	0.135265	1.279695	-2.192317
O	-0.142838	1.337548	-3.388341
O	0.770924	2.115638	-1.563987
C	-0.466396	-1.277648	0.555217
N	-0.855417	-2.275938	1.034709
N	-0.426327	1.086008	0.862511
H	0.141877	1.896436	0.66456
H	-1.409919	1.308396	0.787701
Br	3.450141	0.0	0.0
