16

C	-0.535394	0.095063	-1.426305
C	0.0	0.0	0.0
F	-0.187534	-1.012617	-2.133024
H	1.091739	0.0	0.0
N	-1.926942	0.276529	-1.444356
H	-2.175044	0.922578	-0.703763
H	-2.260486	0.570623	-2.352607
N	0.15923	1.251693	-2.180926
O	0.024215	1.239514	-3.401451
O	0.6955	2.1377	-1.524515
C	-0.473884	-1.265989	0.560716
N	-0.866444	-2.247242	1.071884
N	-0.541837	1.117956	0.799714
H	-0.549668	0.838627	1.773138
H	0.133713	1.869545	0.712209
Br	3.44648	0.0	0.0
