16

C	-0.614511	0.03703	-1.40917
C	0.0	0.0	0.0
F	-0.213097	-1.072625	-2.078848
H	1.095556	0.0	0.0
N	-2.031708	0.128703	-1.488294
H	-2.317718	1.001159	-1.061464
H	-2.435004	-0.654842	-0.9879
N	-0.062439	1.253487	-2.1553
O	0.981117	1.092778	-2.767921
O	-0.711475	2.292691	-2.080413
C	-0.463674	-1.240926	0.627248
N	-0.929202	-2.199798	1.122841
N	-0.444864	1.185942	0.731833
H	-1.066916	0.94673	1.487142
H	0.376664	1.626868	1.128419
Br	3.40803	0.0	0.0
