16

C	-0.560759	0.008417	-1.413107
C	0.0	0.0	0.0
F	-1.965375	-0.057828	-1.316612
H	1.090887	0.0	0.0
N	-0.109574	1.098516	-2.138851
H	-0.106199	1.918172	-1.547334
H	-0.619982	1.217434	-3.000808
N	-0.232177	-1.246508	-2.200313
O	0.39414	-2.140079	-1.643774
O	-0.646329	-1.253628	-3.358138
C	-0.512267	-1.136187	0.775285
N	-0.963987	-1.956947	1.484157
N	-0.371794	1.287986	0.603569
H	0.343408	1.52711	1.28063
H	-1.266436	1.222791	1.073024
Br	3.41809	0.0	0.0
