18

C	-0.3542	-0.010255	-1.496256
C	0.0	0.0	0.0
Br	-2.32412	-0.068679	-1.712974
H	1.09483	0.0	0.0
C	0.161655	1.291231	-2.095773
H	-0.030051	1.301781	-3.171033
H	-0.316297	2.162774	-1.646229
H	1.241717	1.339079	-1.915555
C	0.255697	-1.203066	-2.21565
H	1.329268	-1.214778	-2.001165
H	0.093014	-1.090052	-3.290064
H	-0.176759	-2.147301	-1.890962
N	-0.460752	-1.231597	0.719286
O	0.150177	-2.265461	0.467544
O	-1.413347	-1.134058	1.492022
C	-0.504708	1.176574	0.69203
N	-0.86067	2.156428	1.233775
Br	3.374291	0.0	0.0
