18

C	-0.51639	0.003186	-1.455476
C	0.0	0.0	0.0
Br	0.133389	-1.630868	-2.337388
H	1.092139	0.0	0.0
C	-2.033383	0.01645	-1.572926
H	-2.437734	0.893631	-1.058648
H	-2.311421	0.065158	-2.628193
H	-2.480621	-0.875548	-1.135268
C	0.126021	1.195522	-2.155531
H	-0.264721	2.125088	-1.72888
H	1.210543	1.170339	-2.025361
H	-0.116563	1.173066	-3.220173
N	-0.479411	-1.202104	0.770983
O	-1.640582	-1.175585	1.186198
O	0.309919	-2.125035	0.913518
C	-0.488899	1.189571	0.69207
N	-0.87062	2.16832	1.218504
Br	3.417588	0.0	0.0
