18

C	-0.360728	-0.009923	-1.494453
C	0.0	0.0	0.0
Br	-2.332184	-0.069589	-1.706357
H	1.094856	0.0	0.0
C	0.159651	1.290625	-2.09287
H	-0.038934	1.305091	-3.166622
H	1.240922	1.333628	-1.920187
H	-0.310646	2.163265	-1.637943
C	0.243564	-1.204613	-2.21671
H	-0.190315	-2.148002	-1.890945
H	1.318409	-1.219858	-2.008008
H	0.076076	-1.091406	-3.290473
N	-0.46524	-1.231292	0.720164
O	0.139702	-2.269272	0.465603
O	-1.414582	-1.128019	1.496491
C	-0.500957	1.179167	0.691816
N	-0.853998	2.160484	1.233298
Br	3.376544	0.0	0.0
