19
Coordinates from ORCA-job run
  C   -0.66254668824939     -0.52150490200867      0.46077731310637
  C   0.72201234851653     -0.37962523699364     -0.19214013247232
  H   -0.58939638465199     -1.26495558357039      1.25998553075703
  H   1.03765384875604     -1.39964127830404     -0.43957710380985
  N   -1.55492375517325     -1.17848454111318     -0.55673494407858
  O   -2.39304804001535     -0.48873080051755     -1.13468029542915
  O   -1.33827267787394     -2.36803130030844     -0.78119575477490
  C   -1.29458475262330      0.75427409150896      0.97768574664034
  H   -1.36109474931018      1.51859549910001      0.20508747344724
  H   -2.30517668919512      0.55779315324963      1.33887234696215
  H   -0.70661111723647      1.13904753172132      1.81269249331297
  C   1.71904466521878      0.20253765512938      0.80722098062824
  H   2.73241090665948      0.14293145428506      0.40266993055534
  H   1.70554689084305     -0.34276756971448      1.75544645028024
  H   1.50926673190194      1.25493951088151      1.01394598402023
  C   0.69100719018140      0.43559127257949     -1.48263135585164
  H   0.37033679340577      1.46441723889760     -1.30169118050462
  H   0.02575276854370     -0.00047221086094     -2.23075438741948
  H   1.69362271030232      0.47408601603839     -1.91597909536961
