19
Coordinates from ORCA-job run
  C   -0.65913282041648     -0.16694374501582      0.66183396408649
  C   0.73232762887984      0.29027579241252      0.19448280870215
  H   -0.57014932228458     -0.55301501094111      1.67978540591990
  H   1.03172381201680      1.03600112384511      0.94388800193764
  N   -1.07226527422229     -1.37138852225022     -0.13343623786538
  O   -0.90489553279746     -2.47410677057176      0.38695527483214
  O   -1.51417568755784     -1.18455407041979     -1.26706449297594
  C   -1.74324726671645      0.89043434622008      0.57959717738133
  H   -2.67043023239868      0.52550329459992      1.02712622595335
  H   -1.42462283865228      1.77993480249205      1.12848227356753
  H   -1.94657071771162      1.16494958248292     -0.45387131297439
  C   0.74193895554430      0.96566290561936     -1.17502981816936
  H   0.39392913275355      0.28457962151779     -1.95374937245988
  H   1.76162006807178      1.27161284975037     -1.42258145129353
  H   0.11537654455490      1.85913409601253     -1.19962506036937
  C   1.73684437485649     -0.86032331162535      0.24552979012342
  H   2.74995194439652     -0.48163268759313      0.09067882692192
  H   1.53417115918076     -1.59570274953614     -0.53760796355027
  H   1.70860607250272     -1.38142154699933      1.20560596023225
