19
Coordinates from ORCA-job run
  C   -0.64727113616951     -0.18489827737362      0.66836269385561
  C   0.73023267350438      0.30013737756738      0.18715732891987
  H   -0.53713392141908     -0.58127723469807      1.68029569365715
  H   1.02792914155413      1.04283775130775      0.94022295739130
  N   -1.05217074722533     -1.38581587149414     -0.13603223449883
  O   -1.51315697742755     -1.19142005844600     -1.26072223360650
  O   -0.86016640877453     -2.49207301030909      0.36782110608495
  C   -1.74950103547283      0.85540541970989      0.61497686434835
  H   -2.66507859269008      0.46847508052849      1.06787396207019
  H   -1.43884687867075      1.74176807142139      1.17343754635204
  H   -1.97002319982509      1.14189937741057     -0.41165432932590
  C   0.71088944209658      0.98935718863667     -1.17530178448064
  H   1.72118000132340      1.31993478949362     -1.42964989400633
  H   0.36979204951199      0.30870333141654     -1.95742688780354
  H   0.06501746387166      1.86924195370139     -1.18438259509393
  C   1.75374614745166     -0.83451457342046      0.21302851137210
  H   1.55107134580439     -1.56625982120936     -0.57347451601831
  H   2.75835783541179     -0.43848662176235      0.04656231412282
  H   1.74813279714478     -1.36401487248060      1.16890549665959
