19
Coordinates from ORCA-job run
  C   -0.61782239220631     -0.11809970829340      0.53667786275761
  C   0.50077027652658      0.03835037999475     -0.49600593608026
  H   -0.20570043485795     -0.04822200682773      1.54696858399544
  H   0.04117739894051     -0.08399276998678     -1.48419077595580
  N   -1.12954874866796     -1.52444147673019      0.44554559837117
  O   -1.70427002036479     -1.83809057795096     -0.59539920502531
  O   -0.92036233274404     -2.27413287599600      1.39799820905394
  C   -1.79273953510079      0.82775730149185      0.35511140115979
  H   -1.49204666420225      1.85071012840654      0.58349555659521
  H   -2.16270114131071      0.78313270374614     -0.67019751076740
  H   -2.60835876222912      0.56059934727272      1.03105316270387
  C   1.56951016528941     -1.03811242983895     -0.31444495989175
  H   2.00036070715121     -0.99344584462830      0.69060371412555
  H   1.17021706392940     -2.04305959053972     -0.46612793292883
  H   2.37778565522130     -0.89300151803933     -1.03521847932911
  C   1.11630913132874      1.43292185711234     -0.39849442590130
  H   1.95031235095520      1.52443717030401     -1.09839437809390
  H   1.50673662144498      1.61535262430575      0.60796909313615
  H   0.40037066089659      2.22133728619725     -0.63694957792508
