19
Coordinates from ORCA-job run
  C   -0.67072890490326     -0.49940412029597      0.47315951752852
  C   0.71015753573653     -0.39990275493852     -0.19482252163996
  H   -0.60876183170123     -1.23626703858769      1.27942774801073
  H   0.99718104244445     -1.43030504961708     -0.43397784384261
  N   -1.59008666140614     -1.14331213567247     -0.52823546584841
  O   -2.41742069367680     -0.43866708576864     -1.10377825692046
  O   -1.40498428390100     -2.33984790998558     -0.74390652571655
  C   -1.26475761343512      0.79723410437875      0.98347800502276
  H   -2.27522513142601      0.62942553304111      1.35917684244377
  H   -1.32209208958925      1.55454552347102      0.20328042318197
  H   -0.65714518281389      1.17630252225118      1.80694173618353
  C   1.73193475864759      0.16805598526691      0.78741949771520
  H   2.73917447277982      0.07778200691494      0.37339022475982
  H   1.55124149533466      1.22785967057037      0.98350960197861
  H   1.71427078398734     -0.36553451442599      1.74221909744491
  C   0.68623460610727      0.40096411593559     -1.49458367320525
  H   1.68540318010630      0.41042508550773     -1.93739729186915
  H   0.00401023206948     -0.02850328636506     -2.23114514673910
  H   0.39159428563925      1.43914934831941     -1.32315596848831
