14

C	-0.546249	-0.017745	-1.428282
C	0.0	0.0	0.0
Cl	0.307107	-1.362636	-2.334148
H	1.092295	0.0	0.0
H	-0.255023	0.889168	-1.957721
N	-1.956331	-0.17442	-1.400189
H	-2.152888	-1.020649	-0.875187
H	-2.330444	-0.265729	-2.335859
N	-0.484764	-1.189491	0.723497
H	0.326332	-1.746654	0.960558
H	-0.939548	-0.923161	1.584419
C	-0.46094	1.228071	0.652641
N	-0.83449	2.196594	1.202157
Br	3.486682	0.0	0.0
