14

C	-0.333423	0.018499	-1.479507
C	0.0	0.0	0.0
Cl	-2.124285	0.097795	-1.743101
H	1.097397	0.0	0.0
H	-0.052108	-0.96329	-1.872781
N	0.289464	1.158187	-2.089505
H	0.195138	1.108795	-3.098662
H	1.282658	1.135911	-1.847747
N	-0.458797	-1.22829	0.628508
H	-1.427982	-1.136964	0.912134
H	0.105208	-1.397561	1.453622
C	-0.470507	1.22184	0.670318
N	-0.857184	2.139087	1.294483
Br	3.477997	0.0	0.0
