14

C	-0.323492	0.034861	-1.487554
C	0.0	0.0	0.0
Cl	-2.080674	0.255657	-1.802858
H	1.104324	0.0	0.0
H	-0.105657	-0.964358	-1.887495
N	0.411333	1.116253	-2.081568
H	1.392831	1.026611	-1.812089
H	0.335935	1.072496	-3.090533
N	-0.541749	-1.210491	0.630137
H	0.135193	-1.950412	0.454725
H	-0.535154	-1.072396	1.635398
C	-0.48277	1.196575	0.680852
N	-0.848851	2.136357	1.281528
Br	3.502314	0.0	0.0
