14

C	-0.426844	-0.10323	-1.47507
C	0.0	0.0	0.0
Cl	-0.23307	1.479457	-2.286555
H	1.096827	0.0	0.0
H	-1.490692	-0.351876	-1.530643
N	0.333271	-1.099282	-2.185711
H	0.195342	-1.965672	-1.672069
H	1.319722	-0.862101	-2.080835
N	-0.390978	-1.261725	0.645064
H	0.328512	-1.512306	1.313061
H	-1.267758	-1.159174	1.142069
C	-0.545672	1.167499	0.6938
N	-1.053338	2.04161	1.29352
Br	3.465007	0.0	0.0
