14

C	-0.330343	-0.113859	-1.501487
C	0.0	0.0	0.0
Cl	-0.132014	1.530212	-2.3167
H	1.097589	0.0	0.0
H	-1.386971	-0.34724	-1.667974
N	0.507295	-1.123474	-2.036141
H	1.483311	-0.921303	-1.814941
H	0.393831	-1.217193	-3.036059
N	-0.41895	-1.178214	0.752741
H	0.193599	-1.942068	0.484372
H	-1.366117	-1.432657	0.492987
C	-0.565786	1.197007	0.619819
N	-1.077209	2.12182	1.131695
Br	3.486203	0.0	0.0
