14

C	-0.481976	0.037681	-1.46009
C	0.0	0.0	0.0
Cl	0.029603	-1.451619	-2.299971
H	1.095277	0.0	0.0
H	0.031944	0.851396	-1.982849
N	-1.932906	0.09394	-1.500687
H	-2.249191	0.056022	-2.462068
H	-2.230874	0.979376	-1.104328
N	-0.48531	-1.126152	0.775893
H	0.14117	-1.906199	0.613672
H	-1.412605	-1.374707	0.443734
C	-0.460266	1.258786	0.609218
N	-0.887607	2.274198	1.019959
Br	3.518359	0.0	0.0
