13
Coordinates from ORCA-job run
  C   0.98881173348443     -0.37334845007174     -0.12597028905396
  C   -0.50595499297138     -0.21124994808100      0.22827687739766
  Cl  1.32929542371959      0.15953428023430     -1.78984625024309
  H   -0.62648688620606     -0.52830977468699      1.26612362563981
  H   1.18666485302422     -1.44828948570757     -0.09573126516676
  C   1.88968886049487      0.28034685531599      0.81849417025430
  N   2.63942546146336      0.75553143843426      1.58784491636724
  N   -1.43377345985601     -0.89428707916709     -0.60176519379089
  H   -1.28177453033396     -0.72428384308831     -1.58576206328191
  H   -1.46367229957132     -1.88277239167860     -0.39979119920523
  N   -0.83886696053030      1.26264194534096      0.22943379893714
  O   -1.33409131704098      1.73303492898501     -0.78741332905805
  O   -0.55026588567645      1.87045152417076      1.25710620120375
