12
Coordinates from ORCA-job run
  C   -0.81801171772584      0.01406197376929      0.30330559125982
  C   0.64858516881652     -0.47178624860701      0.44155102798599
  Br  -1.87488884742770     -0.70831533219086      1.79204138011190
  H   1.00758338717073     -0.13297868860047      1.41729549468461
  H   0.62463766116640     -1.56498760404800      0.45069062723737
  C   -1.38549349987662     -0.47219047315445     -0.95102429532693
  N   -1.80521588715274     -0.90760386976296     -1.95861997770297
  C   -0.86411502602116      1.47224025337165      0.36297903222327
  N   -0.85246151986429      2.64469592367520      0.44192168009223
  N   1.40480764651955      0.06934161879926     -0.66045490427266
  H   1.77739351606897     -0.63995003524689     -1.27183946184917
  H   2.13717911832617      0.69747248199525     -0.36884619444345
