12
Coordinates from ORCA-job run
  C   -0.81540280794229     -0.06098508911887      0.30509816611730
  C   0.63380717024326     -0.61109956449519      0.25006813161275
  Br  -1.88673190583882     -1.19670821061224      1.49545633289737
  H   1.01086693791848     -0.62443077860457      1.27671738599527
  H   0.57101421713777     -1.64503436783498     -0.10047818764545
  C   -1.40884926753404     -0.09196887348399     -1.02859283473534
  N   -1.85184878947973     -0.16052813566546     -2.11485497935697
  C   -0.80848338281042      1.29802532331165      0.83893345162723
  N   -0.75244267455337      2.37893105107188      1.29663800256006
  N   1.40106753047978      0.23677242559048     -0.62830389414085
  H   2.14484030359258      0.72663372856082     -0.15640262992756
  H   1.76116266878680     -0.24960750871952     -1.43427894500382
