12
Coordinates from ORCA-job run
  C   -0.82356011177745     -0.04164457338758      0.28585772076404
  C   0.63253457240584     -0.57454898090253      0.32765187857922
  Br  -1.92083029978174     -1.07730010214128      1.54212089990964
  H   0.59181346257695     -1.63851504464286      0.07732870963785
  H   0.97764839696814     -0.48351440186802      1.36132022002154
  C   -1.37189075785053     -0.20638694134605     -1.05727172942515
  N   -1.77500336897591     -0.38380001296664     -2.14681707693615
  C   -0.85040296886612      1.36123833106667      0.68950250353626
  N   -0.82500373684775      2.48086814653038      1.04547584885684
  N   1.41892505898280      0.19969614323893     -0.60043371071754
  H   2.16529466097105      0.71178638384444     -0.15701037867871
  H   1.77947509219472     -0.34687894742545     -1.36672488554784
