12
Coordinates from ORCA-job run
  C   -0.81399009350490     -0.03666549471566      0.31186430066555
  C   0.61318407136384     -0.63876038031392      0.23271534730696
  Br  -1.91690275645891     -1.15716271615151      1.48799977860546
  H   0.99895768529937     -0.68430716068026      1.25499416105401
  H   0.50888919287592     -1.66312209853621     -0.13562374869409
  C   -1.41901773150053     -0.01792697814332     -1.01684404167515
  N   -1.87263636285908     -0.04502636925651     -2.10054826168362
  C   -0.75313656855569      1.30984841854834      0.87323238415824
  N   -0.65454825516874      2.37764291277248      1.35400938298338
  N   1.40445141441114      0.19793682723353     -0.63517643909023
  H   2.17948233823021      0.63739217368083     -0.16406459600319
  H   1.72526706586737     -0.27984913443778     -1.46255826762733
