12
Coordinates from ORCA-job run
  C   -0.74734080282938      0.15644628659239      0.25110047233691
  C   0.79333477587744      0.23349247126407      0.07072891943572
  Br  -1.15838271722409     -0.83007719332330      1.89375480183728
  H   0.96661560954395      0.88055085297809     -0.79647612522923
  H   1.18786337954741      0.74424816274833      0.95382615513595
  C   -1.34405509723423     -0.55091237467446     -0.87849793471324
  N   -1.78504445235664     -1.09604941692762     -1.82151853510655
  C   -1.30949779822197      1.49963432965344      0.37103460009201
  N   -1.69289774761235      2.60761979974470      0.45620539210624
  N   1.33537277271047     -1.08814314557709     -0.11374206472253
  H   1.78366861745267     -1.19972925867110     -1.00960559208735
  H   1.96936346034670     -1.35608051380746      0.62218991091480
