16
Coordinates from ORCA-job run
  C   -0.75543618580396     -0.35245341294363     -0.11527534902159
  C   0.77150391679186     -0.34147182399611     -0.03836261786381
  F   -1.07712128312525     -1.61187624933463     -0.59547701365719
  H   1.11787569654931     -1.10923967808718      0.65172760689825
  C   -1.28377197667111      0.66802402603257     -1.03220399405901
  N   -1.78752658282153      1.51780951132899     -1.66706032253548
  C   -1.38250194815939     -0.18831681599364      1.25802400028003
  H   -1.21644023682123      0.81156762213570      1.65787388279702
  H   -2.45584237401937     -0.35563583985576      1.15946272148984
  H   -0.96696674598089     -0.92650360323347      1.94562557302523
  N   1.27624571978839      0.97899834020920      0.46051111963439
  O   1.40978471783129      1.06871403491877      1.67644141448698
  O   1.47514284590893      1.84853221001655     -0.38033312477421
  N   1.44775369776736     -0.60770834284344     -1.35213917547200
  O   2.62700173595171     -0.92904360269756     -1.24736737643305
  O   0.80029900281387     -0.47339637565634     -2.38144734479542
