16
Coordinates from ORCA-job run
  C   -0.76246800000209      0.03274560551362     -0.21380094425347
  C   0.72686325367828      0.25015289581271      0.06828311689365
  F   -0.90155061297783     -0.65226723584235     -1.39964109089429
  H   0.88569380037831      0.75006885108023      1.02353603701396
  C   -1.40387764566738      1.35462513450892     -0.32165543511038
  N   -1.94925623475211      2.39458187911843     -0.31265177184697
  C   -1.43111631499826     -0.77584071852237      0.88649690374604
  H   -1.30302928503528     -0.30262215468287      1.86099007822376
  H   -2.49547812981181     -0.84527986363030      0.66021264643571
  H   -1.00983444708315     -1.78038864342784      0.91611726031717
  N   1.44425366054408      1.06299862256715     -0.97481791985670
  O   2.61687947229919      1.29252269837446     -0.70188547821565
  O   0.82668756773863      1.41592699741377     -1.97084957187691
  N   1.42894274773480     -1.07548239722404      0.13801776906829
  O   1.82333013378846     -1.55172866205092     -0.91785328805868
  O   1.50296003416615     -1.57001300900859      1.25850168841447
