16
Coordinates from ORCA-job run
  C   -0.74266172554258     -0.34430880263229     -0.02574288799021
  C   0.78679351240688     -0.26960226579547     -0.01995866328082
  F   -1.00546658048178     -1.64297388578413     -0.45351619012035
  H   1.19567693109586     -0.98009061677366      0.69789048765637
  C   -1.36232517643643      0.57498034690459     -0.99002011935054
  N   -1.94636189999906      1.26950801553543     -1.73554773696994
  C   -1.33305838260583     -0.17557243436527      1.36019952442896
  H   -1.20042235544093      0.84219401136989      1.72194626561257
  H   -0.86015386055133     -0.88350214237266      2.04408525463726
  H   -2.39913646874510     -0.40052409776439      1.30738388600867
  N   1.34710969862487      1.08136072555398      0.30802257654877
  O   0.56607520543687      2.01335763923281      0.46719436821895
  O   2.56930051820373      1.11721668295352      0.38555171012911
  N   1.33669607374051     -0.64488029817256     -1.36613210368400
  O   1.22082813058003      0.20315321188089     -2.24409123654750
  O   1.82810637971428     -1.76231608977068     -1.45826513529732
