15
Coordinates from ORCA-job run
  C   -0.47229834097815      0.06428029077187      0.04257043776738
  C   0.91169163725282     -0.12158023773597      0.64698869413846
  F   -1.28609428436765      0.70387363203727      0.96901791720315
  H   0.81258495059699     -0.76953625471013      1.52319621139739
  H   1.51385285673339     -0.66847308265716     -0.09958994103391
  C   -1.14235901491407     -1.26100454118736     -0.27734660612161
  H   -0.56995049977689     -1.81667532017092     -1.02381592798165
  H   -1.23272844588627     -1.87171593865285      0.62343887394472
  H   -2.14415616666989     -1.07489181254042     -0.67068593096630
  N   -0.37636691679512      0.98419705602919     -1.07881761740422
  H   0.04843429506972      0.51632929276938     -1.87123513866153
  H   -1.31113493301509      1.26996078481474     -1.34778645115010
  N   1.46460244739529      1.16135890318064      1.05153504964358
  H   1.32650631044269      1.81397287897069      0.28931802865692
  H   2.45741610491223      1.07090434908103      1.22321240056771
