15
Coordinates from ORCA-job run
  C   -0.45892534725075      0.16045839503868     -0.18254331922339
  C   0.98140482965588      0.47749117966271      0.18377831400581
  F   -1.22649769503793      0.54062636654397      0.96584264954400
  H   1.61931904047532      0.14491243244431     -0.63808474034753
  H   1.07062740834467      1.57418915027862      0.25209126669726
  C   -0.72222313610751     -1.31053529054000     -0.39914836584933
  H   -1.79303458153623     -1.47605172175854     -0.54189964154111
  H   -0.18709297774994     -1.65768978335828     -1.28399385288516
  H   -0.38594130168970     -1.87182433312216      0.47003844424530
  N   -0.84460270810324      0.92561202085054     -1.31409745604206
  H   -0.76888496128250      1.91604204760622     -1.11709651131092
  H   -1.80063075854380      0.72016787450020     -1.57583930131358
  N   1.35837431497924     -0.22463908574855      1.40360592173019
  H   2.33761128196553     -0.06786418655056      1.60348098565561
  H   0.81949659188096      0.15010493415283      2.17386560663493
