15
Coordinates from ORCA-job run
  C   -0.57190974409520      0.13038941867535     -0.03317513327709
  C   0.86094930195218      0.58605446075311      0.21363310295645
  F   -1.20226731251162      0.25265732547855      1.22494747624105
  H   1.41277718545466      0.50294137444424     -0.72750470453110
  H   0.81210644712146      1.65575882122653      0.47866680787995
  C   -0.68390736244676     -1.31949897490276     -0.44450008893888
  H   -1.73878840306583     -1.57960838956114     -0.54553748664336
  H   -0.21833165039337     -1.94902528477771      0.31047419059881
  H   -0.17545766900490     -1.49058916071965     -1.39684283517985
  N   -1.28755598264368      0.96998642039891     -0.94466271017587
  H   -0.96933380570313      1.92957699203412     -0.91084910917156
  H   -1.24250674489761      0.62552377881146     -1.89195067046521
  N   1.50599936166218     -0.24622256448519      1.22102370643635
  H   2.46979509092218      0.03786659425312      1.34213361080072
  H   1.02943128764945     -0.10581081162892      2.10314384346960
