15
Coordinates from ORCA-job run
  C   -0.54342995206476      0.21779018596140     -0.05425427328835
  C   0.94968293990176      0.45909166117848      0.13089827490305
  F   -1.12015930303656      0.62295345085320      1.16975264063651
  H   1.46201369777284      0.15171164063611     -0.78570627904029
  H   1.08327248557518      1.54889879077408      0.23821003015556
  C   -0.90166158268345     -1.23712262670095     -0.25155205282641
  H   -0.53023231102925     -1.82037569678584      0.58803899090045
  H   -1.98682446613395     -1.33025197619476     -0.31729358410421
  H   -0.44836254475296     -1.62504269469954     -1.16745926628440
  N   -1.12808847935957      1.02482515149685     -1.08126088014979
  H   -1.15602317424437      0.54564212380547     -1.96878367867477
  H   -0.65652002066198      1.91386720650477     -1.18386263335039
  N   1.46782315458721     -0.31520516790934      1.25113569506117
  H   2.46816663103156     -0.18511256904162      1.33199387776955
  H   1.04134292509829      0.02933052012168      2.10214313829232
