15
Coordinates from ORCA-job run
  C   -0.51246503356364     -0.04080058671651     -0.06214908660359
  C   0.86009869078296     -0.04886955003843      0.60212421909262
  F   -1.40631545953970      0.52272925558417      0.89719516004883
  H   1.50565455589250     -0.74161143433260      0.05306636585720
  H   0.72155902695613     -0.44840251288503      1.61048461468769
  C   -1.03201119276688     -1.43234222452263     -0.34701612692504
  H   -1.01815939763595     -2.03675960457585      0.56220274635362
  H   -0.42554897666659     -1.91360992212058     -1.11469694117847
  H   -2.06536510775453     -1.37508111137510     -0.69682662245155
  N   -0.46527996021743      0.75478148180642     -1.23208340008378
  H   -1.39104522453139      0.85733078806324     -1.62847122450637
  H   -0.10355328036795      1.66585381997127     -0.97102158180544
  N   1.42173747785449      1.30158499703839      0.64615885910293
  H   1.64715469078168      1.57580586872693      1.59024555492053
  H   2.26253919077630      1.36039073537630      0.09078746349081
