16
Coordinates from ORCA-job run
  C   -0.66162820575608     -0.24065191819203     -0.42002517726888
  C   0.77207243744977     -0.27845604021530      0.10065689051601
  F   -0.78081893267453     -0.87467994001712     -1.61285927688752
  H   1.06760592729457     -1.31621968505492      0.23857432724560
  N   -1.16322282879684      1.05707795371787     -0.52123466766952
  H   -1.21726691930697      1.48677439889213      0.39282221404796
  H   -2.08567740779384      1.05082610865692     -0.93864593258101
  N   -1.48298130513133     -1.15073064289418      0.55835251466042
  O   -2.54019462914200     -0.69591723593734      0.97854691720566
  O   -1.01964576378309     -2.26087407886852      0.79044649660998
  N   0.84470342789284      0.47821641558493      1.30325551269724
  H   1.59331511832616      0.14941066651338      1.89722996676096
  H   1.01927826585239      1.45198320126134      1.07727048892805
  N   1.67019702859261      0.25402048511161     -1.01204285408888
  O   2.00244580349923      1.43344262633021     -0.94428813067338
  O   1.98081798347709     -0.54522231488898     -1.88805928950269
