16
Coordinates from ORCA-job run
  C   -0.68686230148756     -0.28929543274974     -0.24176389563692
  C   0.78054300259515     -0.29206459009967      0.16905853841532
  F   -0.81549614400419     -1.13879709689121     -1.33454577105083
  H   1.09369811066127     -1.31218610558432      0.37858603038454
  N   -1.20970319712026      0.98502495117853     -0.42140840887728
  H   -0.75305215067857      1.47153909646157     -1.18101502102664
  H   -2.21661107538624      0.97808057231590     -0.50642217710716
  N   -1.48947390273241     -1.00120819236642      0.85258388400462
  O   -2.60476061736060     -0.56032521601206      1.10223111990004
  O   -0.97642861432922     -2.00351910475456      1.33103138826648
  N   0.96587427520321      0.55923886073224      1.27374794485106
  H   1.90459455534787      0.53238115660332      1.64466464954501
  H   0.66157706790386      1.50372128079625      1.08238749567321
  N   1.58153342706758      0.09024494454619     -1.08519344543596
  O   1.46489724437004      1.25047770588408     -1.48255141621775
  O   2.29867031995006     -0.77231283006008     -1.57939091568775
