16
Coordinates from ORCA-job run
  C   -0.69744506180851     -0.40819762499137     -0.30971247164401
  C   0.76369353302742     -0.29078521292325      0.12317735868821
  F   -0.77048081618318     -1.45038881379566     -1.21090546015024
  H   1.12991656723812     -1.28208215902213      0.38276130630900
  N   -1.29329335021727      0.74784113101438     -0.77173121257841
  H   -2.13113444538016      1.02718913531590     -0.28930261357677
  H   -0.68204225530258      1.48469267220218     -1.08011512403968
  N   -1.45229829679468     -0.93674852129229      0.92767907564636
  O   -2.39649565382826     -0.28166383980858      1.35137536124612
  O   -1.03972782310684     -1.99713163483933      1.37417691173146
  N   0.87677140955474      0.61342687272481      1.20212546981866
  H   1.78860135417556      0.58062508130656      1.63597338710622
  H   0.65615765179624      1.56122317923470      0.92880364155667
  N   1.55686254479605      0.10704581771723     -1.12239494631622
  O   2.18151778915553     -0.77039540794849     -1.70534649283563
  O   1.50739685287782      1.29834932510534     -1.43756419096174
