16
Coordinates from ORCA-job run
  C   -0.61809133450848     -0.24123408055170     -0.39990685461488
  C   0.84347148876351     -0.19412820343740      0.05401419213007
  F   -0.65711015385740     -0.79966572852273     -1.66433728171209
  H   1.26501750579068     -1.19231465731107     -0.05083681271489
  N   -1.28510060000635      0.96361692344427     -0.25423561047908
  H   -0.81806622476772      1.72486647212580     -0.72668988368813
  H   -2.27324780161633      0.91215192351279     -0.45408205883783
  N   -1.28689281548305     -1.30314974142562      0.49485990542132
  O   -0.82057476973748     -2.43189511208501      0.39677796821889
  O   -2.19993485653117     -0.94840119148684      1.23007271077217
  N   1.03847339069306      0.33928225275405      1.35155263021046
  H   1.15287648968464     -0.37569882022442      2.05248306114897
  H   0.31786352458555      0.99994458600277      1.60744932416118
  N   1.59561467100861      0.64156054999166     -0.96728387344491
  O   1.33960544191354      1.84425527471841     -0.98794331755100
  O   2.40409604406840      0.06080955249504     -1.68189409902025
