16
Coordinates from ORCA-job run
  C   -0.61933261796104     -0.28540013936717     -0.29366657186548
  C   0.86091773217345     -0.18369835349598      0.07113255952617
  F   -0.71032518066526     -0.98881202966292     -1.48876787296303
  H   1.27164938578938     -1.18573570171641      0.15815730639716
  N   -1.29352040883595      0.93029624977294     -0.27090269323395
  H   -2.28440053355575      0.81211424234679     -0.43640814405787
  H   -0.86823604131547      1.59459017363191     -0.90504882785811
  N   -1.32120198090407     -1.21021818121423      0.70639782509396
  O   -2.54546479633706     -1.18181801321612      0.68048514658777
  O   -0.62465385067260     -1.93526848751593      1.40854036772203
  N   1.14336539669341      0.60790062869394      1.21286393733806
  H   1.31704640931064      0.04042595640185      2.02757124340510
  H   0.41881794078539      1.28964999734449      1.38989814043042
  N   1.57075083551790      0.41191965183153     -1.13473573888086
  O   2.47007576457357     -0.24998736924778     -1.63735070004686
  O   1.21351194540345      1.53404137541309     -1.48916597759453
