16
Coordinates from ORCA-job run
  C   -0.64416671688518     -0.39958512734886      0.09932694178707
  C   0.59870177740747      0.39834482486001     -0.29655481244597
  F   -0.32974335881008     -1.13081953377951      1.22812729746685
  H   0.29778970845079      1.21816095339977     -0.94752494599625
  N   -1.10213026402342     -1.15942610310645     -0.97358416636047
  H   -1.83436961568708     -1.80326314739436     -0.70449848879925
  H   -0.33366340547450     -1.61510154109190     -1.44700242125594
  N   -1.79219810424544      0.53284230897350      0.50371686047325
  O   -1.99391034032752      1.47320326356115     -0.25022739784334
  O   -2.44127442102018      0.21970331118106      1.49104984186662
  N   1.54260298215135     -0.45679345836020     -0.92057748415238
  H   2.24612574101939      0.07417896296542     -1.41457986484650
  H   2.00762341841017     -1.03192827665636     -0.22811636497425
  N   1.13358772020542      1.06359531398936      0.98157810655766
  O   2.29467913969965      0.82810274844665      1.29503246543582
  O   0.34934573912918      1.78778550036071      1.58183443308709
