16
Coordinates from ORCA-job run
  C   0.48396178415625     -0.30366216460197      0.21238306220189
  C   -0.90991802226875      0.32146815557451      0.11247628355669
  H   0.39557923311590     -1.36718386009390      0.43668272324547
  H   -0.84057361561061      1.39916377417819     -0.03496344419557
  N   1.16667917744221      0.30968110109024      1.40155394610853
  O   1.04693264250795      1.52496964297677      1.54329369116724
  O   1.82927212934820     -0.44416133429445      2.10583051908178
  C   1.33614468773225     -0.04775433412679     -1.01783606533172
  H   2.34501668792136     -0.42703182716077     -0.84581642464580
  H   1.38716896598876      1.02060705368794     -1.23599393304914
  H   0.92340802345504     -0.56940654029500     -1.88252846411700
  C   -1.73037709716173      0.00609013639518      1.27561412162878
  N   -2.36607745801330     -0.24694574746176      2.23012605892124
  N   -1.55207818399166     -0.25000246391436     -1.12794849474744
  O   -1.81598689042129     -1.44688696653303     -1.10118283352461
  O   -1.70015206420059      0.52105537457921     -2.06969074630035
