16
Coordinates from ORCA-job run
  C   0.51754743220800      0.04079422322904      0.45828253660584
  C   -0.94886178924032     -0.22048376291195      0.14832650463266
  H   0.59904097401971      0.39031880363876      1.48862055525910
  H   -1.31242295103282     -0.96294695347054      0.86871777208167
  N   1.02507807611582      1.19024568441171     -0.37547058996780
  O   2.18190270811650      1.53099514474265     -0.15978117276479
  O   0.25844340857752      1.69276083200671     -1.19334655378358
  C   1.39332241187177     -1.17579566428503      0.21178582493270
  H   1.04275973931423     -2.01761295387022      0.81282154956740
  H   1.37187810470132     -1.46437532084381     -0.84089612097269
  H   2.41982596666893     -0.94902949057476      0.49632736276324
  C   -1.18240004246291     -0.71758444193727     -1.20115378732019
  N   -1.32816872625306     -1.20770292603091     -2.25816704707482
  N   -1.80165968422615      1.00874772683073      0.42777997217155
  O   -1.46102546690016      1.66803255592433      1.40181367351355
  O   -2.77426016147838      1.19363654314058     -0.28566047964381
