16
Coordinates from ORCA-job run
  C   0.49162298200688      0.06886317884492      0.48165371739172
  C   -0.94081355863682     -0.27405062882132      0.10150371872802
  H   0.50359592140685      0.42059206625405      1.51442592712476
  H   -1.29601554822371     -1.03875196202960      0.80264290804925
  N   0.97317804763608      1.24692250913720     -0.32743725614776
  O   0.21831637508796      1.70967233334167     -1.17898114050002
  O   2.09812247472788      1.65015630076308     -0.05768299726120
  C   1.44540585027750     -1.09630060943717      0.28049131010501
  H   1.11540262472257     -1.95542904371796      0.86860872743671
  H   1.48970267144223     -1.38768388135923     -0.77070999809499
  H   2.44278471741754     -0.81101723231800      0.61200018763889
  C   -1.08030807171832     -0.77874070929267     -1.25812354286844
  N   -1.14028674974897     -1.26862329473564     -2.32354271044298
  N   -1.87590245726682      0.90274734727084      0.34070740241845
  O   -1.61600544678330      1.58410550610412      1.32429995290255
  O   -2.82879983234755      1.02553811999569     -0.41185620647998
