11
Coordinates from ORCA-job run
  C   -0.86373032406395     -0.35889780858357     -0.20613029576840
  C   0.57957609346977     -0.13368562047639      0.30609774527509
  Cl  -0.95778272887848     -0.08778433402697     -1.95601550071680
  H   0.57160159058903     -0.29656198632736      1.39209187721747
  H   -1.13372802327260     -1.40210798390765     -0.02300816186058
  C   -1.78574437619935      0.51496990049742      0.51214989740038
  N   -2.51415394280670      1.20778946411643      1.11984078602664
  C   1.02668202791691      1.23851613992299      0.05103279191344
  N   1.37735383514468      2.34298712078968     -0.13663141862502
  C   1.49265407653545     -1.10976540480990     -0.29615484499813
  N   2.20827177156523     -1.91445948719467     -0.76327287586410
