11
Coordinates from ORCA-job run
  C   -0.86192859983435     -0.36350260848673     -0.21134993520805
  C   0.57335053405698     -0.12795266661737      0.31799445188289
  Cl  -0.92792492153087     -0.13453328368008     -1.96868119441419
  H   0.54834918500713     -0.26704999871412      1.40703020852482
  H   -1.13661943438370     -1.40162937833889     -0.00744909867902
  C   -1.79333001331807      0.52925812312475      0.47066124122009
  N   -2.52815665087613      1.24028361801729      1.04876829899137
  C   1.02684002181538      1.23778453038447      0.04057492280643
  N   1.38653808081346      2.33677028860532     -0.16202578612720
  C   1.49509199967025     -1.11741858984488     -0.24819587363355
  N   2.21778979857993     -1.93201003444976     -0.68632723536360
