11
Coordinates from ORCA-job run
  C   -0.84119877363133     -0.41222602596145     -0.09797568731658
  C   0.60205208585454      0.13344821236263     -0.24336793832277
  Cl  -1.29014060780492     -1.28883432232988     -1.57652234766170
  H   0.62982573508335      0.78302934548136     -1.12648014718908
  H   -0.87809897997223     -1.12317826203788      0.73071933730170
  C   -1.76949990914605      0.68562458544698      0.14982261274060
  N   -2.50432094827087      1.58038841123056      0.34830506333155
  C   1.55093755670757     -0.96724894286329     -0.43747959649139
  N   2.30750144601966     -1.85223605582071     -0.58748273442394
  C   0.96406740291368      0.91791231625513      0.94170409319335
  N   1.22987499224662      1.54432073823655      1.89875734483826
