11
Coordinates from ORCA-job run
  C   -0.81560373213760     -0.33112119545670     -0.37847734544737
  C   0.54301894812003     -0.17557743719422      0.34612735367263
  Cl  -0.71077688355099      0.26793904552907     -2.04428878011237
  H   0.41087801487138     -0.54102067383077      1.37327661510657
  H   -1.05641977084594     -1.39603218004340     -0.42992522519087
  C   -1.85767266895777      0.36696928811825      0.36736667196741
  N   -2.68320763679223      0.91457230361929      0.99867386776664
  C   0.95677168260110      1.22891685395153      0.40899520121591
  N   1.27932260208356      2.35570881914797      0.47584087161464
  C   1.56538326196105     -1.00119441618901     -0.30369826312112
  N   2.36730618264741     -1.69016040765200     -0.81389096747206
