11
Coordinates from ORCA-job run
  C   -0.83775715915097     -0.25044508666847     -0.52340919757822
  C   0.68957046177016     -0.06988731122432     -0.35267521108591
  Cl  -1.40510114025587      0.79818046767468     -1.84035038335168
  H   1.15151277422430     -0.25961972683529     -1.32888403205872
  H   -1.03081829614074     -1.28328460744150     -0.82304233616144
  C   -1.54478750712507      0.03811447545074      0.71900668012944
  N   -2.10352296544541      0.25911579538290      1.72846704151409
  C   1.19822879543383     -1.05258333518818      0.60979545064168
  N   1.57880656616065     -1.86825108083912      1.36396365106163
  C   1.02086352920418      1.29639135119666      0.06097245148464
  N   1.28400494132495      2.39326905849190      0.38615588540449
