11
Coordinates from ORCA-job run
  C   -0.81281663327998     -0.35345310419035     -0.36437432299410
  C   0.54102715867142     -0.15620315361527      0.35962600701664
  Cl  -0.69566269758500      0.14719107500311     -2.06138268490659
  H   0.40155383847201     -0.46230420798673      1.40501670377677
  H   -1.05471367432932     -1.41929908387840     -0.35499369964488
  C   -1.85827321891553      0.38873443209389      0.33267777093451
  N   -2.68822750452495      0.97345135631563      0.92349284786842
  C   0.95246168798212      1.25030265420128      0.34432801533109
  N   1.27028704163651      2.38029618621594      0.34690612793339
  C   1.56873868372945     -1.01651205427311     -0.23430968687630
  N   2.37662531814326     -1.73220409988599     -0.69598707843897
