11
Coordinates from ORCA-job run
  C   -0.87462726931678     -0.36793155785544     -0.12276513877763
  C   0.61150082286480     -0.12779011558626      0.23771416995483
  Cl  -1.16316367824087     -0.04489417773444     -1.84227890153713
  H   0.72343775001280     -0.31829406443270      1.31336913954365
  H   -1.10393518438712     -1.42197086083624      0.05353320706787
  C   -1.72920981560507      0.46240084293493      0.71983718125834
  N   -2.40018545910702      1.11827512060849      1.42651387569192
  C   1.00707864289337      1.25808464463315     -0.02797613533959
  N   1.32126229250498      2.37099304540518     -0.22959712231370
  C   1.46900783956392     -1.07242200687626     -0.48461700018232
  N   2.13883405881698     -1.85845087026042     -1.04273327536624
