11
Coordinates from ORCA-job run
  C   -0.87054660123680     -0.38331662596035     -0.11229690334545
  C   0.61235685599797     -0.11527424621491      0.24153589064450
  Cl  -1.15952690132894     -0.12358352275294     -1.84244208316876
  H   0.72528816268302     -0.27163833931875      1.32265809652316
  H   -1.08974934103090     -1.43269761446019      0.10065367179469
  C   -1.73410902033721      0.46814438354672      0.69955070865377
  N   -2.40970907708864      1.14419795492878      1.38244603256152
  C   0.99090456524743      1.26730966408889     -0.06404834388963
  N   1.28668633569454      2.38032401647187     -0.29096156987828
  C   1.48249020133059     -1.07024660485102     -0.45150162551704
  N   2.16491482006895     -1.86221906547811     -0.98559387437849
