11
Coordinates from ORCA-job run
  C   -0.85435797869315     -0.39899854301162      0.02693232585519
  C   0.57987074181984      0.08395966463540     -0.30781800804440
  Cl  -1.44466411880466     -1.44237654424620     -1.28392091809512
  H   0.54181398845702      0.61479956376400     -1.26666067414375
  H   -0.83147968557100     -0.99813323283440      0.94027978219976
  C   -1.73763627854570      0.74795095622087      0.20863768211980
  N   -2.43185084459540      1.68475495783757      0.35074661195119
  C   1.49072176315472     -1.05768951462359     -0.43600070733375
  N   2.21547877397252     -1.97601742560541     -0.53354788474375
  C   1.05595334594362      1.00310269885949      0.73126135823662
  N   1.41815029286218      1.73964741900390      1.57109043199820
