11
Coordinates from ORCA-job run
  C   -0.77137232460228     -0.17236066816026     -0.51270608436029
  C   0.50734908810145      0.39801208982475      0.15153443476858
  Cl  -1.39697262183870      1.00259791698623     -1.68919720952205
  H   0.24378358144855      1.34950500254274      0.62879633779268
  H   -0.52024338785805     -1.08433899896929     -1.05927701245768
  C   -1.77586110371356     -0.46501941252528      0.50405303446799
  N   -2.57408489827574     -0.69435308201204      1.33483246729141
  C   1.54336654701922      0.64634189058383     -0.85571856084386
  N   2.37074829038354      0.83821584442692     -1.66608798473079
  C   1.00024764596849     -0.53141082798412      1.17340077378769
  N   1.37503918336708     -1.28818975471349      1.98936980380630
