11
Coordinates from ORCA-job run
  C   -0.84026706583987     -0.39668464772449     -0.15622621545758
  C   0.61265956479918      0.14005325215271     -0.20678710201762
  Cl  -1.22939079444383     -1.18599773986515     -1.69963586260857
  H   0.68483435420179      0.83913053076916     -1.04860805853114
  H   -0.92103108178593     -1.15140657677785      0.62944779741506
  C   -1.76908447829975      0.69686949298349      0.10797570313961
  N   -2.50455860891161      1.58925366978270      0.31408929001575
  C   1.55984135701543     -0.95795705721475     -0.42321051741397
  N   2.31590189306158     -1.84009350412032     -0.59141565884538
  C   0.92966636193248      0.85059126250146      1.03636430243851
  N   1.16342849827052      1.41724131751304      2.03800632186532
