11
Coordinates from ORCA-job run
  C   -0.86044277583140     -0.38368286500001     -0.01781495141958
  C   0.59512851823129      0.08034945224822     -0.27783818436823
  Cl  -1.40581402550342     -1.39493849601714     -1.37323923682503
  H   0.60837837361627      0.63175060182860     -1.22568443666155
  H   -0.89029118327725     -0.99837689900668      0.88481601881511
  C   -1.73368091102081      0.77418091105263      0.14126787935394
  N   -2.42360907034140      1.71671909136572      0.26588256093157
  C   1.49149163880463     -1.07425665525293     -0.39223703477600
  N   2.20536743690355     -2.00197794752010     -0.47942665095399
  C   1.03960602748521      0.96894912111708      0.80083860430015
  N   1.37386597093332      1.68028368518461      1.67343543160360
