11
Coordinates from ORCA-job run
  C   -0.84916498092517     -0.36463704532441     -0.17956087374075
  C   0.62774084739438      0.10511758427439     -0.18671313717112
  Cl  -1.20961961975965     -1.19308097264896     -1.70910524400496
  H   0.76793325424989      0.76459197534198     -1.05161780013180
  H   -0.99623525770542     -1.08529989646178      0.62813343546760
  C   -1.73793140392892      0.77700214396535      0.00697588246594
  N   -2.44140569618104      1.70622803062434      0.15386130499948
  C   1.53088663186891     -1.04253203088892     -0.31692083345279
  N   2.24868692588872     -1.96603894131016     -0.41683516367700
  C   0.92349184972942      0.85140789566019      1.04067379939390
  N   1.13661744936886      1.44524125676797      2.03110862985149
