11
Coordinates from ORCA-job run
  C   -0.86243314300234     -0.37334410529779      0.06625977392342
  C   0.58256465218226      0.03821298593390     -0.31323694940314
  Cl  -1.47531037312379     -1.53535763890132     -1.12963354963044
  H   0.55744255646675      0.46495131009464     -1.32313155705887
  H   -0.85397176102986     -0.87351222246446      1.03747808472957
  C   -1.72105885258520      0.80473669947777      0.12408230278134
  N   -2.40150427961097      1.76135776049987      0.16773082094907
  C   1.46609571445866     -1.13181245256598     -0.31700549060489
  N   2.16907835076689     -2.07191400006169     -0.31339062584872
  C   1.08012403794417      1.05179008874369      0.62284378318938
  N   1.45797309753342      1.86689157454139      1.37900340697328
