11
Coordinates from ORCA-job run
  C   -0.85155393221555     -0.25250530406782     -0.50032391723350
  C   0.67552734532101     -0.03670212565705     -0.37818117280929
  Cl  -1.49478512064581      0.83376172801123     -1.75054227645417
  H   1.10419708092918     -0.17413781670609     -1.37811772612651
  H   -1.02803675939903     -1.27685388395710     -0.83691728999808
  C   -1.52025097631417     -0.03573612357106      0.77724779634880
  N   -2.04813579485024      0.12761777002828      1.81380255635926
  C   1.24822584897468     -1.04247135781089      0.52241623965409
  N   1.68562751216840     -1.87623016109502      1.22437680543159
  C   0.98830518332040      1.32062631326158      0.07741057298281
  N   1.24087961271111      2.41163096156395      0.42982841184498
