11
Coordinates from ORCA-job run
  C   -0.85279453194786     -0.32468293609430     -0.29334602230648
  C   0.57271262937543     -0.18045767627268      0.29240365208541
  Cl  -0.90537505256743      0.25841571890572     -1.96724277797941
  H   0.53851511283800     -0.53766298485972      1.33027817569405
  H   -1.11084341047180     -1.38672322878377     -0.31000472640418
  C   -1.80666357613082      0.39429324669056      0.54508081369665
  N   -2.55857022038159      0.95884749574085      1.24911939336914
  C   1.00501287238109      1.21983156561739      0.30335343709736
  N   1.34432779659391      2.34333045396861      0.33032250453287
  C   1.51663844589631     -1.02173666963487     -0.44941816692456
  N   2.25603993441476     -1.72345498527779     -1.03154628286087
