11
Coordinates from ORCA-job run
  C   -0.86810042039876     -0.23723124004735     -0.47640991445765
  C   0.66705488816172     -0.06321765506332     -0.39361513059626
  Cl  -1.50976487331292      0.84009912981897     -1.73511999189483
  H   1.06838225891535     -0.23165306860107     -1.40009225347497
  H   -1.08158377793343     -1.26317418449748     -0.78584108841817
  C   -1.50072314659812      0.02554792765852      0.81101148170829
  N   -2.00285058507657      0.22474261127171      1.85424685995808
  C   1.22966413196117     -1.06857663796574      0.51380045346052
  N   1.65203162485753     -1.90223192406762      1.22486375147281
  C   1.02805342536823      1.29265447148007      0.02917973978672
  N   1.31783647405578      2.38204057001329      0.35697609245547
