11
Coordinates from ORCA-job run
  C   -0.85806108166044     -0.38783002914511     -0.04646208533548
  C   0.59681228650373      0.09778677726579     -0.26763105309507
  Cl  -1.38293226277946     -1.33139805446703     -1.45732592229310
  H   0.61625318646452      0.69513426952354     -1.18714159338001
  H   -0.89217215673767     -1.04837451556426      0.82310946587873
  C   -1.74105399217414      0.75416643982675      0.16445621075156
  N   -2.43916607273103      1.68419639912521      0.33046458442413
  C   1.50160279928762     -1.04440535683570     -0.42897720621982
  N   2.22219521326129     -1.96296484549405     -0.55198257364175
  C   1.02625069818480      0.93545273394080      0.85683827650987
  N   1.35127138238079      1.60723618182404      1.76365189640093
