11
Coordinates from ORCA-job run
  C   -0.79848272766961     -0.36503516156797     -0.38371985144069
  C   0.54859494048906     -0.15345671639563      0.34877165910839
  Cl  -0.70764286882008      0.23655919688889     -2.04950582789599
  H   0.42600360065958     -0.52475074651999      1.37500131901635
  H   -0.99602104703812     -1.43880856290237     -0.43562003560726
  C   -1.87170834938199      0.29171583492949      0.35555210343087
  N   -2.72271985715020      0.80515744674676      0.98155259302514
  C   0.90079350419006      1.26757354687552      0.41527762526895
  N   1.17169598784797      2.40737971996377      0.48870126750693
  C   1.60818850521355     -0.93509193231056     -0.29567498160437
  N   2.44129831165980     -1.59024262570789     -0.80033587080833
