11
Coordinates from ORCA-job run
  C   -0.84881762530946     -0.08703558041471     -0.39736069961571
  C   0.54224096483722      0.36344460479226      0.11635766531476
  Cl  -1.60139407415565      1.24365871385588     -1.30257805221752
  H   0.39885792603944      1.25032860001991      0.74516498881595
  H   -0.72643056043026     -0.92637930763656     -1.08599425003098
  C   -1.69215909329067     -0.48630712652504      0.72418221523945
  N   -2.35884332740497     -0.80698984423931      1.63637519357575
  C   1.41470759084948      0.71834738615715     -1.00712615895359
  N   2.10807012892641      0.99997191762370     -1.91173288300256
  C   1.14969505614374     -0.70219246855177      0.92010834435091
  N   1.61507301379473     -1.56784689508151      1.56260363652356
