11
Coordinates from ORCA-job run
  C   -0.85596493243044     -0.30340766078320     -0.46249716699835
  C   0.66480410890123     -0.02658885549153     -0.39807953354989
  Cl  -1.57852288018667      0.70682339967855     -1.73325212696702
  H   1.06737127361998     -0.18662888822009     -1.40534853152482
  H   -1.00339969739093     -1.34653881436006     -0.75245398160695
  C   -1.49285194507253     -0.05905324989091      0.82661814568879
  N   -1.99505748941590      0.12802649625525      1.87195087485275
  C   1.30203158889146     -0.97537509737913      0.52055210731907
  N   1.79001182751100     -1.76566490541292      1.23904164693854
  C   0.93955559062695      1.35800363655149     -0.00469433150043
  N   1.16102255494585      2.47040393905254      0.29816289734831
