11
Coordinates from ORCA-job run
  C   -0.85946281818349     -0.08028834698539     -0.37854106716634
  C   0.53317963307632      0.36987242021327      0.13104256149896
  Cl  -1.67868117073726      1.29691385815145     -1.14535000978820
  H   0.38406998785561      1.19569943977259      0.83692401806286
  H   -0.73405731578010     -0.85444904143633     -1.13912475424735
  C   -1.65419968592311     -0.59761778374277      0.73023029445038
  N   -2.27998215296888     -1.00377688603912      1.63761129735147
  C   1.36017848655323      0.84329336818771     -0.98331100542694
  N   2.01906235030525      1.21246196675336     -1.88204834554645
  C   1.19807684334154     -0.73993102776593      0.82201229694518
  N   1.71181584246090     -1.64217796710883      1.37055471386642
