11
Coordinates from ORCA-job run
  C   -0.86696947730113     -0.36658395341702     -0.01593612015565
  C   0.59719676776481      0.06732555536439     -0.28011366354317
  Cl  -1.43334684694937     -1.37506981687548     -1.36432951823030
  H   0.62156151942290      0.61053378413015     -1.23250396849929
  H   -0.90681002054417     -0.97525786402936      0.89025523811974
  C   -1.71784704290630      0.80858759783925      0.13774280642919
  N   -2.39032181337032      1.76458337806425      0.25512197943611
  C   1.46985713604367     -1.10635843782181     -0.38307734077892
  N   2.16239384691914     -2.05144999716585     -0.45554072362530
  C   1.05924743282793      0.95576311525928      0.79150337805352
  N   1.40603849809283      1.66992663865221      1.65687793279408
