11
Coordinates from ORCA-job run
  C   -0.85171144899108     -0.28835776831359     -0.48019207050270
  C   0.67807311881230     -0.09056354016058     -0.36277164347473
  Cl  -1.45813846203314      0.66395568423943     -1.85204881742337
  H   1.11441149878501     -0.34543082127055     -1.33597063883617
  H   -1.04610107127395     -1.34034821722812     -0.70266420396794
  C   -1.52939331065572      0.08326021181457      0.75651777138526
  N   -2.06551640127018      0.37297122457385      1.76072643474138
  C   1.21975649209638     -1.00364221911511      0.64897062684069
  N   1.63104260798726     -1.76882822182078      1.43895620678261
  C   1.01584400876504      1.30160798969230     -0.05426493422443
  N   1.29373296777809      2.41737567758858      0.18274126867941
