11
Coordinates from ORCA-job run
  C   -0.85601401971748     -0.29780747775722     -0.46797961565383
  C   0.66596447934442     -0.03143601083952     -0.39314148238622
  Cl  -1.56198350198200      0.71767118841518     -1.74372386213768
  H   1.07460225876440     -0.19674552587737     -1.39721077489594
  H   -1.00908195382903     -1.33971588128717     -0.75928280887706
  C   -1.50074286376985     -0.05077857244152      0.81648297871319
  N   -2.00885505154935      0.13132201212003      1.85983726361063
  C   1.29346905736008     -0.98052489478178      0.53219855027395
  N   1.78252591052277     -1.76756266161469      1.25367664159238
  C   0.94710223734926      1.35237038788104     -0.00104527844836
  N   1.17401344750678      2.46420743618301      0.29918838820893
