11
Coordinates from ORCA-job run
  C   -0.87199342479347     -0.27524279828457     -0.44958799834216
  C   0.65951891523329     -0.05878061215821     -0.40710221529868
  Cl  -1.56930558384385      0.74424940943367     -1.72673205763008
  H   1.04344923300942     -0.24875378694596     -1.41649783194336
  H   -1.06495251527383     -1.31573618707334     -0.72155365667970
  C   -1.48197967729189      0.01332121881767      0.84315478997455
  N   -1.96199295654309      0.23508156166003      1.89214537518035
  C   1.26837183016367     -1.01950820282351      0.51863620086770
  N   1.72813141444838     -1.81887673873252      1.24566633492087
  C   0.99286227454475      1.31871966038230     -0.03451008642493
  N   1.25889049034661      2.42452647572444      0.25638114537545
