11
Coordinates from ORCA-job run
  C   -0.86221493721868     -0.32812236699773     -0.25700993890322
  C   0.59975252076187     -0.18470778913760      0.23142073411060
  Cl  -1.06210631603049      0.40213084831593     -1.86061184898869
  H   0.65722956474392     -0.63398687130233      1.23187439857650
  H   -1.08865902222054     -1.39303739244751     -0.35364145063189
  C   -1.76928333445341      0.27617253951171      0.71338574799125
  N   -2.48198464145239      0.74551159293418      1.52057804515386
  C   0.98913332297393      1.22414164494542      0.33858042245845
  N   1.29354601754364      2.35320734021956      0.44178692870666
  C   1.50724165233619     -0.92095081773252     -0.65365924023818
  N   2.21834517301597     -1.54035872830910     -1.35270379823534
