11
Coordinates from ORCA-job run
  C   -0.85963945432706     -0.28990095915718     -0.46365227301529
  C   0.66890248638285     -0.06084503871604     -0.39015338982867
  Cl  -1.53521449752482      0.70454351923098     -1.77182724949003
  H   1.07688604910679     -0.26417507654558     -1.38750970269256
  H   -1.03860423954618     -1.33585376445955     -0.72386957980009
  C   -1.50095996403307      0.01436455910981      0.81016430517164
  N   -2.00652752658853      0.25304529619590      1.84333455720802
  C   1.26396769108595     -1.00140292716834      0.56480235768859
  N   1.71217193775567     -1.78594529659691      1.31487764991298
  C   0.98342912119439      1.32557910340860     -0.03456177016672
  N   1.23458839649400      2.43959058469830      0.23739509501215
