13

C	0.0	0.0	0.0
C	-0.447909	-0.012858	-1.454125
F	1.365212	0.0	0.0
H	0.186335	0.726665	-1.953036
H	-0.372327	-0.809651	0.625263
H	-0.139955	-0.993889	-1.836361
N	-0.376766	1.274474	0.715912
O	-0.486509	1.204219	1.937939
O	-0.452076	2.30033	0.041548
N	-1.821786	0.242122	-1.796489
H	-2.498225	-0.317889	-1.284443
H	-2.070764	1.193843	-1.568134
Cl	-4.487447	0.0	0.0
