13

C	0.0	0.0	0.0
C	-0.465954	-0.151206	-1.428184
F	1.370745	0.0	0.0
H	-1.524007	0.095719	-1.477128
H	-0.384396	-0.753275	0.683234
H	0.106403	0.558243	-2.030564
N	-0.350165	1.335009	0.601454
O	-0.450652	1.377423	1.824124
O	-0.391883	2.299329	-0.158124
N	-0.258313	-1.508288	-1.928944
H	0.651473	-1.847135	-1.639424
H	-0.964414	-2.108578	-1.519051
Cl	-3.442917	0.0	0.0
