14
Coordinates from ORCA-job run
  C   0.79921777617437     -0.82206600201210      0.17891367429743
  C   -0.27799713552073     -0.06896298421116     -0.08874246590255
  H   0.82717539134678     -1.89838108523020      0.06678915663927
  N   2.09730657334567     -0.29918778796889      0.57275398588929
  O   2.17321785577409      0.83229951717861      1.05221100389639
  O   3.05088431047586     -1.06034391498887      0.40180848797353
  C   -1.54562482042179     -0.76675379769534     -0.49411953746643
  H   -2.35628180276868     -0.48986490545067      0.18711118123859
  H   -1.44580251796228     -1.85328015675647     -0.49160544469226
  H   -1.84740846231377     -0.44603748654527     -1.49593391864107
  C   -0.35051387172079      1.42935770824816      0.00027442301840
  H   -0.47434135677058      1.74004721714128      1.04125639889214
  H   -1.20670106574927      1.79324063835571     -0.57103149810593
  H   0.55686912611113      1.91093303993521     -0.36068544703681
