14
Coordinates from ORCA-job run
  C   0.80740511928509     -0.81882491014922      0.15550338793938
  C   -0.29237912371632     -0.06304508867164      0.01960539540999
  H   0.79048506157036     -1.86899055201302      0.41756046001172
  N   2.17014966609037     -0.32245557252885      0.05505190738175
  O   2.38631595634280      0.73506487277694     -0.53725862333096
  O   3.03315344414215     -1.02971957679552      0.57745000515465
  C   -0.31914554377545      1.40714151616274     -0.29020782217150
  H   -1.29237539741309      1.82401526284769     -0.02394220460605
  H   0.46441865881941      1.95531909850775      0.23044485969734
  H   -0.15547924262880      1.57069023462478     -1.35883818894433
  C   -1.63113290241125     -0.73030838134814      0.16320211142653
  H   -1.54825848583438     -1.80437501040580      0.33647502073169
  H   -2.18626202782949     -0.28426545053115      0.99413055420664
  H   -2.22589518264140     -0.56824644247657     -0.74117686290686
