14
Coordinates from ORCA-job run
  C   0.79672411703422     -0.77061518252611      0.34130174583650
  C   -0.29010954527284     -0.07376342053653     -0.02280283829524
  H   0.77130872724393     -1.80132470027290      0.67114609053422
  N   2.14152410366676     -0.22462493598398      0.42402580658247
  O   2.41596259484534      0.80383450285652     -0.19469200000327
  O   2.93179446315807     -0.86205752505226      1.12185719594426
  C   -1.61198486621562     -0.78805329990704     -0.04691755941241
  H   -2.30924514829520     -0.31229101497897      0.64954701001401
  H   -2.05641227045127     -0.71383544770747     -1.04431011338030
  H   -1.52325815956633     -1.84322015257429      0.21631058435946
  C   -0.31353494169055      1.37013442431372     -0.43864514357597
  H   0.02058933498248      1.46952940084726     -1.47492164883112
  H   0.35504952858049      1.98472985164123      0.16206226789002
  H   -1.33040793801947      1.76055749988082     -0.36596139766263
