14
Coordinates from ORCA-job run
  C   1.02348538172933     -0.11654214740972      0.53307727110130
  C   -0.16824821220517      0.24612279887654      0.03564746367260
  H   1.62531307937578      0.51008984881260      1.17877727252154
  N   1.70938479107524     -1.35861272278668      0.21625926700255
  O   2.92217203516330     -1.36617208038555      0.43314847029089
  O   1.06446781623836     -2.31003641335515     -0.22511417484032
  C   -1.01591035608749     -0.56578523473739     -0.90251392659958
  H   -1.55382465729335     -1.34128009727916     -0.35050438099205
  H   -1.74880942303796      0.07883242066774     -1.39155116371289
  H   -0.42314260412938     -1.07898291455771     -1.65809395155618
  C   -0.73667490783979      1.57134606207408      0.45842328690401
  H   -1.72328885617271      1.42591429721040      0.90938098298994
  H   -0.10003813572611      2.09067455944786      1.17642958167660
  H   -0.87688595109005      2.21643162342212     -0.41436599845839
