14
Coordinates from ORCA-job run
  C   1.07335049355507      0.03063250607581      0.43914186954813
  C   -0.18559370682371      0.23457296414104      0.02352610975234
  H   1.67184922600747      0.77795961287855      0.94421190308471
  N   1.83733878448433     -1.18294061454182      0.20107759791548
  O   3.06019148478220     -1.06905467998543      0.29978883114406
  O   1.24435993637765     -2.22855756756462     -0.06549523329122
  C   -0.83089963505880      1.55324833333611      0.34410474627645
  H   -0.18182488854477      2.20681944033810      0.92899561823061
  H   -1.75570182888463      1.38759976088947      0.90554424688298
  H   -1.10702900840486      2.07123587191824     -0.57949125224320
  C   -1.03767670081018     -0.75134606783254     -0.72484968674985
  H   -1.86789666466886     -0.23231509977817     -1.20771509512419
  H   -1.44979984695334     -1.49361783163297     -0.03592449229312
  H   -0.47166764505756     -1.30423662824175     -1.47291516313318
