14
Coordinates from ORCA-job run
  C   1.09022897598960     -0.04762224353578      0.39505021796510
  C   -0.18839970668235      0.21642120194110      0.08747918722737
  H   1.69568414175393      0.57079212975640      1.04527609793984
  N   1.86527060743777     -1.14443391861726     -0.16110254215368
  O   3.08895997057338     -1.02125540098381     -0.08740711705775
  O   1.28038276621096     -2.11169915466574     -0.64918433785963
  C   -0.84421833207489      1.39834802535744      0.74386334840133
  H   -0.18485826565629      1.90575176149898      1.44978251984674
  H   -1.16500446928429      2.11938968970898     -0.01430715791811
  H   -1.74366743794087      1.07539689497944      1.27735844114971
  C   -1.05250087011202     -0.58015323312845     -0.84886457061429
  H   -1.42569344409374     -1.47713578779295     -0.34716190267600
  H   -0.50731929575183     -0.92213941748996     -1.72722937013983
  H   -1.90886464036935      0.01933945297161     -1.16355281411080
