14
Coordinates from ORCA-job run
  C   0.80611484968383     -0.82737189794039      0.11374949414442
  C   -0.29132062950513     -0.06783840003391     -0.02025302543190
  H   0.79343879921254     -1.90959942906390      0.13445309393699
  N   2.16545406349665     -0.31499664176619      0.16524789325769
  O   2.35690670069776      0.86181009917547      0.47247994703971
  O   3.05075361336456     -1.12967722840661     -0.10038365403747
  C   -0.32021476270600      1.43202211679179     -0.10697951517311
  H   -0.21736304867115      1.86981639893098      0.88967238957611
  H   -1.27122774393495      1.76064921358215     -0.53048461542020
  H   0.49893591007417      1.82915237547812     -0.70446001666884
  C   -1.62627327389165     -0.75596559906165     -0.06789764399889
  H   -2.27379555085637     -0.36599875989336      0.72366013726251
  H   -2.12403932567496     -0.54540381757470     -1.01948608810797
  H   -1.54536960128931     -1.83759843021780      0.05068160362095
