14
Coordinates from ORCA-job run
  C   0.80009421480408     -0.79955941814440      0.25965064632860
  C   -0.28191151706753     -0.07734316406133     -0.06729692789965
  H   0.81529342423320     -1.88116217818096      0.30085461620582
  N   2.11751249942880     -0.24358079800918      0.52195884011239
  O   3.05705591740335     -1.03455534368100      0.42377749856888
  O   2.22247162073902      0.94366015116953      0.83065590160177
  C   -1.57133394843243     -0.80821963771201     -0.31496082356263
  H   -2.34805186573043     -0.42810660006068      0.35601827105394
  H   -1.91681156345616     -0.62657375339546     -1.33731472126252
  H   -1.47891490241089     -1.88498516070879     -0.16481427928197
  C   -0.33954052879596      1.41934347526159     -0.18855044564014
  H   0.55396349955225      1.83214890689944     -0.65429557750933
  H   -1.21785917433436      1.71074305996886     -0.76774892256533
  H   -0.41296767593293      1.87619046065438      0.80206592385018
