16

C	0.0	0.0	0.0
C	-0.575516	0.048265	-1.418642
F	1.390727	0.0	0.0
H	-1.672185	-0.092244	-1.180327
C	-0.40479	1.232034	0.70901
N	-0.582465	2.218169	1.320757
C	-0.459299	-1.231779	0.756281
H	-0.040604	-1.216452	1.765906
H	-1.552992	-1.182468	0.760875
H	-0.090822	-2.119308	0.234498
C	-0.032462	-1.061316	-2.202853
N	0.402467	-1.953005	-2.833116
N	-0.382098	1.306789	-2.128375
H	0.546456	1.671818	-1.942819
H	-1.059323	1.965894	-1.762546
F	-2.798087	0.0	0.0
