16

C	0.0	0.0	0.0
C	-0.536022	-0.080643	-1.484075
F	1.386545	0.0	0.0
H	-1.127888	-0.998471	-1.530035
C	-0.397835	1.288676	0.598412
N	-0.568896	2.332433	1.108611
C	-0.485896	-1.162667	0.833497
H	-0.079844	-1.091611	1.846003
H	-1.580172	-1.085476	0.814724
H	-0.131229	-2.089151	0.36975
C	0.602075	-0.222584	-2.407542
N	1.465518	-0.368453	-3.190764
N	-1.42973	0.969743	-1.930712
H	-0.993625	1.869783	-1.760528
H	-2.223299	0.835582	-1.259967
F	-2.827333	0.0	0.0
