16

C	0.0	0.0	0.0
C	-0.54552	0.238297	-1.46124
F	1.387299	0.0	0.0
H	-1.165216	-0.633251	-1.680936
C	-0.401394	1.123784	0.866781
N	-0.561117	2.040308	1.583176
C	-0.473422	-1.32241	0.561537
H	-0.121787	-2.120693	-0.099679
H	-1.567579	-1.25355	0.573894
H	-0.052612	-1.474717	1.558881
C	0.582362	0.264697	-2.407877
N	1.455261	0.299884	-3.19338
N	-1.420156	1.374268	-1.674223
H	-0.974526	2.216101	-1.323861
H	-2.215863	1.112899	-1.048344
F	-2.815225	0.0	0.0
