14
Coordinates from ORCA-job run
  C   -0.58455553962819     -0.06254655375992      0.11970862284514
  C   0.65672336492498     -0.16335708843921     -0.75876124216780
  Cl  -1.65334143703792      1.26613658935119     -0.47477004102190
  H   0.29402071835214     -0.49867564334519     -1.73513286547688
  H   1.25993741020968     -0.97255081533970     -0.33014669467785
  N   -1.22739219313540     -1.31555274371288      0.24088842481714
  H   -1.49408619616806     -1.66996020764597     -0.66855335522781
  H   -2.04840111228665     -1.23848920034444      0.82968259258388
  N   -0.21255363612193      0.31959799332954      1.55160970770122
  O   0.96813883720242      0.54274988197500      1.79759690121694
  O   -1.13139555170193      0.32916084440948      2.35973347109589
  N   1.34473886072900      1.09792953684487     -0.91930595128022
  H   2.03414712616949      1.21881299533609     -0.19282056213652
  H   1.79501934849238      1.14774441134114     -1.82072900827124
