14
Coordinates from ORCA-job run
  C   -0.76930412130401     -0.02104143498598     -0.00941105273013
  C   0.31173811993710      0.52882531949958     -0.92405930554932
  Cl  -2.33572750839841      0.74254437281926     -0.37105816932768
  H   0.29539890834190      1.61942566065234     -0.88422319923251
  H   0.03863626298751      0.21117338251735     -1.93181780376809
  N   -0.85754567739295     -1.41522182218602     -0.09743372840861
  H   0.08314007091312     -1.78970614553559     -0.02585989477993
  H   -1.45473128860842     -1.79665571066580      0.62466280476664
  N   -0.44943114245863      0.45098357613991      1.44707435734988
  O   0.19603879873815      1.48558914324919      1.58449791179829
  O   -0.88088947733705     -0.25342003809693      2.35117336941106
  N   1.58151356405266     -0.07418648702035     -0.53530215036289
  H   2.17345988359316     -0.21782256116065     -1.34110824701776
  H   2.06870360693587      0.52951274477369      0.11386510785106
