14
Coordinates from ORCA-job run
  C   -0.65838631161400     -0.04061777967710      0.10539332438084
  C   0.30449915163888      0.59571478668509     -0.87715088871763
  Cl  -2.33372719085899      0.61294881237727     -0.20983247003999
  H   0.19429622984491      1.67741934659489     -0.82130117354111
  H   -0.00107260975194      0.27464515712186     -1.88481179524442
  N   -0.57028778273966     -1.44296339268741      0.08580479783426
  H   -1.01915527034209     -1.85724992484262      0.89247909535941
  H   -0.96453112985331     -1.81175813699762     -0.76959353265851
  N   -0.32166134594834      0.44509865190496      1.51601134213699
  O   -0.05733466891323      1.63031774792869      1.63348170716121
  O   -0.38615999738403     -0.38180945005448      2.41801462119709
  N   1.64545664003503      0.22280094469052     -0.47173651521960
  H   2.33383318942359      0.81808656981767     -0.91030432502972
  H   1.83523109646318     -0.74163333286171     -0.70445418761882
