14
Coordinates from ORCA-job run
  C   -0.67688134180870     -0.02782502134339      0.06971203090779
  C   0.65028295712928     -0.18914025988412     -0.66554084143821
  Cl  -1.66450730780259      1.17980353346571     -0.75671147468698
  H   0.41012717007849     -0.53099669836785     -1.68309766094891
  H   1.19041751712561     -0.98960598246828     -0.15465121235648
  N   -1.45950667676540     -1.21218898979003      0.25907041695517
  H   -1.84676561395419     -1.52526909955372     -0.62103004380798
  H   -0.88497236550513     -1.93850849213848      0.66930286970157
  N   -0.32076281110546      0.45929892636278      1.48011673542233
  O   -0.63264925176149      1.57412768303180      1.85366687042330
  O   0.29093981633370     -0.38875167493049      2.12501494339626
  N   1.43117651538992      1.02828745629206     -0.57676804634481
  H   2.40724904305170      0.84285101331593     -0.75970297623924
  H   1.10485234959427      1.71791760600809     -1.24038161098381
