14
Coordinates from ORCA-job run
  C   -0.56489441240093      0.00331393746212      0.09598135193401
  C   0.77179376952192      0.58029204944606     -0.34070952259024
  Cl  -1.92045897977739      0.70549546047145     -0.79643864150934
  H   1.52038590624174      0.19186429868449      0.37416731536120
  H   0.73531014162175      1.66220056783251     -0.22123527925341
  N   -0.58459084582512     -1.40123883085204     -0.03811897918829
  H   0.10133430119686     -1.81942117930658      0.58000638532544
  H   -1.49492707325818     -1.78204678837490      0.18614139710672
  N   -0.78651823144839      0.45766897156526      1.57719686389634
  O   -0.57842070500280      1.63545915035914      1.83691674330430
  O   -1.14451135661158     -0.40764599439713      2.36989152055539
  N   1.00668298750086      0.24851424683698     -1.72938785580191
  H   1.07589475163317     -0.75353687597914     -1.84369233559003
  H   1.86191974660807      0.68008098625178     -2.05171896355018
