14
Coordinates from ORCA-job run
  C   -0.67270745473762     -0.00732047938768      0.10702323458615
  C   0.60295708251724     -0.15076620900651     -0.71781516939131
  Cl  -1.64832011145418      1.31238567333462     -0.54461176538595
  H   0.29133177956219     -0.38386483180554     -1.74660730890752
  H   1.13402013933786     -1.01724750208647     -0.31689397972035
  N   -1.49685309608110     -1.17161533602362      0.23182274369769
  H   -0.93541395979319     -1.95531629334459      0.54243987410240
  H   -1.94323936015326     -1.38603224046177     -0.64981998450829
  N   -0.21718972568683      0.32898929324599      1.53242539084426
  O   -0.45447908196197      1.41567809224715      2.02483736323059
  O   0.38905828760615     -0.60097399401064      2.05885954963556
  N   1.44214766248315      1.02056871436554     -0.56261723231586
  H   2.39738714769553      0.81369283874514     -0.81831367270351
  H   1.11230069066604      1.78182227418840     -1.14072904316385
