14
Coordinates from ORCA-job run
  C   -0.56684174932076     -0.00248126656094      0.08690984596108
  C   0.77103167676029      0.58681742995938     -0.32972592574754
  Cl  -1.91423399012891      0.68179702133238     -0.83124414268622
  H   0.72109499065512      1.66875690096137     -0.21516173836864
  H   1.51162466857494      0.20911863634168      0.39914217464693
  N   -0.56937377947312     -1.40766945644547     -0.04223052203446
  H   0.11098896350576     -1.81617228310121      0.58834258705943
  H   -1.47921412608686     -1.79739555393942      0.16824994867673
  N   -0.81701542906400      0.45543616892140      1.56197813734957
  O   -1.16945397630991     -0.41233475790022      2.35454479913053
  O   -0.63391122549543      1.63818239631058      1.81783838110573
  N   1.03290424179702      0.25243943926933     -1.71279008102237
  H   1.88753100823225      0.69355677534491     -2.02348102510959
  H   1.11586872635362     -0.74905145049377     -1.82237243896119
