14
Coordinates from ORCA-job run
  C   -0.45708404508718     -0.04519858096324      0.32216065268568
  C   0.75248056700719      0.54710070217494     -0.38491366790013
  Cl  -1.96663292518557      0.65611484494749     -0.47889471767920
  H   0.66272966523107      1.63514081417622     -0.39914314968899
  H   1.62745180761997      0.28064617547312      0.21162638748035
  N   -0.39666767631492     -1.43152644455792      0.35179862860526
  H   -1.23037413532961     -1.86305678234464      0.72434217367638
  H   -0.13854542920699     -1.77678307758585     -0.56473779596905
  N   -0.56508181487797      0.45476243119774      1.75500787682588
  O   -1.32231921896100     -0.16812154040729      2.48705640696689
  O   0.10287137223436      1.43634668668339      2.06181476427037
  N   0.85644327471518     -0.08574799994789     -1.69569737569683
  H   0.26653678918281      0.39643914802437     -2.36188278710137
  H   1.80919176897265     -0.03711637687046     -2.02953739647524
