14
Coordinates from ORCA-job run
  C   -0.47298446920298     -0.05419654992800      0.29746515613457
  C   0.74276162182137      0.56884333369545     -0.37186401571598
  Cl  -1.96756873799175      0.51330581433726     -0.62802725037349
  H   0.59317731406517      1.64724008013613     -0.45445320055283
  H   1.59319125441159      0.38776388619578      0.28871402794239
  N   -0.33798884672760     -1.43088187473607      0.41010916425637
  H   -0.00480827140539     -1.80963421724170     -0.46816292275404
  H   -1.16727943605228     -1.89029587056343      0.75825812747404
  N   -0.69527159193897      0.51539258604651      1.69068320189727
  O   -1.46018503521358     -0.11052293360701      2.41214560742221
  O   -0.10183409723623      1.54905948031470      1.97905433290658
  N   0.96133659424097     -0.12734506572185     -1.63550476470473
  H   1.92866576172759     -0.04234728775450     -1.91580244891313
  H   0.38778793950209      0.28261861882672     -2.36161501501922
