14
Coordinates from ORCA-job run
  C   -0.48323432653690     -0.02642818205101      0.28408070190147
  C   0.79639005965274      0.51920228126417     -0.33147994359929
  Cl  -1.90189990338411      0.69555892417225     -0.65259008284137
  H   0.73797289596689      1.60862611147083     -0.37432467319844
  H   1.61130132704306      0.24354185996289      0.34102276050870
  N   -0.46316204754738     -1.41300322910433      0.34536900577858
  H   -0.13959005293230     -1.78409108449486     -0.53979195955540
  H   -1.33659120537111     -1.81495392706395      0.65465119718233
  N   -0.69526198003694      0.50661096334903      1.69305502608300
  O   -0.02767650955355      1.47645268213672      2.03592524434480
  O   -1.52791541346662     -0.08011142019646      2.37105356845617
  N   0.99053604761405     -0.14409147270283     -1.61676643359491
  H   0.47072199966388      0.33883948346598     -2.33846613902511
  H   1.96840910888828     -0.12715299020843     -1.87173827244055
