14
Coordinates from ORCA-job run
  C   -0.50497102661043      0.06292305202399      0.23674094811664
  C   0.92268874870505      0.34633443847587     -0.20532089637720
  Cl  -1.61792603463835      1.16801326853947     -0.73896666475851
  H   1.11247706082873      1.41955391749575     -0.14012448562319
  H   1.57883131624791     -0.16384985488938      0.50292227762452
  N   -0.80021203433217     -1.29086841279012      0.15424554899718
  H   -1.76898933474169     -1.50411183311327      0.34422782042521
  H   -0.47380548470659     -1.65267471623506     -0.73371421135359
  N   -0.74395947108969      0.51330904591496      1.66987166754750
  O   0.08153025269933      1.27094956300613      2.16815050122371
  O   -1.75407791256251      0.08141328371724      2.20892422508645
  N   1.10275093850386     -0.23717266412963     -1.53084919273958
  H   2.08173565644130     -0.42624934639449     -1.69640697342312
  H   0.78492732525526      0.41043025837853     -2.24070056474601
