14
Coordinates from ORCA-job run
  C   -0.68582212498094      0.06559313735712      0.13035391119213
  C   0.36915441556551      0.45349114487622     -0.89543532819252
  Cl  -2.21746247183434      0.93609714568140     -0.31906032952627
  H   0.54036928136827      1.53084945825116     -0.80722030088951
  H   -0.08131228653222      0.26599729476352     -1.87300911649542
  N   -0.81173467437707     -1.30846093137923      0.29094441922749
  H   -1.69646045580841     -1.62747263944952      0.65037458367537
  H   -0.42338578702978     -1.84857334963280     -0.46498073213131
  N   -0.34435587472188      0.63968871685464      1.52149302157759
  O   -1.11716907067308      0.35804275034481      2.42387880267776
  O   0.69908552247948      1.27961790435358      1.63022225892625
  N   1.54954370175328     -0.38579538174921     -0.76666144544945
  H   2.07377135737179     -0.10495203607336      0.05270369194692
  H   2.14477846741939     -0.25612321419831     -1.57460343653902
