14
Coordinates from ORCA-job run
  C   -0.47688966638358     -0.02268495362422      0.29500987185004
  C   0.79532657922949      0.51150199102354     -0.34558805165427
  Cl  -1.90706176506923      0.72179017654161     -0.60598578361196
  H   0.74938991807018      1.60179155265814     -0.38036293730984
  H   1.62169992181167      0.22117376066005      0.30653603662646
  N   -0.47187748151242     -1.40989226556676      0.34744669595627
  H   -0.17327079585913     -1.77832686665385     -0.54757483878722
  H   -1.34302601259573     -1.80317540444355      0.67383337637243
  N   -0.65136003107402      0.50471921453717      1.71100962111503
  O   -1.47043707144935     -0.08034390798365      2.40681800219534
  O   0.02943011543629      1.46975167029957      2.04126565318962
  N   0.95276477615283     -0.14588713350058     -1.63883366385317
  H   0.42164119796847      0.34679871092081     -2.34554262995782
  H   1.92467031527452     -0.13821654486829     -1.91603135213093
