14
Coordinates from ORCA-job run
  C   -0.76967496916276      0.03006502761417      0.08353630487861
  C   0.25592408930834      0.55814134323413     -0.93988418974751
  Cl  -2.34106220075299      0.77221688431802     -0.27761578552015
  H   -0.09254909116913      0.23155300205574     -1.92454672101200
  H   0.22751047054068      1.64937128541518     -0.92443230132821
  N   -0.93809394920892     -1.37697962135767      0.19676275120858
  H   -1.17989500772388     -1.78171497653476     -0.69757340235182
  H   -0.12410727553527     -1.81788351291611      0.60087076404907
  N   -0.28015577503062      0.54362950265508      1.44049048245669
  O   0.25039956876034     -0.28018478826706      2.18103481615480
  O   -0.34478677665151      1.74964627419269      1.63301494732014
  N   1.61515175681439      0.11728271067324     -0.74132210136853
  H   2.02625284927033      0.49462624344232      0.10145940804021
  H   1.69608631054100     -0.88976937452496     -0.73179497277990
