14
Coordinates from ORCA-job run
  C   -0.48614485290905     -0.00180292863721      0.12672352410167
  C   0.87081287584794      0.54666631123172     -0.33196325529560
  Cl  -1.81571048060294      0.70596894792685     -0.81279217816022
  H   1.62072544283413      0.14362142355976      0.36123067823594
  H   0.86266491571134      1.62922176482864     -0.21014799528354
  N   -0.53816673484588     -1.40605833163407      0.02206806426693
  H   -1.44642664473230     -1.76740090241756      0.28479369943614
  H   0.16341724410848     -1.82694048097906      0.61998128405710
  N   -0.70222361322795      0.50238710604144      1.58680680762521
  O   -0.91131306330478     -0.35491409959483      2.44023232002075
  O   -0.60359767850296      1.70724077524994      1.77795451667432
  N   1.23836204374314      0.20615281888992     -1.68530441162494
  H   1.10001369235540     -0.78507458169566     -1.83825569122479
  H   0.64658685352544      0.70193217723014     -2.33932736282898
