14
Coordinates from ORCA-job run
  C   -0.65383167865049     -0.09118604870042      0.13897065872979
  C   0.28492646441983      0.49366986309537     -0.90903665006274
  Cl  -2.30752023471282      0.67028827033994     -0.15021898299333
  H   -0.04703799087364      0.09253488484531     -1.87151498908273
  H   0.12087168648797      1.57348970638462     -0.93653219565127
  N   -0.65775312199109     -1.48035710524166      0.19802971435565
  H   -0.80108639746030     -1.90565392143659     -0.70562067608963
  H   -1.29665451267334     -1.84120965331730      0.89244596231390
  N   -0.27700389338546      0.41964219281339      1.52753143993000
  O   -0.70372199408805     -0.22130637004143      2.47816464532615
  O   0.39591660209620      1.44265797043147      1.58565301764789
  N   1.65345081258520      0.09820288416326     -0.64178750538366
  H   2.12765374679964      0.81150809752164     -0.10668026570062
  H   2.16079051144634     -0.06028077085760     -1.49940417333940
