14
Coordinates from ORCA-job run
  C   -0.64563402342724     -0.21048869014922     -0.01735067080489
  C   0.64173894210610      0.01020505944416     -0.80408583385148
  Cl  -1.94976988605412      0.77129404993142     -0.67898510707202
  H   1.37126451976179     -0.71738567812490     -0.44118767098896
  H   0.40789849737214     -0.23562723138145     -1.84416551934699
  N   -1.02470970791077     -1.57719916851359     -0.02079384242987
  H   -1.92750264880576     -1.71777461591381      0.41551861896767
  H   -0.32090400315711     -2.12908341369915      0.45494979715367
  N   -0.33985902333525      0.28656161283065      1.42688950614901
  O   0.57146976915619     -0.35173487650927      1.95245644563066
  O   -0.97891433382369      1.18700490939754      1.94069590216931
  N   1.12555993069223      1.36125622730116     -0.60138143758663
  H   0.96239174567400      1.94743906943870     -1.40560605961331
  H   2.10797022175152      1.37553274594779     -0.37495412837616
