14
Coordinates from ORCA-job run
  C   -0.60329101509825      0.02545900231774     -0.00486456943196
  C   0.60227656803902     -0.01122845482626     -0.94759137617151
  Cl  -1.46195084612158      1.56304315772948     -0.16726586985057
  H   1.04502129052837     -1.00740186775208     -0.88337712496658
  H   0.18486070527829      0.10426504445989     -1.95010337466620
  N   -1.49472615074934     -1.04214394146885     -0.26776621767113
  H   -2.31190728644318     -1.01644595237364      0.32978325335309
  H   -1.02223079312143     -1.93484572455706     -0.19121455146801
  N   -0.09455001457223     -0.05931892801981      1.46638206815700
  O   -0.75735323454280      0.44988831766338      2.35882811682668
  O   0.89919182567221     -0.76875618022935      1.62326590999745
  N   1.63938054267205      0.96669590994535     -0.73769205669656
  H   2.10146633475320      0.82163212755598      0.14885380832878
  H   1.27381207370568      1.90815748955524     -0.77723801574048
