14
Coordinates from ORCA-job run
  C   -0.69515842840314      0.06651861490311      0.06325436508240
  C   0.45225425164480      0.43235527692493     -0.86720750020911
  Cl  -2.17719486969918      0.92463955434695     -0.54898263346154
  H   0.61342496996029      1.51202460194153     -0.78950248069124
  H   0.09697050336629      0.21959666308794     -1.87820578237448
  N   -0.83699044730140     -1.30285938859665      0.24233457961852
  H   -1.75090307461920     -1.61611274469230      0.52523917794015
  H   -0.37555722924518     -1.86098220574623     -0.45715704308989
  N   -0.48693144416585      0.67555714483070      1.46623819030951
  O   0.53657073430443      1.32842399610719      1.65564227104513
  O   -1.33794148315427      0.40735674620643      2.29969835123618
  N   1.61556323472299     -0.39956777020000     -0.60539703994881
  H   2.28345298835827     -0.29225014420146     -1.35782466797777
  H   2.06144029423115     -0.09470034491216      0.25087021252094
