14
Coordinates from ORCA-job run
  C   -0.56229536645930      0.03125455729400      0.23724826472362
  C   0.75654572548960      0.56463603076618     -0.36435822303954
  Cl  -1.92864886571135      0.67054767230166     -0.68373955535930
  H   0.72102360178217      1.65721534247822     -0.35124345969782
  H   1.55612658752185      0.24357429130150      0.31181331381176
  N   -0.71310615517316     -1.38365698044181      0.34903076115047
  H   -0.82036485294554     -1.80587014754307     -0.56219375330241
  H   0.06567420943349     -1.78919017881383      0.85149760556255
  N   -0.59154949284873      0.59094853999248      1.66281335199998
  O   0.01599929406915     -0.09472108113835      2.48149752656813
  O   -1.09647732534046      1.68520160401128      1.86349190131861
  N   1.06611594040630      0.11663063567368     -1.69907161941146
  H   0.35337738148050      0.40056097000542     -2.35762840702847
  H   1.17757931829547     -0.88713125588736     -1.74015770729612
