14
Coordinates from ORCA-job run
  C   -0.41565194512384      0.07509934980532      0.26039461794971
  C   0.90443613004160      0.50935706891567     -0.38112726492323
  Cl  -1.78150753656193      0.95646569383983     -0.59733610188374
  H   1.70292495248586      0.16881081676428      0.28232062594038
  H   0.93454643423532      1.59706434634640     -0.40957600038112
  N   -0.56612813666471     -1.31628898089366      0.30202046731245
  H   -1.40146517139843     -1.58595103449261      0.80589431415234
  H   -0.57532026683222     -1.70481858669987     -0.63041638130191
  N   -0.51403982636383      0.57841740492228      1.69619241436916
  O   0.18519119104294      1.53725718579046      1.99941387147367
  O   -1.30605431116265     -0.00368170437484      2.42725814019404
  N   1.14015515251514     -0.01742316381506     -1.70573628136260
  H   0.39685954697160      0.21966176690288     -2.34811736047554
  H   1.29705378681514     -1.01497016301108     -1.70218506106362
