14
Coordinates from ORCA-job run
  C   -0.62613187694120     -0.04887194024819      0.08729096953192
  C   0.24597523199200      0.60336543012043     -0.98274726326936
  Cl  -2.33114551356641      0.57788524874835     -0.10765696320245
  H   0.09202384077525      1.68056546674602     -0.95256309428473
  H   -0.13427729590902      0.24859581482669     -1.94690332885658
  N   -0.51281384479995     -1.44854605786428      0.08398150413508
  H   -0.83974339288038     -1.83303966091507     -0.79279096998325
  H   -1.00595160932798     -1.86867676073436      0.86157947468544
  N   -0.22257941192728      0.42971983211049      1.48031834460360
  O   -0.48980773680965     -0.31367460830334      2.41675044016670
  O   0.30763567455190      1.53131275958748      1.55963128807253
  N   1.65651120490539      0.31197192154581     -0.87477103391465
  H   2.05832238571442      0.80907977568437     -0.09152922954129
  H   1.80298234422290     -0.67968722130438     -0.73859013814295
