14
Coordinates from ORCA-job run
  C   -0.64333407882466      0.01427824123657      0.12926587758939
  C   0.51268934524992     -0.05714369391336     -0.88634943940634
  Cl  -1.55203568699673      1.50722390456134     -0.10609072217989
  H   0.05000526304589     -0.03093280790702     -1.87758615097951
  H   0.97587096536714     -1.04005449613467     -0.75866695503777
  N   -1.55658112158695     -1.08752953555898      0.13998196977585
  H   -1.04376110884687     -1.95971570632615      0.18495873304683
  H   -2.13932154330998     -1.06699948348613     -0.68633522550001
  N   0.02504464074779      0.02269690444804      1.50770473902740
  O   0.51140074975539     -1.06557419598179      1.80833600910991
  O   0.10540981747207      1.05508206172750      2.15446129283467
  N   1.53699530298526      0.95391456858705     -0.80540722276950
  H   1.14099533360996      1.88333517225649     -0.84945084262259
  H   2.07762212133176      0.87141906649112      0.04517793711155
