14
Coordinates from ORCA-job run
  C   -0.57770140865629     -0.03641510979305      0.07879912163943
  C   0.61458123618440      0.04613142445461     -0.89659997477019
  Cl  -1.45540904281404      1.50631721933671      0.17880980734290
  H   0.16389556048090     -0.03614338803073     -1.88849566495262
  H   1.20878014090860     -0.86075271027353     -0.72829905631860
  N   -1.46092198912697     -1.05724318150059     -0.31178991727773
  H   -2.17653910774684     -1.21951722171093      0.38529480918757
  H   -0.95691926036461     -1.91991617447981     -0.47957757812222
  N   -0.03432913614302     -0.25922541800829      1.52699997274702
  O   0.92656058983950      0.41441228891575      1.88221417741556
  O   -0.60516205650003     -1.10553920677859      2.20615348497847
  N   1.49209670872670      1.18603985827350     -0.87373208035108
  H   0.98887839684259      2.02381590865965     -1.13262133645486
  H   1.87218936836911      1.31803571093529      0.05284423493636
