14
Coordinates from ORCA-job run
  C   -0.64394817698452     -0.04430859387735     -0.00440191196416
  C   0.57000025397974      0.07152125710928     -0.94062680103890
  Cl  -1.66081121582494      1.39353817094231     -0.10517824292460
  H   0.15555997696597      0.18341512332572     -1.94485212171102
  H   1.09364900904035     -0.88886437555129     -0.89858121513054
  N   -1.40834933768837     -1.19172587562832     -0.30915471650927
  H   -2.25114271828504     -1.24533908588749      0.24915955237099
  H   -0.85269328447715     -2.02680475661635     -0.17315652395291
  N   -0.03661749097023     -0.10240278724210      1.43205911238786
  O   0.03022356545834      0.90397180620319      2.12240260362013
  O   0.43117991492718     -1.20522130611134      1.71236677634064
  N   1.51266961040012      1.12769817680787     -0.67741967033990
  H   2.00153490944088      0.99304402115630      0.19698289559654
  H   1.05774498401768      2.03047822536957     -0.65859973674486
