14
Coordinates from ORCA-job run
  C   -0.76941082736592      0.02227637060877      0.08486582874165
  C   0.25353325902378      0.57002947896735     -0.93147048293120
  Cl  -2.34827705502905      0.74561505051117     -0.27708165116459
  H   -0.08970012138240      0.24950007656223     -1.91982444047788
  H   0.21372736985703      1.66088086362302     -0.90596680067621
  N   -0.92209912758874     -1.38753419695760      0.18973639227971
  H   -1.18524218022088     -1.78546310050512     -0.70162045021971
  H   -0.09147387298316     -1.82394608647201      0.56387984346681
  N   -0.28927024737643      0.53265965423379      1.44650746874975
  O   -0.38486273313642      1.73374204580790      1.65586212355545
  O   0.26882596981236     -0.28720999407495      2.17109965067175
  N   1.61679072511361      0.13998755611170     -0.73695920276197
  H   2.01889922077849      0.49525022007958      0.11960802902852
  H   1.70955962049774     -0.86578793849583     -0.75863630826207
