17

C	-0.33266	-0.018453	-1.479246
C	0.0	0.0	0.0
Br	-2.288311	-0.004884	-1.794945
H	1.092929	0.0	0.0
H	-0.012791	-0.976861	-1.882777
C	0.328141	1.122832	-2.226138
H	1.39528	1.106805	-1.981619
H	-0.091683	2.089031	-1.942304
H	0.200282	0.997661	-3.302977
N	-0.428769	-1.297193	0.619465
O	-0.196923	-2.328551	-0.010584
O	-0.964326	-1.266664	1.728966
C	-0.504386	1.180535	0.795912
H	-1.593822	1.231415	0.806617
H	-0.099596	2.09526	0.360658
H	-0.143563	1.112355	1.820623
Cl	3.314118	0.0	0.0
