15

C	0.0	0.0	0.0
C	-0.168676	-0.128769	-1.555919
Br	2.125592	0.0	0.0
H	0.598596	0.500971	-2.0138
N	-0.485718	1.216462	0.431843
H	-0.855966	1.268545	1.369705
H	0.005702	2.032704	0.111547
N	-0.538763	-1.070782	0.658742
H	-0.173663	-1.982837	0.436781
H	-0.870296	-0.95252	1.600932
C	-1.437473	0.354321	-2.141087
N	-2.140382	0.83643	-2.952277
C	0.108381	-1.500159	-1.984961
N	0.336626	-2.609066	-2.282434
Br	-3.894171	0.0	0.0
