15

C	0.0	0.0	0.0
C	-0.498054	-0.183064	-1.452832
Br	2.006426	0.0	0.0
H	-1.604115	-0.148435	-1.325854
N	-0.480288	1.2591	0.451228
H	-0.160658	1.439986	1.395289
H	-1.506857	1.194283	0.443417
N	-0.449788	-1.122943	0.743373
H	0.096175	-1.960371	0.594046
H	-0.555726	-0.918021	1.726083
C	-0.133105	-1.493579	-1.984516
N	0.173037	-2.55382	-2.386091
C	-0.053706	0.883472	-2.346985
N	0.293501	1.71601	-3.098762
Br	-3.690211	0.0	0.0
