18

C	0.0	0.0	0.0
C	-0.679304	0.072645	-1.352203
Cl	1.793816	0.0	0.0
H	-1.841728	0.099195	-0.932328
C	-0.430601	1.093252	0.979421
H	-1.526724	1.111618	0.965066
H	-0.064069	0.846973	1.982524
H	-0.022862	2.049907	0.668232
C	-0.372189	-1.303199	0.597264
N	-0.550993	-2.350088	1.093809
C	-0.430626	-1.130813	-2.244058
H	-0.905685	-0.964874	-3.214024
H	-0.864034	-2.018637	-1.774522
H	0.634476	-1.302395	-2.419099
N	-0.373831	1.319399	-2.040232
O	0.124926	1.271106	-3.184643
O	-0.688909	2.387297	-1.489461
H	-2.89587	0.0	0.0
