18

C	0.0	0.0	0.0
C	-0.634561	0.070152	-1.385104
Cl	1.793651	0.0	0.0
H	-1.750295	0.130172	-1.075652
C	-0.462374	1.108499	0.94037
H	-0.074383	2.069143	0.610236
H	-1.560024	1.093836	0.904761
H	-0.106946	0.895563	1.950819
C	-0.379094	-1.296869	0.589002
N	-0.552318	-2.350526	1.080597
C	-0.35502	-1.126327	-2.264498
H	-0.822999	-2.004082	-1.815475
H	-0.795067	-0.970601	-3.250269
H	0.714642	-1.304188	-2.392714
N	-0.256924	1.325702	-2.064772
O	-0.69072	2.386167	-1.601501
O	0.44024	1.260046	-3.087045
H	-3.006527	0.0	0.0
