18

C	0.0	0.0	0.0
C	-0.258731	0.012832	-1.550777
Cl	1.79615	0.0	0.0
H	0.272171	0.89707	-1.906741
C	-0.545611	1.260719	0.650555
H	-0.180005	1.325178	1.679849
H	-1.644446	1.162142	0.638352
H	-0.212028	2.142435	0.095286
C	-0.482305	-1.183099	0.711759
N	-0.523343	-2.008234	1.549774
C	-1.65572	-0.052447	-2.133848
H	-1.583566	0.030685	-3.228138
H	-2.149901	-0.974854	-1.847635
H	-2.299855	0.713719	-1.71025
N	0.488673	-1.115233	-2.21097
O	0.282854	-2.251379	-1.794583
O	1.206848	-0.827951	-3.168963
H	-3.279066	0.0	0.0
