18

C	0.0	0.0	0.0
C	-0.465249	0.011781	-1.483028
Cl	1.796429	0.0	0.0
H	-0.405531	1.045719	-1.828496
C	-0.608546	1.177656	0.736932
H	-0.28546	1.176954	1.77959
H	-0.297208	2.111127	0.262743
H	-1.704302	1.073181	0.693815
C	-0.373656	-1.255144	0.664573
N	-0.63139	-2.239727	1.252273
C	-1.827999	-0.597357	-1.709345
H	-1.769389	-1.679377	-1.570923
H	-2.625949	-0.22925	-1.005984
H	-2.151154	-0.38278	-2.732723
N	0.511447	-0.714045	-2.366922
O	1.011119	-0.076364	-3.295906
O	0.712187	-1.904048	-2.138898
H	-3.956655	0.0	0.0
