14

C	0.0	0.0	0.0
C	-0.561902	-0.12104	-1.427298
Br	1.92823	0.0	0.0
H	-1.670767	-0.250211	-1.232124
C	-0.437231	1.221649	0.661639
N	-0.610669	2.259804	1.187312
N	-0.416685	-1.215614	0.849891
O	-0.624633	-2.251714	0.240947
O	-0.41452	-1.045073	2.057456
C	-0.002954	-1.22424	-2.200111
N	0.428159	-2.068946	-2.894127
C	-0.351967	1.132671	-2.145068
N	-0.184926	2.131969	-2.740755
Cl	-3.243125	0.0	0.0
