14

C	0.0	0.0	0.0
C	-0.296714	-0.057497	-1.541827
Br	1.929079	0.0	0.0
H	0.419006	-0.793027	-1.922599
C	-0.468384	1.158583	0.735455
N	-0.554205	2.139854	1.381121
N	-0.395646	-1.307524	0.677946
O	-0.435695	-2.287259	-0.0517
O	-0.504061	-1.27781	1.891604
C	0.072885	1.240535	-2.120013
N	0.374381	2.258515	-2.623044
C	-1.584971	-0.484219	-2.118451
N	-2.223528	-0.8858	-3.028544
Cl	-2.918391	0.0	0.0
