15

C	-0.55994	0.078502	-1.424431
C	0.0	0.0	0.0
Br	0.07887	-1.363511	-2.582592
H	1.095286	0.0	0.0
H	-1.646609	-0.030891	-1.375756
C	-0.266404	1.352443	-2.072811
N	-0.074477	2.379028	-2.610485
C	-0.499742	-1.242933	0.712962
H	-0.206159	-2.149229	0.184362
H	-0.052255	-1.287372	1.708936
H	-1.590498	-1.216148	0.815466
N	-0.539653	1.198102	0.67184
H	0.101806	1.964479	0.48842
H	-0.492086	1.037818	1.67221
Br	3.597965	0.0	0.0
