15

C	-0.509375	0.015031	-1.45551
C	0.0	0.0	0.0
Br	0.131634	-1.487552	-2.538551
H	1.095164	0.0	0.0
H	-1.60062	-0.090477	-1.453293
C	-0.179932	1.257528	-2.146828
N	0.066772	2.266786	-2.695803
C	-0.515478	-1.21833	0.745621
H	-0.180917	-2.147263	0.282414
H	-0.12787	-1.176777	1.76394
H	-1.612651	-1.217074	0.792226
N	-0.425479	1.216485	0.686105
H	0.187754	1.981149	0.43308
H	-1.378389	1.47172	0.451005
Br	3.577352	0.0	0.0
