15

C	-0.560255	0.028221	-1.426469
C	0.0	0.0	0.0
Br	0.06959	-1.457045	-2.535081
H	1.100314	0.0	0.0
H	-1.647104	-0.078495	-1.372409
C	-0.262711	1.278707	-2.116524
N	-0.027092	2.283252	-2.676597
C	-0.498852	-1.217499	0.755555
H	-0.059287	-1.221563	1.757094
H	-1.591239	-1.192927	0.848911
H	-0.195182	-2.141677	0.263813
N	-0.539045	1.219842	0.631067
H	0.098061	1.981222	0.415124
H	-0.484623	1.096184	1.63692
Br	3.607381	0.0	0.0
