14
Coordinates from ORCA-job run
  C   -0.49072353316293     -0.15211800057497      0.22456778466508
  C   0.68679818673346     -0.23865975877859     -0.73689906196853
  H   -0.40998434896751     -0.98592269622829      0.93264225633015
  H   0.67507330385258     -1.16960005585190     -1.30741856067402
  H   0.70526534767966      0.62126609192672     -1.40398536935545
  N   -1.70784460551676     -0.18235078077986     -0.59148010370025
  H   -1.79796634657897     -1.07612930841298     -1.06439492932043
  H   -2.51303353639989     -0.08396734621361      0.01664796296736
  N   -0.36561278891235      1.06608706814414      0.98661818662116
  H   -0.94799918765102      1.04545750358506      1.81312425992188
  H   -0.64232158077205      1.85436394701238      0.41213960853379
  N   1.95392443208884     -0.23085098220238      0.03996085528408
  O   2.11456118963578     -1.15909279240272      0.82963109095278
  O   2.73986346797116      0.69151711077701     -0.15215398025761
