14
Coordinates from ORCA-job run
  C   -0.36935679918784      0.26768085744914      0.32617460557875
  C   0.78525267045857      0.14414624994651     -0.65875233053664
  H   0.04393191443735      0.58051219680054      1.29284300242817
  H   1.29771761165268      1.09759027148378     -0.80229515148800
  H   0.44014395705149     -0.25441958748919     -1.61104574089433
  N   -0.94706020264154     -1.04046126617694      0.51438004993317
  H   -1.51990907707484     -1.27592701542807     -0.28834897996990
  H   -1.52224383648795     -1.07343517349155      1.34551679236838
  N   -1.31864509262959      1.22385089017817     -0.25073061313709
  H   -2.12270398871399      1.29825575970175      0.36227934496705
  H   -0.90214161007021      2.14771766852076     -0.31077609803578
  N   1.79276383856647     -0.80352356853448     -0.11466929341520
  O   2.31361407425175     -0.49074724118707      0.95392832509574
  O   2.02863654038766     -1.82224004177335     -0.75650391289430
