14
Coordinates from ORCA-job run
  C   -0.53094976808923      0.13573582246103     -0.24978729087531
  C   0.97804429709396      0.32810610615636     -0.22134893896261
  H   -0.79542159721762     -0.24502784037732     -1.23927272088109
  H   1.29166343182608      0.97957952433877     -1.03539346129049
  H   1.32059183123973      0.71973776735674      0.73786856846335
  N   -1.12728416976426      1.46090272936653     -0.12021515284956
  H   -1.00874115264641      1.80229412686360      0.82772192149543
  H   -2.12212728172479      1.41415234743235     -0.30460391816114
  N   -0.87632521353928     -0.89866444721595      0.70955124722060
  H   -1.85140663098562     -1.15734386146330      0.62890321184747
  H   -0.70488232522158     -0.58546203923908      1.65860246576982
  N   1.64689812653923     -0.98592151141698     -0.41217300560812
  O   2.31687757672065     -1.43023709182066      0.51577929553063
  O   1.46306287576915     -1.53585163244209     -1.49463222169897
