18
Coordinates from ORCA-job run
  C   -0.97256041373926      0.11895397142304     -0.03482099320159
  C   0.54136746427455     -0.14019272477118     -0.09698899209009
  Cl  -1.33255342495880      1.65182380331438      0.76133917213310
  H   0.62235404107253     -1.09251720384212     -0.63653532251945
  N   -1.69433336312947      0.07536419550008     -1.27270573363267
  H   -1.38726936165426     -0.71218037902037     -1.82989161774056
  H   -1.58083918183605      0.93820996712524     -1.78531760508687
  N   -1.55332405960695     -1.03682488643265      0.80236128540071
  O   -1.94524244066251     -0.84579696849763      1.94197462181329
  O   -1.51221109213507     -2.11554539744878      0.21623822695268
  C   1.17157400707436     -0.31577147682412      1.28176874614464
  H   2.24364631941895     -0.49495669122749      1.17236462397158
  H   1.03742134719990      0.57906089215702      1.89289998164274
  H   0.75004993927999     -1.16533536129386      1.82234144184989
  C   1.25728580678546      0.93718840562148     -0.90530350667870
  H   2.29742055000117      0.64277415234978     -1.06218034739860
  H   0.80436067397608      1.08039758964563     -1.88858302450042
  H   1.25385318863938      1.89334811222156     -0.37896095705969
