18
Coordinates from ORCA-job run
  C   -0.93228277180147     -0.07540366868408      0.15335592086921
  C   0.55695252227828     -0.13469682538332      0.47421512858756
  Cl  -1.86964537596787      0.24164049708293      1.70847557937560
  H   0.66308653932461     -0.81895177603219      1.31878201903294
  N   -1.24332364695053      0.80791438080348     -0.88681851529654
  H   -2.20944525272296      0.72475822980176     -1.17545094334990
  H   -1.02729420309352      1.76183402928084     -0.63298321388073
  N   -1.44665260125739     -1.46431971953158     -0.24676853963686
  O   -2.32820646998982     -1.50696680934253     -1.09716661048797
  O   -0.96507907853763     -2.42016600073612      0.34508383136405
  C   1.08376618836542      1.24263466211956      0.87439402014420
  H   2.11135325661212      1.14519755237991      1.23083463147550
  H   1.10651982858464      1.92122358292043      0.01687090909164
  H   0.49510719955346      1.69549014906153      1.67344481596081
  C   1.34395449120614     -0.67950459095119     -0.71836683129320
  H   2.40888079955884     -0.68679719666169     -0.47331874762823
  H   1.05777103118820     -1.70242368706892     -0.96536088219128
  H   1.19553754364947     -0.05146280905880     -1.59822257213680
