18
Coordinates from ORCA-job run
  C   -0.89323290882316     -0.08204366842851     -0.02935746595731
  C   0.63037808920091     -0.15969149844875     -0.04585066047424
  Cl  -1.43447661552756      1.31273003449043      1.02849834087466
  H   0.84462027653537     -1.16087049202020     -0.43298217701864
  N   -1.46464119013243     -0.05950799557929     -1.31611584955951
  H   -1.17020069585559      0.75584491834470     -1.83541878336110
  H   -2.47611592457917     -0.07714538264756     -1.25252591152657
  N   -1.52244148302574     -1.32150280038375      0.63371440897737
  O   -0.77693865639928     -2.16695888651145      1.11239222564690
  O   -2.74524628442460     -1.37736799908303      0.59596985124442
  C   1.28286880111778     -0.00905468788790      1.32740304891006
  H   2.32225909135996     -0.33967238683253      1.25895380298175
  H   0.79120346100504     -0.60991798598611      2.08989747591079
  H   1.28121320338718      1.03373627041158      1.64807793358288
  C   1.20900983848820      0.87032188425320     -1.01669969941164
  H   0.87210836883321      1.88033119863553     -0.76677898882102
  H   0.95312937612413      0.64942322432585     -2.05451504417025
  H   2.29850325271575      0.86034625334777     -0.94366250782856
