18
Coordinates from ORCA-job run
  C   -1.01274376006270     -0.03638034360161      0.29083704119282
  C   0.51312719718437     -0.13258447335706      0.47805054203162
  Cl  -1.78121213553385      0.29144545635051      1.86237452914284
  H   0.67282666463934     -0.81050967622642      1.32234649531157
  N   -1.53694060893167      0.88812973507835     -0.65444896545015
  H   -1.21702065452403      0.68649858968318     -1.59178865439351
  H   -1.31654876838481      1.83690271887108     -0.38592631604342
  N   -1.45251258364205     -1.43979968130184     -0.15454110735275
  O   -1.33525738161960     -2.34044070233677      0.66478236782338
  O   -1.77656177897603     -1.56506656322193     -1.33061963838309
  C   1.10519032888059      1.23431058563409      0.80693191257771
  H   0.60541475973075      1.70598154764260      1.65423599144430
  H   1.04687994362809      1.90468321873597     -0.05492313171724
  H   2.16127775198478      1.12337170127588      1.06203295736818
  C   1.18862521909237     -0.72631712002127     -0.75798730045484
  H   0.88858102086098     -1.75908624991198     -0.94298338447646
  H   0.97562789034791     -0.13866049513419     -1.65558077783701
  H   2.27124689532557     -0.72047824815859     -0.61379256078397
