18
Coordinates from ORCA-job run
  C   -0.98628297732051      0.34668654049265      0.05666125802545
  C   0.53254477729767      0.56416321341943      0.10949014661368
  Cl  -1.80319800024121      1.32651168880030      1.28602430023205
  H   0.63007554071762      1.65432628919087      0.06003029467940
  N   -1.53137248577760      0.66890509250300     -1.20973266393635
  H   -1.22538551195971     -0.00723737854463     -1.89809111030838
  H   -2.54390838964121      0.66755241197857     -1.17673179442148
  N   -1.24708292201932     -1.15420584757910      0.42842528200813
  O   -1.36724897038281     -1.47726464113784      1.60089209443781
  O   -1.23210658947835     -1.92220437970526     -0.53349376956198
  C   1.24482690675884     -0.03291342187793     -1.10452063894067
  H   1.09823022667110     -1.11357252624807     -1.16745389887775
  H   0.91575312170171      0.42763601556936     -2.03711785704106
  H   2.31732744865342      0.15193227335730     -1.01160346436590
  C   1.16689578256237      0.06840378500531      1.40646521034790
  H   1.20700599824192     -1.02286534222399      1.43922307255238
  H   2.19260091221578      0.43954540465921      1.46441694408908
  H   0.62932513200027      0.41460082234082      2.28911659446769
