18
Coordinates from ORCA-job run
  C   -0.89854534987946      0.22996732681525     -0.09789901201388
  C   0.58503280641391     -0.14821307135781     -0.14135237170376
  Cl  -1.17864905724329      1.78584165730122      0.68814196528231
  H   0.60977291805861     -1.07992117368389     -0.72194820531148
  N   -1.46491936297997      0.25954209083001     -1.39717854575516
  H   -1.41365018992951     -0.66375720062111     -1.81080751440245
  H   -2.42878687193945      0.57009087287780     -1.37443183267464
  N   -1.57832663132141     -0.87307777492870      0.78276746951832
  O   -1.88758795394764     -0.64874546873245      1.94248441803880
  O   -1.68570355598073     -1.95073442833201      0.19928323427251
  C   1.16534849664103     -0.42870417845618      1.24139977859418
  H   2.23586207402404     -0.62451593496182      1.14917788501680
  H   1.03431667935609      0.43006273985638      1.90337440198521
  H   0.71083186744422     -1.30025470439896      1.71584567405047
  C   1.39087321196806      0.91383528892584     -0.88429755060342
  H   1.50005390148804      1.81341750308569     -0.27555521537656
  H   2.39083385058944      0.52747318714280     -1.09600078304116
  H   0.91324316723799      1.18669326863793     -1.82500379587608
