18
Coordinates from ORCA-job run
  C   -0.94145753566766     -0.03532540972735      0.10220830187599
  C   0.52362130982213     -0.13296429425559      0.51231359007799
  Cl  -1.95429340247253      0.38001380769426      1.58412336502565
  H   0.55566882241389     -0.78119875483486      1.39061150981029
  N   -1.15910290209977      0.81346376349130     -0.98994628096340
  H   -0.93016465347107      1.77004668050656     -0.75759274744851
  H   -2.10937273960534      0.74832781571062     -1.33157567164993
  N   -1.48184468603031     -1.42202702886047     -0.27187708699180
  O   -2.30726775907660     -1.47241822411775     -1.17659770595317
  O   -1.07558376162118     -2.36690131281984      0.39015363920748
  C   1.07804007965026      1.24243478499346      0.88108014776876
  H   2.07762624660796      1.12568924437341      1.30487565801316
  H   0.46013610127703      1.75408788184290      1.62043406801548
  H   1.17812582420797      1.87712229881888     -0.00402804441168
  C   1.35597049476893     -0.75911829818138     -0.60757599059610
  H   1.05516991093575     -1.78655549954082     -0.81536434778565
  H   1.26935107887355     -0.17515647760889     -1.52525089693579
  H   2.40637757148698     -0.77852097748443     -0.30699150705879
