18
Coordinates from ORCA-job run
  C   -0.97768315105023      0.05641009359955     -0.05308789735986
  C   0.55009727652088     -0.11053951313660     -0.08322735020037
  Cl  -1.44351439506728      1.59848446771522      0.66708515734659
  H   0.69816170002979     -1.07962075361138     -0.57678004940413
  N   -1.67510614073213     -0.08734751368461     -1.29729156149260
  H   -1.31162262733434     -0.87873699415064     -1.81350059040440
  H   -1.60685131093215      0.75706665165776     -1.84716428015256
  N   -1.50022797765507     -1.09392785184439      0.82860343895319
  O   -1.92146265701801     -0.87645771863768      1.95287755649510
  O   -1.38363834008834     -2.19334532046580      0.29313752437657
  C   1.16837691068872     -0.18408325440332      1.31002821599445
  H   2.25027533732888     -0.30752844636954      1.22219060202490
  H   0.97554542115353      0.73009687113322      1.87513172525198
  H   0.78729587428714     -1.02904386278693      1.88660499916497
  C   1.21114959563492      0.97189426944473     -0.93042127310459
  H   2.26925748476336      0.73489059247954     -1.06233304473811
  H   0.76424667478932      1.04484751325408     -1.92409966230346
  H   1.14270032468103      1.94794076980680     -0.44675351044768
