18
Coordinates from ORCA-job run
  C   -0.91461951750458      0.04500517635322     -0.02942369841036
  C   0.59397033027049     -0.17769866128006     -0.12191513956842
  Cl  -1.26552623605537      1.52794119954081      0.94808612990787
  H   0.68903635074942     -1.12780593035853     -0.65403801911237
  N   -1.55119611710450      0.04128985648865     -1.29105466557799
  H   -2.53681613204465      0.26251826649957     -1.20607407392875
  H   -1.11787267351860      0.70207256609608     -1.92049522998775
  N   -1.55366104279010     -1.15243308180325      0.72235517900391
  O   -1.10645672410746     -2.24902931523555      0.41085581716240
  O   -2.47486018376581     -0.94205687913505      1.49854125285896
  C   1.24561131324266     -0.31827800646529      1.25075139170191
  H   0.75972057050542     -1.08268259015778      1.85954212001653
  H   1.22876303412129      0.62520229460595      1.79864450496560
  H   2.28836464425039     -0.61747400839933      1.12224470457399
  C   1.28236222995033      0.91297633291909     -0.94103333505014
  H   0.95207931397689      0.93093237042581     -1.98246526647099
  H   1.12581140680261      1.90062987747048     -0.50317065284740
  H   2.35728943302158      0.71989053243519     -0.95835101923702
