18
Coordinates from ORCA-job run
  C   -1.03366549962078      0.19726070751286     -0.06167211460131
  C   0.44096829189793      0.49042036196027      0.27286941085087
  Cl  -1.91183615128928      1.73417349620072     -0.25402638188172
  H   0.42792025470794      1.22366299270813      1.08532334785670
  N   -1.33886428521615     -0.62483426520703     -1.18103556163552
  H   -1.02835988904591     -0.19141447159564     -2.03915838009205
  H   -0.95760469562364     -1.55510642689643     -1.07759042628961
  N   -1.59779189255886     -0.50338154907923      1.18424446870208
  O   -1.81440446008381     -1.70637322408664      1.08522119899133
  O   -1.67689366874328      0.16596389434276      2.20491517914042
  C   1.16175150620138      1.08443948392690     -0.93326061549169
  H   1.27410505659405      0.34220268651467     -1.72826509311477
  H   0.64189437627083      1.95513620601604     -1.33550738911435
  H   2.16495495003777      1.40090784794541     -0.63969997316117
  C   1.16046817612184     -0.76645068521435      0.76190865357821
  H   2.21420665414424     -0.53434900502668      0.93129099375139
  H   0.75325283397464     -1.14269348248335      1.70185195554126
  H   1.11789844223109     -1.56956456753841      0.02059072696992
