18
Coordinates from ORCA-job run
  C   -0.88351638543064     -0.12237872418292     -0.10147454526467
  C   0.63742624392486     -0.13466447007887      0.01915071460278
  Cl  -1.56979807776593      1.30671978904987      0.81699599453384
  H   0.92329271973551     -1.14637306084654     -0.28555091723708
  N   -1.33774894751133     -0.19947086907998     -1.43212908200927
  H   -1.02976263284030      0.59665173006599     -1.97290737000559
  H   -2.34932953432963     -0.25856095483116     -1.45628389818816
  N   -1.52181588043295     -1.34710784921935      0.57957081089172
  O   -2.73303119369573     -1.45917486594368      0.43765652831302
  O   -0.79070919133608     -2.12879301899480      1.17461073899058
  C   1.15883239456898      0.12457473610141      1.43161676528499
  H   2.21192799074228     -0.16429924500157      1.47454519214751
  H   1.08920693004719      1.18352443920253      1.68470666806024
  H   0.62412027538634     -0.45034375989698      2.18507470955692
  C   1.26059849859574      0.86102386299619     -0.96005746799331
  H   2.33877654055956      0.90295178014824     -0.79210892925230
  H   0.86414591494327      1.86825755109793     -0.80403485283176
  H   1.10738433483884      0.56846292941369     -2.00038105959947
