14

C	0.0	0.0	0.0
C	-0.532444	-0.164009	-1.436042
Br	1.950471	0.0	0.0
H	-1.60168	-0.389809	-1.30717
H	-0.331682	-0.833356	0.618194
C	-0.409807	1.278193	0.567696
N	-0.626942	2.326833	1.050998
N	0.105683	-1.422872	-1.982286
O	-0.069008	-2.435812	-1.305708
O	0.749865	-1.367202	-3.023325
N	-0.36567	0.924926	-2.32408
H	0.531441	1.382254	-2.223128
H	-1.121467	1.582258	-2.183478
Br	-3.533731	0.0	0.0
