14

C	0.0	0.0	0.0
C	-0.462321	-0.322971	-1.421116
F	1.383686	0.0	0.0
H	-1.555939	-0.396527	-1.420735
H	-0.168574	0.509482	-2.064037
N	-0.418521	1.347733	0.305097
H	-1.439779	1.345074	0.264742
H	-0.162487	1.543495	1.268629
N	-0.410856	-1.06383	0.879063
H	-0.109617	-0.839114	1.822044
H	-1.431308	-1.075303	0.870668
C	0.134018	-1.55543	-1.924984
N	0.599073	-2.532284	-2.378853
Br	-3.726026	0.0	0.0
