14

C	0.0	0.0	0.0
C	-0.462685	0.397865	-1.40112
F	1.383683	0.0	0.0
H	-0.166493	-0.397208	-2.088767
H	-1.556353	0.47019	-1.395189
N	-0.4147	1.012404	0.934182
H	-1.435484	1.019927	0.923508
H	-0.115717	0.738445	1.864706
N	-0.416391	-1.36268	0.233533
H	-1.437537	-1.362448	0.203075
H	-0.148522	-1.611904	1.18146
C	0.128771	1.657863	-1.838436
N	0.586735	2.657293	-2.248935
Br	-3.729857	0.0	0.0
