14

C	0.0	0.0	0.0
C	-0.483816	-0.364266	-1.397016
F	1.429321	0.0	0.0
H	-0.179411	0.431436	-2.080019
H	-1.581351	-0.406306	-1.346989
N	-0.456091	1.313581	0.310168
H	-1.478465	1.265046	0.273623
H	-0.205871	1.531705	1.27022
N	-0.40393	-1.003428	0.933515
H	-0.012954	-1.903897	0.678395
H	-0.081775	-0.757904	1.860988
C	0.064259	-1.636462	-1.84922
N	0.510267	-2.661052	-2.209155
Br	-3.837677	0.0	0.0
