14

C	0.0	0.0	0.0
C	-0.45624	-0.255647	-1.434526
F	1.404715	0.0	0.0
H	-0.136767	0.59254	-2.043418
H	-1.551704	-0.299017	-1.44171
N	-0.408802	1.33509	0.363796
H	-0.158248	1.482955	1.336981
H	-1.429895	1.338703	0.319108
N	-0.409976	-1.098244	0.82965
H	-1.430712	-1.120037	0.804009
H	-0.12988	-0.907897	1.786449
C	0.0986	-1.486409	-1.989454
N	0.523923	-2.461208	-2.485833
Br	-3.717221	0.0	0.0
