14

C	0.0	0.0	0.0
C	-0.477424	-0.084706	-1.449839
F	1.405604	0.0	0.0
H	0.013436	-0.936742	-1.918028
H	-1.560338	-0.24352	-1.420689
N	-0.416563	1.246457	0.573561
H	-0.239519	1.22742	1.571562
H	-1.430736	1.289836	0.456865
N	-0.382332	-1.233544	0.652395
H	-0.035302	-1.199252	1.605907
H	-1.402488	-1.237754	0.696612
C	-0.233294	1.130358	-2.22399
N	-0.130253	2.109144	-2.865224
Br	-3.72757	0.0	0.0
