14

C	0.0	0.0	0.0
C	-0.449037	-0.05989	-1.464896
F	1.406502	0.0	0.0
H	-1.548317	-0.04854	-1.44719
H	-0.097343	-0.99583	-1.909128
N	-0.463082	1.197136	0.597419
H	-0.234839	1.184413	1.582066
H	-0.05505	2.005875	0.149328
N	-0.459427	-1.092237	0.795975
H	-1.477843	-1.004953	0.843932
H	-0.233357	-1.9696	0.342495
C	0.064298	1.057324	-2.250569
N	0.480896	1.968313	-2.863443
Br	-3.864622	0.0	0.0
