14

C	0.0	0.0	0.0
C	-0.445573	-0.453328	-1.397154
F	1.404174	0.0	0.0
H	-1.544258	-0.464508	-1.377608
H	-0.112615	0.262431	-2.15459
N	-0.470962	1.320163	0.214325
H	-0.32874	1.566182	1.184566
H	0.009662	1.971603	-0.390219
N	-0.458861	-0.811487	1.079548
H	-0.201803	-1.777862	0.915891
H	-1.480351	-0.740654	1.077232
C	0.085491	-1.771831	-1.726149
N	0.499859	-2.840567	-1.97946
Br	-3.854223	0.0	0.0
