11

C	-0.46665	0.082724	-1.460451
C	0.0	0.0	0.0
Cl	-0.046679	-1.390554	-2.356886
H	1.096118	0.0	0.0
H	0.050235	0.919403	-1.930097
H	-1.547121	0.216537	-1.52502
C	-0.520818	-1.183171	0.681552
N	-0.963688	-2.127743	1.220348
C	-0.454374	1.209782	0.688906
N	-0.824061	2.204885	1.191666
Cl	3.187093	0.0	0.0
