11

C	-0.466715	0.083108	-1.460396
C	0.0	0.0	0.0
Cl	-0.046122	-1.38965	-2.357466
H	1.096082	0.0	0.0
H	0.049726	0.920222	-1.929745
H	-1.547264	0.216405	-1.524886
C	-0.520769	-1.183485	0.681125
N	-0.964467	-2.127668	1.219898
C	-0.454317	1.20944	0.689517
N	-0.822268	2.204422	1.193774
Cl	3.18701	0.0	0.0
