11

C	-0.346151	-0.000528	-1.484604
C	0.0	0.0	0.0
Cl	-2.109955	-0.000372	-1.794591
H	1.098246	0.0	0.0
H	0.077055	-0.89132	-1.946045
H	0.077198	0.889854	-1.946799
C	-0.486798	-1.201696	0.673674
N	-0.861991	-2.181688	1.200346
C	-0.486785	1.202195	0.672777
N	-0.861276	2.182358	1.199645
Cl	3.172741	0.0	0.0
