11

C	-0.336994	0.001139	-1.487075
C	0.0	0.0	0.0
Cl	-2.093631	0.00385	-1.814899
H	1.098206	0.0	0.0
H	0.094157	0.890596	-1.944019
H	0.091942	-0.888902	-1.944578
C	-0.48936	-1.202059	0.670484
N	-0.869873	-2.179035	1.199058
C	-0.489146	1.201577	0.671426
N	-0.869828	2.178881	1.199231
Cl	3.17113	0.0	0.0
