11

C	-0.46627	0.082515	-1.460807
C	0.0	0.0	0.0
Cl	-0.051278	-1.393164	-2.355495
H	1.096038	0.0	0.0
H	-1.546268	0.220225	-1.525936
H	0.05396	0.916778	-1.930926
C	-0.521422	-1.182513	0.682346
N	-0.964215	-2.126904	1.22161
C	-0.454153	1.210509	0.68806
N	-0.823515	2.206083	1.190145
Cl	3.186331	0.0	0.0
