11

C	-0.469784	-0.051804	-1.460194
C	0.0	0.0	0.0
Cl	-0.006796	1.421871	-2.33623
H	1.096023	0.0	0.0
H	0.021777	-0.896496	-1.942805
H	-1.554102	-0.152507	-1.524716
C	-0.459406	-1.218662	0.669174
N	-0.832405	-2.219056	1.158813
C	-0.513523	1.174402	0.702324
N	-0.947915	2.112359	1.259234
Cl	3.194182	0.0	0.0
