15
Coordinates from ORCA-job run
  C   0.66087145357179      0.21857691414634      0.40313205164165
  C   -0.66506650904552      0.68044491887940     -0.24328036568430
  F   1.31377472487427      1.39686731622974      0.73227377843139
  H   -0.41550724788043      1.30622544972648     -1.10250881837913
  C   1.53079351168077     -0.57547778156733     -0.54952240214102
  H   1.09677103367418     -1.55153443859591     -0.76732041775753
  H   1.65991967629143     -0.02202397154239     -1.48094630783961
  H   2.50487956520376     -0.72113019325633     -0.08075623663416
  C   0.40826121001978     -0.52861193183761      1.64382487482711
  N   0.24806119054802     -1.14483675738713      2.63090203221767
  C   -1.51061436952551      1.40052336609193      0.69711157224486
  N   -2.17913565569215      2.00537171287915      1.44967851036948
  N   -1.39164117111539     -0.52403551333093     -0.78935414313260
  O   -2.04616503258336     -1.18550285413924      0.00794586917880
  O   -1.21520238002163     -0.75585623629618     -1.98117999734261
