15
Coordinates from ORCA-job run
  C   0.51469414516381     -0.18826822897738      0.41594890453259
  C   -0.78626874297852      0.14193708795796     -0.34649352472685
  F   0.48724782430174      0.51183834372220      1.60565360398738
  H   -0.85218875795352     -0.47414603205365     -1.24659016554668
  C   1.74244833067824      0.22524572082155     -0.37340967770594
  H   2.63215227119906     -0.02876253250963      0.20388699658168
  H   1.78327739059105     -0.29396026245404     -1.33279997580434
  H   1.72301311766543      1.30346160586618     -0.53802411899766
  C   0.56001676990748     -1.62755968618443      0.72503555302750
  N   0.66284685810115     -2.77439590334487      0.95630102286717
  C   -0.85267661674669      1.55882256613048     -0.67521976363514
  N   -0.86737863076912      2.69197564045104     -0.98265980331999
  N   -1.97523658692467     -0.24603616568863      0.51097425371324
  O   -2.34577401454547     -1.40827561260096      0.38603839869079
  O   -2.42817335768995      0.60712345886418      1.26135829633624
