15
Coordinates from ORCA-job run
  C   0.66978566695281      0.23953879394779      0.37320621993711
  C   -0.68074846933729      0.66214623737538     -0.24914184764459
  F   1.31894075809158      1.43651098934335      0.63405997618548
  H   -0.46408945092136      1.25526271804000     -1.13996474939904
  C   1.51866091959242     -0.58332864273390     -0.57384664197276
  H   2.50681336139351     -0.70539596750404     -0.12822263289945
  H   1.08591970531310     -1.56959249922535     -0.74325063286896
  H   1.61672395918148     -0.06367206104144     -1.52838261976949
  C   0.46393584744583     -0.46005247592650      1.64960623804138
  N   0.34107436178180     -1.03976220141258      2.66371315769964
  C   -1.50393179113142      1.41164657526215      0.68815405696893
  N   -2.15479567162589      2.03862426735200      1.43802581663841
  N   -1.41187157933586     -0.56957854211970     -0.72322681423028
  O   -2.03503326970608     -1.20369398758961      0.12015359861798
  O   -1.27038434769463     -0.84765320376781     -1.90988312530410
