15
Coordinates from ORCA-job run
  C   0.73015827366714      0.25398440498158      0.35858046004134
  C   -0.73560637159437      0.65890245015211      0.07299600647163
  F   1.54617041485533      1.29199409172300     -0.04272412299515
  H   -0.88529151108908      1.68313067511198      0.43171146994104
  C   1.15801184083634     -1.03344383120432     -0.31801703376952
  H   2.18256355852552     -1.26081191313122     -0.02207112352226
  H   0.51248790625219     -1.85982960756037     -0.01422632651843
  H   1.12403148918299     -0.90820816039607     -1.39918689918771
  C   0.85866405421282      0.14038599932925      1.82455998279971
  N   0.98076497940547      0.04632473910932      2.98918966171751
  C   -1.66369450096623     -0.25612644281915      0.72346893750798
  N   -2.37330784383307     -1.01450491695242      1.27246168511043
  N   -1.06061158462344      0.71815259065564     -1.41765750111977
  O   -2.22724583680569      0.50910368587577     -1.72158575289286
  O   -0.14809486802594      1.03294623512489     -2.16849944358392
