15
Coordinates from ORCA-job run
  C   0.70908797690319      0.37437067045177      0.26951055679023
  C   -0.79869472185792      0.61032036521243     -0.01157539756474
  F   1.41662283941029      1.39551442137518     -0.33314831621929
  H   -0.98648435432618      1.68628856659977      0.05641012453800
  C   1.21686859332928     -0.96121667339901     -0.23741339605978
  H   2.24142176030762     -1.10758244589522      0.10461035297299
  H   0.59830001211947     -1.77887450914817      0.13942302917101
  H   1.20856719070089     -0.95696571188275     -1.32738746447588
  C   0.91148777000718      0.50418019016634      1.72425792916098
  N   1.09925986809212      0.61728385786960      2.87842701085372
  C   -1.63592328437582     -0.12610532623611      0.92358219097950
  N   -2.27447801531232     -0.68665514302119      1.73528992115195
  N   -1.15272107033399      0.22624787263677     -1.43996621226281
  O   -0.40688987663110      0.67021748859802     -2.30215529431986
  O   -2.14742468803272     -0.46702362332742     -1.60986503471603
