15
Coordinates from ORCA-job run
  C   0.50872725494829     -0.19291785159467      0.42200313028645
  C   -0.77900303917598      0.14353130322537     -0.36005460614306
  F   0.44430946240143      0.46943185767984      1.63162800731625
  H   -0.81596388045642     -0.44500399447316     -1.27999018169265
  C   1.74824304592609      0.26094282999702     -0.32574487928866
  H   1.81781904515719     -0.22777530858646     -1.29938766150838
  H   2.62805367180882      0.00073372783344      0.26383315078484
  H   1.71784677954070      1.34339528678360     -0.45762281039119
  C   0.56720318018344     -1.64045875543403      0.68753515096324
  N   0.68077269767042     -2.79246177580016      0.88573984924078
  C   -0.85721113638526      1.56901762112526     -0.64642726942653
  N   -0.88018113114707      2.71082343784395     -0.91931075406823
  N   -1.98161211268949     -0.28656554783383      0.45702820680575
  O   -2.33317773975867     -1.44904104491953      0.28739777081192
  O   -2.46282609802348      0.53634821415335      1.22337289630944
