16
Coordinates from ORCA-job run
  C   0.96891637367781     -0.38190320347173      0.16963529768463
  C   -0.56116171996815     -0.20557023222903      0.31270285946779
  Cl  1.25341436305165     -2.13910101977809      0.47836689823342
  H   -0.85649556718846     -0.64083071638308      1.26940635440366
  N   1.77575416213794      0.35882848033659      1.09449612697146
  H   1.79122913015607      1.34239968097864      0.85289069392332
  H   1.45721048094243      0.22845543417609      2.04758932388836
  C   1.42073267490579     -0.09976103964990     -1.19666770705408
  N   1.77845675715757      0.10041764016737     -2.29741568736405
  C   -1.39178266157203     -0.75296069698237     -0.83299006173633
  H   -1.14122491832744     -0.24078484825165     -1.76352778322844
  H   -2.45232996978831     -0.60715304279713     -0.61879369218756
  H   -1.20579453662488     -1.82011459299754     -0.95347318357796
  N   -0.86397831786381      1.25669461960578      0.44991574876580
  O   -0.29628993370846      2.02257822555174     -0.32713560124113
  O   -1.67565631698770      1.57680531172430      1.31400041305112
