16
Coordinates from ORCA-job run
  C   0.89643155004766     -0.36909380359454      0.24505406780710
  C   -0.62436105112606     -0.17351278501790      0.33468214612397
  Cl  1.18601432828043     -2.11340090244528      0.56173600796979
  H   -0.93603022632934     -0.57202583536070      1.30133854376394
  N   1.55455028320956      0.36863834091063      1.29804827218447
  H   1.57745164736517      1.35159126141037      1.04814764662995
  H   2.50805234339736      0.04075521541334      1.40162629927100
  C   1.40903804661450     -0.09912882509726     -1.10936596413813
  N   1.84350595323746      0.10977098798906     -2.18155522011546
  C   -1.41906010483539     -0.76517879300703     -0.81590835319073
  H   -1.22734093235973     -1.83494432102311     -0.89614590303327
  H   -1.14607062352686     -0.28525622489823     -1.75806865389312
  H   -2.48378278062295     -0.61467327958170     -0.63363209709989
  N   -0.95191901712038      1.29181155448128      0.39925105960392
  O   -0.17907642247915      2.08235968875461     -0.14294466924912
  O   -2.00740299375230      1.58328772106645      0.94873681736557
