16

C	0.0	0.0	0.0
C	-0.424423	0.382787	-1.428628
Cl	1.803294	0.0	0.0
H	0.243855	1.180878	-1.76527
H	-0.215705	-0.49037	-2.057273
C	-0.3645	1.069108	0.9394
N	-0.614006	1.939408	1.687997
C	-0.562722	-1.331271	0.460998
H	-0.249756	-2.116501	-0.23056
H	-0.211531	-1.576246	1.464478
H	-1.655862	-1.266435	0.468706
C	-1.872549	0.832656	-1.562653
H	-2.044792	1.765331	-1.021639
H	-2.094539	1.014682	-2.617629
H	-2.612982	0.127147	-1.185646
Br	-4.987064	0.0	0.0
