16

C	0.0	0.0	0.0
C	-0.442928	0.200936	-1.461549
Cl	1.803415	0.0	0.0
H	-0.317138	-0.768054	-1.956161
H	0.263282	0.891429	-1.930427
C	-0.359514	1.175018	0.805196
N	-0.612842	2.131349	1.438836
C	-0.554564	-1.268252	0.622315
H	-0.220876	-1.374105	1.655681
H	-0.213963	-2.131146	0.045932
H	-1.648074	-1.226122	0.60283
C	-1.861977	0.732461	-1.622426
H	-2.620064	0.21959	-1.029337
H	-2.160682	0.643197	-2.669599
H	-1.907762	1.787233	-1.349005
Br	-5.000496	0.0	0.0
