13

C	0.0	0.0	0.0
C	-0.519704	-0.140779	-1.42793
Cl	1.788764	0.0	0.0
H	-1.618082	-0.041994	-1.365354
H	-0.228881	-1.105086	-1.838216
C	-0.429367	1.213264	0.706508
N	-0.587629	2.181981	1.352458
C	-0.415325	-1.188193	0.756377
N	-0.605266	-2.175921	1.364908
N	0.011273	0.897688	-2.339667
O	0.174462	2.030512	-1.894341
O	0.204675	0.553164	-3.504953
Br	-3.472507	0.0	0.0
