13

C	0.0	0.0	0.0
C	-0.515149	-0.150249	-1.42977
Cl	1.78898	0.0	0.0
H	-1.616275	-0.055615	-1.385263
H	-0.216509	-1.114775	-1.837348
C	-0.432172	1.21918	0.696444
N	-0.588736	2.175508	1.361297
C	-0.418486	-1.181388	0.765697
N	-0.616758	-2.151384	1.39868
N	0.016033	0.887772	-2.34483
O	0.184388	2.019469	-1.89955
O	0.201695	0.542156	-3.510589
Br	-3.478347	0.0	0.0
