16
Coordinates from ORCA-job run
  C   -0.73421618652250     -0.05382884841385      0.33060531554327
  C   0.80280643226018     -0.08172560926935      0.21801594154468
  Br  -1.23334320963960      0.48034817382008      2.20694090051936
  H   1.21329348796815     -0.70293174643671      1.02183366202383
  N   -1.17918503292253     -1.40133011522348      0.07549218161303
  H   -0.96558511800056     -2.00856569002644      0.85995035655142
  H   -2.18320577063805     -1.41447192869656     -0.06148410815969
  N   -1.25543130537309      0.92768640601216     -0.54321296222639
  H   -2.26076093461968      0.88279451113159     -0.63407284278910
  H   -0.78341491634865      0.88797385623347     -1.43873889424144
  N   1.39881546149070      1.28257620284847      0.48782850908710
  O   1.84683506052503      1.45315098017796      1.61977704906258
  O   1.41330937635486      2.09706819521842     -0.42659003172861
  N   1.12345307592875     -0.46051307934480     -1.12939167618019
  H   2.12369356908152     -0.54017342536920     -1.26182450534486
  H   0.67293601045547     -1.34605788266176     -1.32412889527499
