16
Coordinates from ORCA-job run
  C   -0.70562703900904     -0.39387620265840     -0.05200573511255
  C   0.83341397718934     -0.39676935125173      0.05846360371269
  Br  -1.18907807604191     -2.23901644681356     -0.69839213494605
  H   1.17356734150301     -1.19789123674237      0.71684739753474
  N   -1.12488906592932      0.50935478482635     -1.09369931941434
  H   -2.00813750650866      0.22866327159933     -1.49629310181510
  H   -1.19828523178331      1.44259594587075     -0.70284984025523
  N   -1.27417841156365     -0.08619300594121      1.20716312782812
  H   -2.28453229142481     -0.13238365092357      1.17721058884423
  H   -0.92508627894413     -0.67079998155350      1.95732663600198
  N   1.18245012685649      0.87944705253650      0.85289574354815
  O   1.45317346599027      0.73632439437031      2.04203894643126
  O   1.16507101868912      1.94232094469288      0.23780421062099
  N   1.43243724196533     -0.45917176477021     -1.20880711709216
  H   2.43919191034528     -0.39496067236411     -1.17197166639798
  H   1.02850881866601      0.23435591912254     -1.82473133948873
