16
Coordinates from ORCA-job run
  C   -0.76392591616895     -0.24284987609791      0.03380879527915
  C   0.76963781111215     -0.36895457980135     -0.03909130385400
  Br  -1.37144528535611     -2.24042591826599     -0.51403192251227
  H   1.09323506311255     -1.31500036907617      0.38810401329319
  N   -1.23524290667077      0.65561966843112     -0.92743230826225
  H   -1.04910371948357      0.31188816311793     -1.86025181547042
  H   -2.21820300326565      0.86680099586175     -0.81831002503812
  N   -1.22951399363195      0.04752985450640      1.31640350782939
  H   -0.82356345316236     -0.54703185060860      2.02587253675550
  H   -2.23836903937516      0.01697946380290      1.37778760005415
  N   1.34385905535882      0.68531001950548      0.92220705622167
  O   1.59831477017796      1.79294071657173      0.46395881875238
  O   1.50115855126996      0.32642751142913      2.08663283015710
  N   1.22865937209384     -0.19866235892187     -1.36819397761281
  H   2.15664520606559     -0.57951624424883     -1.48895552688535
  H   1.23685748792366      0.78894480379428     -1.59650827870730
