16
Coordinates from ORCA-job run
  C   -0.72098863804538     -0.04264849744860     -0.02780962430266
  C   0.83545712048550     -0.01682171282234     -0.07512988751197
  Br  -1.35882045973398      1.87730880380378     -0.08420065363224
  H   1.13130237437018     -1.06992099227593     -0.11343485189544
  N   -1.19576786220242     -0.68640821680161      1.12107071841460
  H   -2.05716800567421     -1.19584118187499      1.01862360816108
  H   -0.51350031787152     -1.10191204813490      1.73617387303000
  N   -1.13767671622839     -0.60174854922598     -1.30484736518480
  H   -1.28203833130586     -1.60003149047171     -1.19873202543969
  H   -1.98673673956804     -0.17163495971015     -1.64399506309509
  N   1.38429764055584      0.47597975522268      1.23463999022197
  O   1.42536220884929     -0.34674985792253      2.15240479286861
  O   1.72144398611412      1.65036941149989      1.31343550720873
  N   1.44481299948811      0.70760515609381     -1.13558258856999
  H   1.00355375672286      0.42334785914169     -2.00144333319871
  H   1.30746698404390      1.70010652092689     -0.99117309707438
