16
Coordinates from ORCA-job run
  C   -0.68421003649549     -0.17871333862847      0.19015458762853
  C   0.85255579193606     -0.06263384990929      0.25430599668956
  Br  -1.35606549776615      0.63096658067783      2.01871039962287
  H   1.21365324518643     -0.66038023325972      1.09051415578234
  N   -1.00709349027713     -1.55764476780897      0.15156208122255
  H   -1.95754139835570     -1.71338602631207     -0.15950399599226
  H   -0.88388536453921     -1.98871554282281      1.05827477550420
  N   -1.23515159340569      0.50346835633417     -0.90264358557791
  H   -0.94251796624370      1.47218970427841     -0.91684355291924
  H   -2.24510102901489      0.44400961422745     -0.92096086315558
  N   1.28786479876296      1.34194072881137      0.56599507006727
  O   2.01521065495873      1.51248325866791      1.53455253763390
  O   0.91865192003236      2.21403171733082     -0.22146876876927
  N   1.51720271485099     -0.44302002688317     -0.95811497726095
  H   1.00984444981224     -0.06297976531901     -1.74930711248365
  H   1.49658280055818     -1.45161640938444     -1.03422674799236
