15
Coordinates from ORCA-job run
  C   0.96234892532012     -0.26940393814832      0.45964932204208
  C   -0.42249923715217      0.24040088120748      0.07289353574585
  Cl  1.34693264030974     -1.82551764718338     -0.26474467772676
  H   -0.52071869061466      1.19197360156650      0.60434286912957
  H   1.06886096854920     -0.35894070689853      1.54048197321706
  N   1.96973826912027      0.78841899942475      0.04751561231063
  O   1.86368954298059      1.82396843845942      0.69854584569713
  O   2.75586552982922      0.57183563870826     -0.85732203850224
  C   -1.51985027196901     -0.70877603795356      0.54676888590906
  H   -1.44373186401841     -0.91652603520914      1.61823555376255
  H   -1.47440532986934     -1.65785056268021      0.00926060054995
  H   -2.49618740295188     -0.25646213728214      0.35792622076371
  N   -0.41208212124817      0.54558833791085     -1.34833446232332
  H   -1.19896169303746      1.13499521463894     -1.58623749583745
  H   -0.47799926524804     -0.30370404656093     -1.89698174473781
