15
Coordinates from ORCA-job run
  C   0.87985353439192      0.47366491226917      0.66108753756282
  C   -0.58028643387290      0.30818293284502      0.23718551588111
  Cl  1.19979418334198     -0.19360529251653      2.26129047548788
  H   -1.15433163444240      0.83344678088473      1.01735181786416
  H   1.15955234197173      1.52593583997220      0.68000606229107
  N   1.80270149087703     -0.14367832549505     -0.35520320315333
  O   2.42915536283282      0.64707840910064     -1.05302344428897
  O   1.83367477749317     -1.36595017129110     -0.42763950575794
  C   -1.06773239702752     -1.13026922583828      0.16876815216548
  H   -2.14951493844712     -1.12785561667656      0.00953719893619
  H   -0.59218707872245     -1.65403760610383     -0.65963195904301
  H   -0.86352159425443     -1.67329731259879      1.09060233038553
  N   -0.68816019472205      0.91467312668088     -1.08350000070783
  H   -1.56834504512485      0.66139975091065     -1.51374289132066
  H   -0.64265237429493      1.92531179785686     -1.03308808630251
