17

C	-0.3939	0.071315	-1.479339
C	0.0	0.0	0.0
F	-1.783298	0.247134	-1.588986
H	1.104805	0.0	0.0
C	0.307526	1.208313	-2.192736
H	0.029857	1.217808	-3.248488
H	0.00888	2.151803	-1.732982
H	1.387278	1.083353	-2.081157
C	-0.100535	-1.214274	-2.144444
N	0.086196	-2.227275	-2.708401
C	-0.527866	-1.239822	0.719325
H	-1.615187	-1.312564	0.638557
H	-0.252057	-1.194567	1.773916
H	-0.070895	-2.134041	0.292209
C	-0.46755	1.217875	0.658141
N	-0.865983	2.180064	1.201473
Cl	3.301671	0.0	0.0
