17

C	-0.394666	0.038727	-1.480182
C	0.0	0.0	0.0
F	-1.78399	0.212155	-1.593199
H	1.101986	0.0	0.0
C	0.305643	1.160601	-2.219326
H	-0.003546	2.113893	-1.786214
H	1.385701	1.045352	-2.097713
H	0.034549	1.141053	-3.276753
C	-0.102326	-1.260486	-2.117076
N	0.080324	-2.285288	-2.660124
C	-0.526797	-1.224115	0.747252
H	-0.250011	-1.155253	1.800339
H	-0.069304	-2.127128	0.339769
H	-1.614131	-1.299453	0.668877
C	-0.468469	1.231899	0.631262
N	-0.869466	2.204362	1.154442
Cl	3.299447	0.0	0.0
