17

C	-0.393716	0.050929	-1.480553
C	0.0	0.0	0.0
F	-1.781365	0.231827	-1.593272
H	1.097906	0.0	0.0
C	0.313371	1.17382	-2.210769
H	0.04301	1.163585	-3.268209
H	1.392284	1.051255	-2.089297
H	0.009787	2.125773	-1.770731
C	-0.106642	-1.246353	-2.124468
N	0.074096	-2.272378	-2.665706
C	-0.527998	-1.229895	0.73656
H	-1.614948	-1.306063	0.653348
H	-0.255637	-1.168039	1.791279
H	-0.06772	-2.129397	0.324796
C	-0.468633	1.227671	0.639284
N	-0.860045	2.205385	1.159977
Cl	3.299246	0.0	0.0
