17

C	-0.39024	0.004348	-1.484781
C	0.0	0.0	0.0
F	-0.113208	1.265868	-2.003178
H	1.107235	0.0	0.0
C	0.417825	-1.006793	-2.27838
H	0.227933	-0.855723	-3.342976
H	1.475238	-0.843086	-2.053354
H	0.143168	-2.028718	-2.013692
C	-1.843435	-0.214294	-1.6629
N	-2.990021	-0.420955	-1.817393
C	-0.459518	-1.262306	0.735005
H	0.004949	-2.143519	0.290284
H	-0.124581	-1.207508	1.772051
H	-1.547315	-1.374518	0.720549
C	-0.520475	1.192719	0.659912
N	-0.967373	2.12305	1.219907
Cl	3.328446	0.0	0.0
