17

C	-0.394653	0.048174	-1.479991
C	0.0	0.0	0.0
F	-1.783649	0.222959	-1.59137
H	1.097378	0.0	0.0
C	0.306166	1.174464	-2.21186
H	0.035345	1.161727	-3.269197
H	-0.002939	2.124957	-1.772298
H	1.386081	1.057884	-2.091185
C	-0.102041	-1.247067	-2.124839
N	0.082888	-2.268768	-2.672902
C	-0.526858	-1.229052	0.739159
H	-0.251254	-1.166419	1.792965
H	-1.614006	-1.304074	0.658932
H	-0.068279	-2.129239	0.326636
C	-0.470457	1.227369	0.638773
N	-0.878802	2.193866	1.166818
Cl	3.300141	0.0	0.0
