18
Coordinates from ORCA-job run
  C   -0.69503542863792     -0.06373019591539     -0.28472414140673
  C   0.81218917371535      0.13353128303358     -0.56958875764151
  Br  -1.63051727883785      0.26924310421632     -1.99304260887419
  H   1.06360163098111     -0.49249375301893     -1.43364024957772
  C   -0.99266101379719     -1.50120129175455      0.11761993082402
  H   -2.07089156792575     -1.66365607356544      0.15648104122917
  H   -0.56538514178676     -2.21014766387259     -0.59563013420639
  H   -0.58479369236650     -1.70651366039512      1.11107129728431
  C   -1.23877663855307      0.92459787717295      0.73530627633183
  H   -1.07444255792378      1.95632989200660      0.42095218110832
  H   -0.75169783793203      0.76840704148881      1.70263410707255
  H   -2.31130945348711      0.77219484697405      0.86881010125633
  C   1.72073183661778     -0.26515548464896      0.60364431405544
  H   2.76130381847912     -0.06685594405603      0.34020196169651
  H   1.48944490888632      0.30826638666599      1.50259916394146
  H   1.62654529037658     -1.32877710858605      0.82382102500495
  C   1.09270087448812      1.52289854225849     -0.94312271896904
  N   1.34699307770357      2.64206220199628     -1.19239278912931
