18
Coordinates from ORCA-job run
  C   -0.59544107005235      0.02629706653340      0.34933742575508
  C   0.79952524885366      0.29474331775152     -0.25869883744186
  Br  -0.55476441324468      0.47473487115992      2.26857281334148
  H   0.68935795385087      0.07298953361519     -1.33053854176927
  C   -1.64379015225127      0.91572981302203     -0.30474092086702
  H   -1.40906204122803      1.97342895534100     -0.17806418384786
  H   -2.62686791857042      0.72640531880224      0.12983239149752
  H   -1.69035786795211      0.69215222719390     -1.37650330127991
  C   -0.97371262253982     -1.44278715545392      0.22299559904466
  H   -0.93908027541739     -1.73941382071792     -0.83146392501835
  H   -0.30818402937694     -2.09001344606738      0.79349617265132
  H   -1.98959592037543     -1.59838947438099      0.59027047399524
  C   1.94462811333189     -0.56106879514611      0.29133488731763
  H   1.76865252240621     -1.61832477830671      0.09056217715402
  H   2.05273246827036     -0.41471267849632      1.36635072001021
  H   2.88138935030463     -0.27719658580047     -0.19177222203829
  C   1.14682359444261      1.71556316194862     -0.16340698630418
  N   1.44774705954821      2.84886246900201     -0.09756374220041
