18
Coordinates from ORCA-job run
  C   -0.70346647221213     -0.06369406752788     -0.26707145247343
  C   0.79557980924102      0.13906830214253     -0.58861738207902
  Br  -1.68263571167471      0.27818593753612     -1.94913683478396
  H   1.02708348341922     -0.48386479828580     -1.46048397720714
  C   -0.98787015377309     -1.50466760690283      0.13260381603681
  H   -0.57817392855526     -2.20744513809496     -0.59693564835247
  H   -0.55385942822386     -1.71666304979092      1.11354433186571
  H   -2.06442031363485     -1.66957248744402      0.19845319912423
  C   -1.22338710701518      0.91657049118132      0.77301945826425
  H   -2.29273518435563      0.76353689791411      0.92938546937031
  H   -0.71480351341192      0.75209825590036      1.72791971916111
  H   -1.06550393996719      1.95084205575022      0.46338591277278
  C   1.73417445949319     -0.26029565383316      0.56029684193128
  H   2.76753494042519     -0.06072910694288      0.27072702316747
  H   1.64666906815393     -1.32426419796885      0.78133262670293
  H   1.52537911026426      0.31168456296521      1.46559147160739
  C   1.06284255160593      1.53008523509297     -0.96557714184674
  N   1.30859233022108      2.65012436830846     -1.21943743326151
