18
Coordinates from ORCA-job run
  C   -0.59953333711010      0.04692618263875      0.33739488159124
  C   0.79480672145908      0.26618864772897     -0.29116258347163
  Br  -0.59920293276768      0.77685826592259      2.16855694817075
  H   0.70681685265738     -0.11984132966743     -1.31759106075828
  C   -1.66539075087517      0.79512789711084     -0.45130767792059
  H   -1.46637262510213      1.86725623742342     -0.47878200980691
  H   -1.68814110533614      0.41584755526789     -1.47914507753136
  H   -2.64855011213314      0.63842891489359     -0.00413587392973
  C   -0.93114138556869     -1.43604685844509      0.42759639669558
  H   -0.25299937950410     -1.97010820763302      1.09252444305973
  H   -0.87479280948018     -1.88398810276136     -0.57101078948391
  H   -1.94612885881159     -1.56825408300392      0.80632369938149
  C   1.95864996521824     -0.45711660143984      0.39308613203901
  H   2.89280071444617     -0.21799839326966     -0.11836100491024
  H   1.81956200800125     -1.53789188877544      0.35289421503157
  H   2.04643475601801     -0.14672365279311      1.43451484980901
  C   1.09508864314763      1.69596775989428     -0.41231569479496
  N   1.35809363574114      2.83536765690853     -0.52007979317075
