18
Coordinates from ORCA-job run
  C   -0.65921011409089     -0.08322099834577     -0.20472636460807
  C   0.79542475357632      0.43505201514829     -0.32512282771828
  Br  -1.12942495313243     -0.88271883707442     -1.94907177664518
  H   0.81912216184151      1.13299745284572     -1.17066680880921
  C   -0.81008417191686     -1.15522246970587      0.86243480392243
  H   -1.85402791005556     -1.46552911752647      0.93565912795276
  H   -0.50191708906626     -0.74936222789848      1.83175440322681
  H   -0.21024450138613     -2.03850319354926      0.64257530102069
  C   -1.62588183812702      1.07026727777115      0.02691819260686
  H   -1.43804021217033      1.51975093518975      1.00615776626710
  H   -2.65637919274635      0.71186929813960      0.00247146045242
  H   -1.51181207828750      1.84005144608697     -0.73973187389950
  C   1.86914863789582     -0.63789541882238     -0.53459002641527
  H   1.95676970049523     -1.28540921634309      0.33868014336510
  H   1.63190808447938     -1.24465930670409     -1.40835525750369
  H   2.83752855149505     -0.16040244341860     -0.69589030955139
  C   1.11511525270965      1.20377963972880      0.88384697726839
  N   1.37300491848637      1.79015516447814      1.86865706906803
