15

C	0.0	0.0	0.0
C	-0.278187	-0.16777	-1.508043
Cl	1.785025	0.0	0.0
H	0.451899	0.450826	-2.03447
H	-0.355965	-0.869885	0.546138
C	-0.542435	1.298099	0.548619
H	-1.635205	1.23633	0.531975
H	-0.200727	2.146198	-0.049501
H	-0.19928	1.435634	1.575204
C	-1.555962	0.138829	-2.158011
N	-2.317484	0.390674	-3.018854
N	0.095364	-1.57711	-1.946275
O	-0.123564	-2.49752	-1.170783
O	0.581549	-1.675775	-3.06843
Br	-3.826222	0.0	0.0
