15

C	0.0	0.0	0.0
C	-0.29162	0.150589	-1.513878
Cl	1.783926	0.0	0.0
H	0.422508	-0.482909	-2.045997
H	-0.320724	-0.999357	0.29672
C	-0.613666	1.070292	0.860573
H	-0.355764	0.898184	1.908015
H	-0.263121	2.062039	0.56717
H	-1.704825	1.006614	0.748313
C	-0.10627	1.5212	-1.978573
N	0.135153	2.615067	-2.330153
N	-1.610212	-0.412589	-2.006162
O	-2.286029	0.288397	-2.744102
O	-1.790024	-1.584532	-1.71187
Br	-4.149185	0.0	0.0
