15

C	0.0	0.0	0.0
C	-0.523413	0.025428	-1.435741
Cl	1.780746	0.0	0.0
H	-1.627444	0.071609	-1.350722
H	-0.33622	-0.946339	0.42525
C	-0.461199	1.168823	0.853857
H	-0.150757	0.987834	1.885017
H	0.001631	2.094814	0.513031
H	-1.547274	1.248656	0.806086
C	-0.098037	-1.143605	-2.192383
N	0.2295	-2.099496	-2.791276
N	-0.060932	1.264707	-2.155266
O	0.854299	1.161952	-2.96948
O	-0.630703	2.307523	-1.84822
Br	-3.693529	0.0	0.0
