15

C	0.0	0.0	0.0
C	-0.558971	0.0017	-1.425328
Cl	1.781124	0.0	0.0
H	-1.658856	0.075311	-1.308724
H	-0.327813	-0.943434	0.438355
C	-0.4828	1.165811	0.846065
H	-0.183754	0.994627	1.881919
H	-1.56995	1.220332	0.786366
H	-0.039749	2.100875	0.504029
C	-0.195501	-1.202167	-2.159414
N	0.045028	-2.194261	-2.738715
N	-0.092939	1.209924	-2.190145
O	0.789984	1.063369	-3.033085
O	-0.62698	2.274502	-1.891151
Br	-3.744447	0.0	0.0
