15

C	0.0	0.0	0.0
C	-0.349345	-0.047593	-1.505279
Cl	1.783734	0.0	0.0
H	0.424142	-0.636441	-2.004296
H	-0.31062	-0.956375	0.420707
C	-0.590591	1.157993	0.763745
H	-0.270347	2.11276	0.341328
H	-0.274689	1.113981	1.807032
H	-1.683357	1.078067	0.716625
C	-0.379882	1.270121	-2.122756
N	-0.299738	2.339175	-2.598298
N	-1.589081	-0.857217	-1.866368
O	-1.658119	-1.951526	-1.328254
O	-2.292703	-0.419557	-2.760751
Br	-4.159715	0.0	0.0
