15

C	0.0	0.0	0.0
C	-0.404523	0.322976	-1.454376
Cl	1.783856	0.0	0.0
H	0.429947	0.047027	-2.107358
H	-0.305854	-1.029382	0.180987
C	-0.56051	0.930874	1.0487
H	-0.228332	1.957677	0.879587
H	-1.65158	0.877147	0.992172
H	-0.228904	0.607742	2.036686
C	-0.696956	1.730239	-1.68897
N	-0.819377	2.884576	-1.864577
N	-1.499345	-0.575246	-2.024894
O	-2.189873	-0.09109	-2.905909
O	-1.456544	-1.744254	-1.676076
Br	-3.955824	0.0	0.0
