15

C	0.0	0.0	0.0
C	-0.522476	-0.212294	-1.421051
Cl	1.797407	0.0	0.0
H	-0.197788	0.605595	-2.070238
H	-1.623493	-0.173313	-1.267403
C	-0.440053	1.384099	0.474081
H	-1.534406	1.345615	0.448247
H	-0.079708	1.553832	1.492769
H	-0.049003	2.178299	-0.169072
N	-0.524331	-1.073038	0.804203
H	-0.293328	-0.883685	1.775555
H	-1.550386	-0.91989	0.687803
C	-0.116678	-1.479767	-2.013889
N	0.18152	-2.482316	-2.547338
F	-2.902272	0.0	0.0
