15

C	0.0	0.0	0.0
C	-0.272068	0.312409	-1.489253
Cl	1.85589	0.0	0.0
H	0.052973	-0.572704	-2.044057
H	0.389885	1.131552	-1.783121
C	-0.412359	1.138944	0.919034
H	-0.001918	2.098266	0.591009
H	-1.507117	1.124765	0.878985
H	-0.057567	0.936893	1.934793
N	-0.539902	-1.276273	0.328301
H	-1.570125	-1.044809	0.214466
H	-0.387728	-1.429502	1.32217
C	-1.60576	0.688689	-1.983083
N	-2.4221	1.099561	-2.723865
F	-2.785332	0.0	0.0
