15

C	0.0	0.0	0.0
C	-0.518521	-0.006702	-1.447637
Cl	1.7955	0.0	0.0
H	-1.618256	0.028905	-1.276533
H	-0.18115	0.874662	-2.002238
C	-0.45023	1.295074	0.66322
H	-0.060305	2.164349	0.126386
H	-0.085195	1.307408	1.691732
H	-1.544441	1.262869	0.634409
N	-0.511361	-1.099783	0.773636
H	-0.286003	-1.972168	0.301658
H	-1.537944	-0.945137	0.694323
C	-0.146316	-1.209777	-2.175421
N	0.156168	-2.184315	-2.757179
F	-2.894677	0.0	0.0
