19

C	-0.424139	-0.027465	-1.477433
C	0.0	0.0	0.0
Cl	-0.09099	1.596842	-2.222139
H	1.096656	0.0	0.0
N	0.37899	-0.987612	-2.216897
H	1.3542	-0.751279	-2.013409
H	0.220002	-1.867317	-1.728482
C	-1.897329	-0.320922	-1.692784
H	-2.101737	-0.358456	-2.763958
H	-2.525523	0.446476	-1.234113
H	-2.128828	-1.291306	-1.246503
N	-0.34628	-1.329428	0.549338
H	-1.113087	-1.250869	1.207544
H	0.469616	-1.656761	1.058852
C	-0.534794	1.133649	0.854955
H	-0.254234	2.108293	0.454927
H	-1.628686	1.096879	0.949243
H	-0.100573	1.046037	1.85573
H	2.95558	0.0	0.0
