19

C	-0.426464	-0.021894	-1.476365
C	0.0	0.0	0.0
Cl	-0.077572	1.600367	-2.218972
H	1.101634	0.0	0.0
N	0.363116	-0.991982	-2.217298
H	0.198291	-1.869071	-1.725781
H	1.340931	-0.764164	-2.018531
C	-1.905418	-0.295883	-1.688992
H	-2.112293	-0.338573	-2.75952
H	-2.520454	0.486007	-1.236278
H	-2.152102	-1.259937	-1.235728
N	-0.34694	-1.330449	0.546546
H	0.463351	-1.65043	1.066951
H	-1.117162	-1.250679	1.200549
C	-0.530747	1.132547	0.858871
H	-0.254546	2.107547	0.457381
H	-1.624144	1.093595	0.960953
H	-0.089579	1.045349	1.856351
H	2.952677	0.0	0.0
