19

C	-0.505274	0.039331	-1.438165
C	0.0	0.0	0.0
Cl	0.08947	-1.55606	-2.25481
H	1.099388	0.0	0.0
N	-1.925819	0.089964	-1.465922
H	-2.275574	-0.088717	-2.399408
H	-2.262526	-0.628366	-0.831124
C	0.14576	1.135886	-2.253727
H	1.228548	1.083302	-2.117829
H	-0.099454	1.024533	-3.313621
H	-0.224237	2.105015	-1.912604
N	-0.569884	-1.187913	0.667853
H	0.005987	-1.977869	0.390465
H	-0.406085	-1.069948	1.662708
C	-0.43907	1.238699	0.770446
H	0.026864	1.206057	1.761311
H	-1.525646	1.28676	0.879237
H	-0.084572	2.151522	0.29053
H	3.039543	0.0	0.0
