17

C	-0.627612	0.033528	-1.383507
C	0.0	0.0	0.0
F	-0.251984	1.090183	-2.148625
H	1.087826	0.0	0.0
N	-0.031237	-1.190789	-2.156842
O	1.142751	-1.115873	-2.488845
O	-0.794729	-2.127618	-2.394253
N	-2.03561	-0.025397	-1.336051
H	-2.408479	-0.140926	-2.270892
H	-2.283885	-0.844934	-0.79611
N	-0.442035	-1.201506	0.661432
H	-1.133776	-0.965763	1.3661
H	0.371949	-1.581374	1.133053
N	-0.453768	1.233769	0.721793
O	-0.1167	2.31668	0.254825
O	-1.127213	1.103184	1.751335
F	2.520806	0.0	0.0
