17

C	-0.519106	-0.050808	-1.422572
C	0.0	0.0	0.0
F	0.091901	0.948456	-2.151132
H	1.095909	0.0	0.0
N	-0.024444	-1.318171	-2.145989
O	-0.303832	-1.355428	-3.342758
O	0.581673	-2.188341	-1.531219
N	-1.916653	-0.076969	-1.587693
H	-2.316146	0.676683	-1.045731
H	-2.136129	0.048425	-2.568749
N	-0.524997	-1.082406	0.843015
H	-0.038871	-0.952296	1.724319
H	-0.120091	-1.922968	0.447379
N	-0.428344	1.260484	0.657862
O	-0.155515	1.35096	1.853943
O	-0.997893	2.154495	0.018886
F	2.525171	0.0	0.0
