17

C	-0.148705	-0.083901	-1.535179
C	0.0	0.0	0.0
F	-0.524245	-1.422871	-1.866769
H	1.091926	0.0	0.0
N	-1.396726	0.623079	-2.087385
O	-2.409146	0.542826	-1.394182
O	-1.333194	1.13348	-3.200363
N	1.003278	0.327859	-2.139244
H	1.839557	0.209343	-1.527126
H	1.087159	0.100248	-3.116004
N	-0.54036	-1.056442	0.768919
H	0.148215	-1.789976	0.8458
H	-1.393501	-1.418776	0.36737
N	-0.460904	1.345161	0.483636
O	-0.265116	2.294117	-0.276166
O	-0.945715	1.439138	1.605404
F	2.641282	0.0	0.0
