16
Coordinates from ORCA-job run
  C   0.85373101838878      0.00392561186273     -0.19408060750786
  C   -0.65246733854536      0.15224177584129     -0.48787919454520
  H   1.36895830998207      0.86685972439055     -0.63392052620601
  H   -0.81688371768850      0.26287699043940     -1.56209006902180
  N   1.41179018557687     -1.19935118556907     -0.77080224579318
  H   1.54001850158044     -1.08297650521398     -1.76797947153389
  H   0.75892669674146     -1.96111074930824     -0.62046637867457
  N   1.00029744714177     -0.09892666944984      1.25223994298054
  H   1.91344760401361     -0.49435030519433      1.43770927010984
  H   0.94646256462534      0.81006294618869      1.69642465078242
  N   -1.06309016642222      1.51884525278959      0.07976178888676
  O   -0.59703328308303      2.50009631065627     -0.49718699189106
  O   -1.77858763881305      1.54592407693302      1.07794124612437
  N   -1.36555540437328     -0.94039815063581      0.04881218470745
  H   -2.36231034231167     -0.86301872184351     -0.09550477315391
  H   -1.15870443681322     -1.01970040188676      1.03702117473608
