16
Coordinates from ORCA-job run
  C   0.76977906430138     -0.02870387901037     -0.18985152288127
  C   -0.75574525572497      0.04654022336558     -0.36162967753656
  H   1.18901484315623      0.89056725476079     -0.61471690892002
  H   -1.04199717007780     -0.17282866767127     -1.39363917577540
  N   1.25427508916134     -1.24109225504467     -0.84188708198985
  H   2.26783869594520     -1.22126686784353     -0.86141575546907
  H   0.93271620513009     -1.28907235370678     -1.80218608576962
  N   1.06593092372022     -0.04136926790129      1.22859143794317
  H   1.10001522876957     -1.00747408525364      1.53481282537263
  H   1.95707468002453      0.39355682339358      1.42243720947832
  N   -1.12932729488227      1.53893470826082     -0.21865215093175
  O   -1.84031820345692      1.86850161065130      0.72477881431929
  O   -0.68377611070190      2.29439417621588     -1.07936970759863
  N   -1.43179366547971     -0.78733373592703      0.55011912845626
  H   -1.22347958716718     -0.48354028523399      1.49323430408456
  H   -2.43220744271780     -0.76181339905538      0.40937434721794
