16
Coordinates from ORCA-job run
  C   0.75967534789954      0.06881177357203     -0.37142404974664
  C   -0.76805831250068      0.07360401981124     -0.45400608555117
  H   1.13116120854590      0.95108164549874     -0.90445447641808
  H   -1.07800024267069      0.11285934661519     -1.49915770132481
  N   1.21215963526847     -1.10273648443328     -1.07401113985217
  H   0.84426196709539     -1.93003467732581     -0.62042915282345
  H   2.22283554803806     -1.14539377466555     -1.10301362418685
  N   1.11299355606589      0.07457378130905      1.05765553620605
  H   2.06550581026822     -0.25088216852549      1.16604892521983
  H   1.07075839802078      1.01570403039564      1.43579861974141
  N   -1.22213098315678      1.42842442479528      0.12195892630391
  O   -0.86498560262626      2.42641932228539     -0.50081194124882
  O   -1.87907292746829      1.42945830662089      1.15947952643672
  N   -1.30115583423647     -1.04421919228465      0.22166741405472
  H   -2.30957628374024     -1.07727334824814      0.17618539162846
  H   -0.99537128480285     -1.02939700542053      1.18651383156092
