16
Coordinates from ORCA-job run
  C   0.84097405788168      0.03919235543325     -0.24042717818006
  C   -0.68424210347061      0.11099515111971     -0.45428976852623
  H   1.29007271811247      0.91541869851490     -0.72417691668524
  H   -0.91120252057428      0.18942133234752     -1.51991525099466
  N   1.42376446098523     -1.14963475609363     -0.82258456600518
  H   1.49139868980483     -1.05042031070560     -1.82758969207913
  H   0.81658051010005     -1.93702375115321     -0.62120832802094
  N   1.06937413231077     -0.02438276155904      1.19775117532792
  H   2.00768023192799     -0.37630477334773      1.34072709444771
  H   1.00116349948106      0.89185805332589      1.62483035642301
  N   -1.12748213718307      1.47008793809020      0.10717561406395
  O   -0.74086835350161      2.45801862393327     -0.51520547707426
  O   -1.78817517326041      1.48704953173287      1.14257323525345
  N   -1.31495893619260     -1.00056604973006      0.14268411921205
  H   -2.32031430400189     -0.97462588351252      0.04866909366943
  H   -1.05376477241961     -1.04708339839581      1.11998648916818
