16

C	0.0	0.0	0.0
C	-0.217835	-0.001092	-1.541239
Br	1.971378	0.0	0.0
H	0.307543	0.872135	-1.940858
H	0.306688	-0.87546	-1.940204
C	-0.530075	1.256764	0.651607
H	-0.250295	1.291216	1.707686
H	-1.6237	1.220282	0.571792
H	-0.148842	2.153542	0.156301
C	-0.530457	-1.255276	0.653942
H	-0.251361	-1.28751	1.710313
H	-0.149002	-2.153082	0.160828
H	-1.62402	-1.21871	0.57334
C	-1.536252	-0.000488	-2.185307
N	-2.37678	-0.001066	-3.006315
Cl	-3.866237	0.0	0.0
