16

C	0.0	0.0	0.0
C	-0.512287	-0.070845	-1.442262
Br	1.969069	0.0	0.0
H	-0.197445	-1.008579	-1.909574
H	-1.611903	-0.069986	-1.367567
C	-0.469184	1.277343	0.675346
H	-1.563797	1.266064	0.666198
H	-0.114426	1.313757	1.707983
H	-0.104786	2.161975	0.148867
C	-0.474935	-1.230877	0.754342
H	-0.111954	-1.210992	1.784274
H	-1.56948	-1.214565	0.753058
H	-0.118283	-2.147491	0.277216
C	-0.078791	1.042634	-2.280649
N	0.26488	1.93539	-2.9617
Cl	-3.808065	0.0	0.0
