16

C	0.0	0.0	0.0
C	-0.51298	0.103567	-1.44033
Br	1.969105	0.0	0.0
H	-0.199883	1.05298	-1.883955
H	-1.612602	0.099319	-1.366445
C	-0.473811	1.213936	0.782634
H	-0.111698	2.140416	0.329789
H	-1.568648	1.202022	0.777375
H	-0.115302	1.166464	1.813134
C	-0.467412	-1.29319	0.646381
H	-0.106876	-1.356278	1.675373
H	-1.562296	-1.281697	0.642774
H	-0.106968	-2.164063	0.094999
C	-0.077975	-0.988656	-2.305266
N	0.270774	-1.864126	-3.005468
Cl	-3.80394	0.0	0.0
