16

C	0.0	0.0	0.0
C	-0.321808	-0.009223	-1.574104
Br	1.969106	0.0	0.0
H	-1.405206	-0.118558	-1.73062
H	0.102116	-0.900231	-2.021094
C	-0.333403	1.345626	0.800215
H	0.006162	1.229613	1.824286
H	-1.400372	1.533118	0.882604
H	0.058119	2.202596	0.267069
C	-0.327329	-1.382758	0.737567
H	0.046488	-1.337321	1.754527
H	-1.39322	-1.56362	0.837521
H	0.041909	-2.210152	0.140768
C	0.006175	1.224297	-2.226595
N	0.171017	2.248033	-2.776758
Cl	-2.398961	0.0	0.0
