16

C	0.0	0.0	0.0
C	-0.399647	0.105047	-1.490757
Cl	1.7836	0.0	0.0
H	0.2185	-0.610702	-2.034814
H	-0.071759	1.105927	-1.797807
C	-0.60432	1.046184	0.892156
H	-0.353448	2.034254	0.50253
H	-0.240419	0.95299	1.913596
H	-1.692208	0.916188	0.886883
N	-0.358456	-1.390455	0.53089
O	-0.399667	-2.306254	-0.285452
O	-0.524401	-1.507366	1.73967
N	-1.769463	-0.094838	-1.857294
H	-2.061173	-1.045939	-1.677547
H	-2.433824	0.480353	-1.349703
Br	-4.525934	0.0	0.0
