16

C	0.0	0.0	0.0
C	-0.516921	0.087271	-1.429161
Cl	1.785731	0.0	0.0
H	-0.138604	-0.768108	-1.992615
H	-1.60651	0.003123	-1.352
C	-0.51542	1.099955	0.885351
H	-1.60526	1.012526	0.92862
H	-0.240957	2.045905	0.420169
H	-0.09057	1.026149	1.88474
N	-0.375013	-1.36407	0.580613
O	-0.494602	-1.444063	1.796943
O	-0.474863	-2.300113	-0.206337
N	-0.145079	1.37717	-2.008023
H	-0.916216	1.732395	-2.555554
H	0.658379	1.273591	-2.612783
Br	-3.98278	0.0	0.0
