16

C	0.0	0.0	0.0
C	-0.582585	0.055942	-1.400881
Cl	1.785624	0.0	0.0
H	-0.137382	-0.735062	-2.00492
H	-1.649176	-0.160268	-1.262865
C	-0.502836	1.09651	0.901358
H	-0.055859	1.021449	1.889296
H	-0.235349	2.047466	0.438379
H	-1.59256	1.018531	0.972897
N	-0.34311	-1.363989	0.604777
O	-0.388398	-2.317022	-0.168085
O	-0.484497	-1.432495	1.820077
N	-0.377757	1.382164	-1.978553
H	-1.27712	1.815058	-2.137919
H	0.104978	1.312741	-2.861574
Br	-3.96816	0.0	0.0
