16

C	0.0	0.0	0.0
C	-0.572506	0.378092	-1.352914
Cl	1.78412	0.0	0.0
H	-1.661021	0.281215	-1.234286
H	-0.342468	1.441087	-1.47339
C	-0.526924	0.903648	1.090671
H	-1.619091	0.827073	1.102046
H	-0.1173	0.613517	2.056091
H	-0.233445	1.931191	0.866175
N	-0.373656	-1.442856	0.360388
O	-0.231262	-1.775678	1.531325
O	-0.751702	-2.181407	-0.542617
N	-0.003894	-0.343185	-2.487142
H	-0.211911	0.183845	-3.325923
H	-0.478233	-1.233162	-2.560029
Br	-4.020234	0.0	0.0
