16

C	0.0	0.0	0.0
C	-0.405422	0.0921	-1.490666
Cl	1.78367	0.0	0.0
H	-0.101382	1.09892	-1.80194
H	0.225817	-0.613497	-2.033695
C	-0.59981	1.057769	0.881299
H	-1.689135	0.937891	0.86997
H	-0.243404	0.971732	1.906015
H	-0.337935	2.039669	0.48271
N	-0.362001	-1.384409	0.54007
O	-0.362067	-2.31267	-0.263411
O	-0.57347	-1.486006	1.743089
N	-1.771406	-0.141573	-1.853507
H	-2.034746	-1.099832	-1.668299
H	-2.453474	0.420306	-1.352452
Br	-4.533943	0.0	0.0
