16

C	0.0	0.0	0.0
C	-0.558441	-0.263909	-1.390896
Cl	1.771857	0.0	0.0
H	-0.309101	0.631618	-1.969107
H	-1.649939	-0.292826	-1.265533
C	-0.546696	1.290464	0.561736
H	-0.252092	2.112567	-0.093743
H	-0.157169	1.468765	1.562429
H	-1.63899	1.210244	0.588018
N	-0.383794	-1.13092	0.960095
O	-0.761606	-2.192992	0.477841
O	-0.248122	-0.908615	2.157494
N	0.013122	-1.419121	-2.078157
H	-0.198458	-1.328055	-3.063645
H	-0.462372	-2.244606	-1.740438
Br	-4.005605	0.0	0.0
