14

C	-0.571247	-0.029391	-1.409636
C	0.0	0.0	0.0
Br	0.249503	1.325314	-2.506544
H	1.089843	0.0	0.0
H	-1.644198	0.144368	-1.424557
N	-0.352174	-1.371392	-2.057875
O	0.510569	-2.104112	-1.588623
O	-1.069445	-1.607802	-3.025517
C	-0.550289	-1.085255	0.804645
N	-1.013795	-1.931261	1.476077
N	-0.473725	1.284271	0.659167
O	-1.585239	1.706495	0.341438
O	0.269526	1.775084	1.493409
Cl	3.175324	0.0	0.0
