14

C	-0.571906	-0.24733	-1.386834
C	0.0	0.0	0.0
Br	-2.492799	-0.445936	-1.371982
H	1.107552	0.0	0.0
H	-0.15032	-1.182317	-1.758156
N	-0.131655	0.79829	-2.410613
O	1.081727	0.891012	-2.506822
O	-0.973662	1.389414	-3.0676
C	-0.405215	-1.075259	0.894496
N	-0.7024	-1.98808	1.571828
N	-0.431916	1.318486	0.567039
O	-0.584843	2.232777	-0.237658
O	-0.534299	1.403133	1.784585
Cl	3.115385	0.0	0.0
