15
Coordinates from ORCA-job run
  C   0.79049370542570      0.22225727556299     -0.47291839982968
  C   -0.62647328243365      0.39652393261563      0.04925537064891
  F   0.77687241452581     -0.66242186631593     -1.53364423404989
  H   -0.68825491632433      1.23238266540157      0.74668187505829
  H   1.10025157547688      1.19286603333289     -0.86703547977222
  C   1.73339808210121     -0.27889604877245      0.59622311653754
  H   1.72459581254175      0.37436724180834      1.47152659918167
  H   1.45579208879981     -1.28866152718746      0.90214064159570
  H   2.74622083114008     -0.31039489890474      0.19394222240673
  N   -1.09510658554389     -0.81343787131791      0.78380883510072
  O   -1.14557829167151     -1.86364049315178      0.15569713310592
  O   -1.33789857842421     -0.65146454631958      1.97904277230143
  N   -1.58193663689634      0.71517069136900     -1.07425802742736
  O   -1.19077425963501      1.59242097619782     -1.83356061229177
  O   -2.66060195908232      0.14192843568162     -1.09590181256599
