15
Coordinates from ORCA-job run
  C   0.89329757511406     -0.00151220855976     -0.56704938054477
  C   -0.63227472216651     -0.04241574435438     -0.63968403087610
  F   1.34086666439080     -1.07459625299572     -1.32709643267333
  H   -0.96822132112507     -0.37748601517340     -1.61969545530166
  H   1.21679783839108      0.91290541791150     -1.06938582178997
  C   1.47136886030076     -0.10061650954481      0.82217395394242
  H   2.55661912629931     -0.01394551528552      0.76097984488113
  H   1.23076247744639     -1.06992928398737      1.26218906707247
  H   1.08662168976103      0.69384948357161      1.46050752021135
  N   -1.27189971651036      1.28348086355461     -0.37606753959989
  O   -0.58080566540654      2.17345808056526      0.11145612004026
  O   -2.46076426246167      1.35399195533814     -0.66842744561315
  N   -1.18496091689948     -1.00545754944281      0.36909426309829
  O   -1.16216605823666     -2.18213550624625      0.02938271397102
  O   -1.53424156889714     -0.54959121535112      1.45162262318194
