15
Coordinates from ORCA-job run
  C   0.75127817044763     -0.56133729074096      0.13496315326216
  C   -0.57190083953604     -0.10918251645508     -0.46151632225107
  F   0.52764093661791     -1.08771873125876      1.39218807639532
  H   -0.47169324843584      0.09931050957404     -1.52684877983907
  H   1.11133523538206     -1.37792362776376     -0.49550285427287
  C   1.75464616063767      0.56499032661327      0.22217513141981
  H   1.91425063104179      1.02971304496196     -0.75348990514512
  H   2.70606297032054      0.17051973276296      0.57973215625863
  H   1.41157177398462      1.32227127494875      0.92837633903415
  N   -1.08251483995598      1.13791225489573      0.17582053862789
  O   -1.26530949280008      2.09045434312200     -0.58139765810114
  O   -1.23686564169186      1.12154229438966      1.39100783998758
  N   -1.60698232178537     -1.20069096995547     -0.34168270170982
  O   -1.23487331913003     -2.28750604077531     -0.76523709516769
  O   -2.70864617509702     -0.91435460431904      0.10141208150122
