15
Coordinates from ORCA-job run
  C   0.82989385396889      0.21314110935079     -0.34685542190651
  C   -0.63013765404999      0.32075809039735      0.05940594597033
  F   0.92308040834520     -0.70167647617856     -1.37994200836297
  H   -0.76416966176997      0.88870826610571      0.97978031080890
  H   1.13057879681706      1.18658029872148     -0.74207818039997
  C   1.72851319878143     -0.22461548249563      0.78703003187344
  H   1.67234022975146      0.47333278078441      1.62490059558482
  H   1.45382665040562     -1.21824367431089      1.13997688468543
  H   2.75728509176895     -0.25326199638498      0.42628873788697
  N   -1.20046460687762     -1.04538956236747      0.30233501386157
  O   -1.70823797108740     -1.62426723179739     -0.64726039315621
  O   -1.05080717312942     -1.47216359832075      1.44371664397104
  N   -1.49614953240988      0.98468575517271     -0.97692840088708
  O   -2.67849829747805      1.07783519598661     -0.66727061954145
  O   -0.96705333303629      1.39457652533661     -2.00309914038832
