15
Coordinates from ORCA-job run
  C   0.71627840828921     -0.05308080770969     -0.77654170320246
  C   -0.77622871502540      0.01254489389424     -0.45662930630598
  F   0.87759835137518     -1.14108695736799     -1.62500185373296
  H   -1.37396694968058     -0.28165493118053     -1.31788697521786
  H   0.96542028208084      0.84544170983811     -1.34551002930396
  C   1.62127541210594     -0.21618677764852      0.41863624529244
  H   1.47084248103540      0.59242179430744      1.13293016996844
  H   2.65812406197574     -0.20471742041075      0.08122075717753
  H   1.43185698444654     -1.17356363897690      0.90710282860673
  N   -1.23155011790901      1.37465057597476     -0.03933503932136
  O   -2.44752093773779      1.53192739099282     -0.01809439586499
  O   -0.37748934839587      2.20619280002635      0.25460356567827
  N   -1.11993100762616     -0.92743480052399      0.66064610050613
  O   -1.14885738895003     -0.46735272183921      1.79609413286079
  O   -1.26685151598401     -2.09710110937614      0.32776550285923
