16

C	-0.573175	0.004827	-1.415402
C	0.0	0.0	0.0
F	-1.935995	-0.087472	-1.367208
H	1.089735	0.0	0.0
C	-0.184368	1.107644	-2.293369
N	0.082329	1.993789	-3.016662
N	-0.090158	-1.293133	-2.094826
O	-0.815054	-2.271121	-1.960181
O	0.976599	-1.232549	-2.68484
N	-0.435809	-1.115343	0.76084
H	0.325997	-1.753061	0.932934
H	-1.249798	-1.584128	0.394404
N	-0.429808	1.287138	0.696269
O	-0.177425	1.358485	1.888074
O	-0.970905	2.166447	0.022792
Cl	3.177633	0.0	0.0
