16

C	-0.569576	0.013343	-1.413654
C	0.0	0.0	0.0
F	-0.045197	-1.036499	-2.101209
H	1.090137	0.0	0.0
C	-2.03448	-0.107151	-1.411365
N	-3.192527	-0.284426	-1.339765
N	-0.177426	1.238703	-2.232538
O	0.867925	1.789442	-1.93205
O	-0.912618	1.495758	-3.182547
N	-0.416043	-1.195768	0.649816
H	0.276676	-1.468615	1.336237
H	-1.333255	-1.124734	1.076057
N	-0.467206	1.239871	0.732099
O	-1.092896	2.094463	0.098246
O	-0.214945	1.289854	1.928819
Cl	3.214106	0.0	0.0
