16

C	-0.481416	0.01109	-1.447747
C	0.0	0.0	0.0
F	0.256023	0.79146	-2.25277
H	1.094186	0.0	0.0
C	-0.53073	-1.351726	-1.999373
N	-0.566975	-2.399416	-2.52902
N	-1.938616	0.525215	-1.530373
O	-2.23952	1.219333	-2.485079
O	-2.676423	0.143945	-0.628026
N	-0.435925	-1.141161	0.71283
H	-1.36822	-1.031847	1.085734
H	0.223486	-1.353431	1.44814
N	-0.392843	1.318769	0.646928
O	-0.527591	1.3176	1.865678
O	-0.508076	2.298881	-0.086086
Cl	3.169834	0.0	0.0
