16

C	-0.526473	0.17367	-1.417525
C	0.0	0.0	0.0
F	-1.878873	-0.062144	-1.479813
H	1.108452	0.0	0.0
C	-0.219639	1.453528	-2.056878
N	0.025357	2.453881	-2.621751
N	0.058942	-0.914789	-2.346444
O	-0.297716	-0.812399	-3.517533
O	0.751863	-1.796946	-1.863764
N	-0.47058	-1.1718	0.658226
H	0.24577	-1.882133	0.6436
H	-1.342214	-1.516866	0.282101
N	-0.43922	1.200497	0.820713
O	0.046649	1.289655	1.938229
O	-1.273586	1.97321	0.336169
Cl	3.204041	0.0	0.0
