16

C	-0.635522	0.06563	-1.384208
C	0.0	0.0	0.0
F	-1.974821	0.311357	-1.258596
H	1.092555	0.0	0.0
C	-0.0663	1.000807	-2.354227
N	0.288463	1.709278	-3.221491
N	-0.496147	-1.336541	-1.998421
O	0.640904	-1.644684	-2.315695
O	-1.516798	-1.99699	-2.105104
N	-0.443419	-1.15833	0.684855
H	0.253493	-1.431162	1.363549
H	-1.336144	-1.025248	1.139589
N	-0.38473	1.302546	0.697341
O	-0.276054	2.335981	0.043421
O	-0.744631	1.232043	1.869345
Cl	3.172671	0.0	0.0
