14
Coordinates from ORCA-job run
  C   -0.39556327162304      0.18548818607602     -0.44878844613798
  C   0.75567845703822     -0.78281620052040     -0.71433596298691
  H   -0.88887859809554      0.40702532209771     -1.40144816823859
  H   0.38905690649605     -1.69068819166100     -1.19356955653450
  H   1.46243884390851     -0.30084531732811     -1.39615043494759
  C   0.02852463527849      1.46345841901903      0.24643627989756
  H   0.80210568072695      1.95589332903193     -0.34723658542179
  H   0.43357013723011      1.24780996786725      1.23655086477552
  H   -0.81354910332618      2.14307015630983      0.35780808489759
  N   -1.46879327655298     -0.52339938099408      0.35605766155786
  O   -1.56127744943788     -1.74077764567021      0.22203532951509
  O   -2.20651726503689      0.17572232135847      1.04255296658672
  C   1.45394679496724     -1.13965520542232      0.51968905358708
  N   2.00825750842696     -1.40028576016410      1.52039891344995
