14
Coordinates from ORCA-job run
  C   -0.24661654512568      0.12817035761575     -0.33624332835619
  C   1.11593866668566     -0.46898102476295     -0.00285897266299
  H   -0.54472570465273     -0.12158501810248     -1.35530982904370
  H   1.87842847841706      0.03515262387860     -0.60377480085834
  H   1.34437656545368     -0.29561449337980      1.05060838289795
  C   -0.29652780633054      1.62803520943070     -0.09644640312836
  H   0.41464114807737      2.13412954152139     -0.75222821059046
  H   -1.29510352318237      2.01303522901248     -0.31041208751904
  H   -0.04408772392837      1.85430490731523      0.94150746894898
  N   -1.29498827581232     -0.50993689343616      0.53371457589322
  O   -1.00573466442134     -0.69810572707469      1.71284356825434
  O   -2.38099934152441     -0.74169314652524      0.01009944559691
  C   1.16606938268545     -1.90405819289804     -0.27705263159402
  N   1.18832934365852     -3.05285337259479     -0.51444717783830
