14
Coordinates from ORCA-job run
  C   -0.38666723932769     -0.05513148175849     -0.28329200220910
  C   0.74043641641883     -0.96978760138326      0.20005809989584
  H   -0.64402068039755     -0.27342561990034     -1.32050080813033
  H   0.94774251843605     -0.77076299578621      1.25382446470975
  H   0.44206543026580     -2.01893134554516      0.11433077500897
  C   -0.09181617771093      1.42125264777964     -0.08556214229025
  H   0.77764889806894      1.70879224044395     -0.67901515228445
  H   0.11210322800313      1.62730451622036      0.96698394437159
  H   -0.94347996649691      2.02357755542794     -0.40714168654112
  N   -1.62330916695102     -0.39564063824230      0.49816923698221
  O   -2.67107834192787     -0.50690022462537     -0.13275446673055
  O   -1.50107294108277     -0.49987417214609      1.71692120759395
  C   1.94507431546124     -0.74710433760054     -0.59472884811236
  N   2.89837370724077     -0.54436854288413     -1.24829262226415
