15

C	0.0	0.0	0.0
C	-0.495361	0.015063	-1.43676
F	1.360914	0.0	0.0
H	-1.58519	0.095411	-1.323791
H	-0.247568	-1.001216	-1.800497
N	-0.283696	1.367402	0.689332
O	-1.069227	1.421763	1.62296
O	0.381346	2.3135	0.267873
N	-0.589862	-0.987205	0.806665
H	-1.625648	-0.719652	0.698151
H	-0.474697	-1.868744	0.314737
N	0.061002	1.078399	-2.270184
H	1.072858	1.036728	-2.235441
H	-0.224811	0.911783	-3.227962
F	-2.861335	0.0	0.0
