15

C	0.0	0.0	0.0
C	-0.491997	-0.180565	-1.446752
F	1.401593	0.0	0.0
H	-1.155685	0.650327	-1.674757
H	0.382131	-0.139943	-2.103633
N	-0.285875	1.450862	0.434073
O	-0.040516	2.311294	-0.412931
O	-0.629408	1.678789	1.584124
N	-0.50601	-0.861711	0.979423
H	-1.525358	-0.622448	0.931805
H	-0.436757	-1.785747	0.559129
N	-1.180963	-1.469858	-1.553571
H	-1.376411	-1.632319	-2.535583
H	-2.069042	-1.241781	-1.07894
F	-2.781228	0.0	0.0
