15

C	0.0	0.0	0.0
C	-0.536815	0.059071	-1.408425
F	1.359031	0.0	0.0
H	-0.362654	-0.937325	-1.843595
H	-1.617308	0.20385	-1.275755
N	-0.166731	1.532527	0.582603
O	0.86097	2.151816	0.863944
O	-1.296639	1.963398	0.747905
N	-0.68624	-0.911836	0.769104
H	-0.45512	-0.805513	1.750599
H	-1.740291	-0.650225	0.566344
N	0.074561	1.161982	-2.147943
H	1.024578	0.925706	-2.404565
H	-0.453041	1.315977	-2.996646
F	-2.968371	0.0	0.0
