15

C	0.0	0.0	0.0
C	-0.424657	-0.191956	-1.456425
F	1.395043	0.0	0.0
H	-1.502225	-0.016301	-1.451792
H	-0.258192	-1.259746	-1.649018
N	-0.325235	1.428216	0.479361
O	-0.106638	1.673305	1.660033
O	-0.6922	2.259612	-0.34882
N	-0.570302	-0.879118	0.928472
H	-1.613403	-0.659133	0.747363
H	-0.402054	-1.819044	0.583891
N	0.27431	0.57654	-2.483611
H	1.267584	0.541821	-2.28595
H	-0.01204	1.539939	-2.374584
F	-2.779635	0.0	0.0
