14
Coordinates from ORCA-job run
  C   0.81794926721604     -0.59500330552282     -0.12994831134457
  C   -0.56358601252739      0.00046919480867      0.06289698029615
  H   1.44325036134660     -0.39540077815216      0.73895680834716
  H   -1.21218785413635     -0.26132046105616     -0.78318394490460
  H   0.78694433372784     -1.66367899014980     -0.33797837139722
  N   1.49633825099413      0.04593988646442     -1.29778530482623
  O   2.71544033533033     -0.05839185900951     -1.34251698853998
  O   0.78941868530257      0.58663904347293     -2.14861625908715
  N   -0.47037567387665      1.40433576384287      0.36199037408730
  H   -1.31231897528474      1.70775313193478      0.83510945272756
  H   -0.38062471639073      1.91443570404964     -0.50739955573670
  N   -1.19896270221142     -0.71188107203372      1.24024204645778
  O   -1.91235545569878     -0.05168740401854      1.98663366261889
  O   -0.99992984379145     -1.92020885463060      1.32159941130160
