17

C	-0.680691	-0.071821	-1.501311
C	0.092473	-0.094173	-0.17284
F	-2.077068	-0.05045	-1.19756
H	1.148508	-0.238746	-0.421042
N	-0.293429	1.05464	-2.250452
H	-0.975453	1.274557	-2.964212
H	-0.192685	1.804213	-1.562807
C	-0.50459	-1.311989	-2.289703
N	-0.361876	-2.303693	-2.902054
C	-0.353644	-1.236457	0.730899
H	0.27892	-1.208965	1.619809
H	-0.253324	-2.215551	0.249496
H	-1.397604	-1.101408	1.027311
N	-0.003349	1.223211	0.424475
H	0.889231	1.315717	1.009049
H	-0.789097	1.234569	1.068815
H	2.220092	1.082096	1.75132
