17

C	-0.598922	0.017182	-1.586649
C	0.140875	-0.062791	-0.256444
F	-0.231122	-1.115459	-2.371897
H	1.193785	-0.225837	-0.499375
N	-2.00978	0.066841	-1.424114
H	-2.46964	0.08331	-2.326258
H	-2.311839	-0.748909	-0.907025
C	-0.172173	1.187827	-2.382376
N	0.136088	2.047759	-3.119267
C	-0.322274	-1.248493	0.591167
H	-1.331391	-1.081146	0.986576
H	-0.295531	-2.19694	0.042883
H	0.364752	-1.282262	1.441036
N	0.069215	1.220643	0.408488
H	-0.832438	1.29217	0.871891
H	0.79962	1.149868	1.159485
H	1.978247	0.449283	2.188252
