17

C	-0.748576	-0.014478	-1.509709
C	0.078728	-0.084758	-0.224681
F	-0.674907	-1.237563	-2.179917
H	1.142734	-0.158967	-0.495776
N	-2.154626	0.275288	-1.331488
H	-2.521889	-0.414822	-0.682997
H	-2.190284	1.176479	-0.86347
C	-0.187511	1.008862	-2.422404
N	0.257185	1.775169	-3.191694
C	-0.262306	-1.308605	0.6205
H	-1.287387	-1.254386	1.008556
H	0.422346	-1.291785	1.470917
H	-0.144705	-2.246895	0.071701
N	-0.088338	1.182919	0.465538
H	-0.780629	1.055082	1.200325
H	0.833415	1.302943	0.984834
H	2.214926	0.949166	1.676967
