12

C	-0.363476	0.024788	-1.452782
C	0.0	0.0	0.0
Cl	-2.155131	-0.000342	-1.771763
H	1.092731	0.0	0.0
H	0.000669	0.95375	-1.890035
H	-0.405256	-0.854839	0.537216
C	0.227821	-1.113857	-2.14982
N	0.653349	-2.033082	-2.742955
N	-0.4639	1.211473	0.673634
O	-0.472667	2.268193	0.036714
O	-0.762643	1.121456	1.866
F	2.494423	0.0	0.0
