12

C	-0.566184	0.059553	-1.402779
C	0.0	0.0	0.0
Cl	0.49975	-0.72141	-2.619124
H	1.087926	0.0	0.0
H	-1.513597	-0.478481	-1.472161
H	-0.320626	0.850793	0.602813
C	-0.790413	1.447613	-1.802184
N	-1.014945	2.559267	-2.10783
N	-0.468809	-1.199432	0.696819
O	-0.408048	-1.192036	1.926984
O	-0.851904	-2.168024	0.030291
F	2.494921	0.0	0.0
