12

C	-0.261939	-0.05911	-1.496813
C	0.0	0.0	0.0
Cl	-1.888351	0.522325	-2.0591
H	1.090656	0.0	0.0
H	0.469743	0.62441	-1.929235
H	-0.402881	0.911222	0.439569
C	-0.032792	-1.386666	-2.055891
N	0.146527	-2.436801	-2.547648
N	-0.589135	-1.153947	0.715326
O	0.069664	-1.619185	1.656657
O	-1.690114	-1.581131	0.358022
F	2.538132	0.0	0.0
