12

C	-0.357584	0.029802	-1.45443
C	0.0	0.0	0.0
Cl	-2.147187	0.012406	-1.782548
H	1.092613	0.0	0.0
H	0.012624	0.958116	-1.887744
H	-0.40696	-0.856238	0.533316
C	0.233214	-1.109246	-2.151093
N	0.667949	-2.02247	-2.746507
N	-0.464237	1.210314	0.675452
O	-0.469468	2.268923	0.041152
O	-0.7674	1.117645	1.866735
F	2.495022	0.0	0.0
