11
Coordinates from ORCA-job run
  C   -0.45427767122938      0.32976280815887     -0.08344467504247
  C   0.69147457424196     -0.40644887200257     -0.06892130959204
  N   -1.43122448988594      0.28074880345120      1.02684970731079
  O   -1.40841750102364     -0.71070122804179      1.74429124555385
  O   -2.17171649379150      1.25555631808174      1.11335673150316
  C   -0.76209033206913      1.23001056622472     -1.14022745808480
  N   -0.96932061682944      1.98424152826535     -2.02264212791418
  C   1.08329239713460     -1.30126451590502      0.97482276293933
  N   1.54020820289873     -2.04826210845220      1.76543615891165
  C   1.58689380002017     -0.31734721547020     -1.18326839681101
  N   2.29517813053355     -0.29629608431009     -2.12625263877429
