11
Coordinates from ORCA-job run
  C   -0.43916655804412      0.32814993211330     -0.13572026267737
  C   0.65396855169261     -0.48272048110273     -0.05749311035348
  N   -1.36893944484270      0.47367577449333      1.00686383138219
  O   -1.86086775360218      1.58824982793311      1.13718759788603
  O   -1.53172179007107     -0.51119605242258      1.71497188488115
  C   -0.71355830249639      1.14257392331911     -1.26545744116722
  N   -0.92940166996107      1.80435757501051     -2.21735777839331
  C   1.55199796186888     -0.54385820220074     -1.16817341839071
  N   2.29444847930515     -0.59113368454092     -2.08217628263288
  C   0.98253453301801     -1.27302613377831      1.08518114379173
  N   1.36070599313287     -1.93707247882408      1.98217383567386
