11
Coordinates from ORCA-job run
  C   -0.44544924166994      0.33435383216277     -0.10472527060980
  C   0.67551115197934     -0.43890727070175     -0.09934377175195
  N   -1.37112958708115      0.34506322429951      1.05297419329087
  O   -1.92240948968843      1.41875481352019      1.26699602250009
  O   -1.48281207073610     -0.69776699520310      1.68374453167838
  C   -0.78472823641490      1.21229099812573     -1.16486822799057
  N   -1.07804620924923      1.94022739069672     -2.04449971649936
  C   1.56579281129745     -0.39144443271089     -1.21830862583677
  N   2.31847187940139     -0.36734783307802     -2.12565569103463
  C   1.05206513201391     -1.30800452777530      0.96879839765930
  N   1.47373386014765     -2.04621919933586      1.78488815859443
