11
Coordinates from ORCA-job run
  C   -0.35011400426817      0.42341474605581      0.08555123635349
  C   0.66984727377320     -0.47741111041206      0.02197442744582
  N   -1.70389431104802      0.08816108168611     -0.40991387262191
  O   -2.30130304010515      1.01046245097251     -0.95255646128061
  O   -2.09282344810184     -1.05860584025327     -0.23055101270237
  C   -0.19613543626260      1.74615822338598      0.57415561894491
  N   -0.07206683586366      2.83677057192960      1.00566587405048
  C   0.52630510216880     -1.80544352354598     -0.48172565062405
  N   0.49983701685450     -2.90608686263182     -0.90097111429185
  C   1.97270917059027     -0.08817144210282      0.46288728671944
  N   3.04763851226264      0.23175170491596      0.82448366800667
