11
Coordinates from ORCA-job run
  C   -0.39022705882654      0.38206039433578      0.09668817855590
  C   0.72190676938560     -0.38946313994435     -0.04388730499930
  N   -1.71770159934026     -0.12968656128630     -0.28716801315076
  O   -2.25085359865304      0.44050722845282     -1.22810085168603
  O   -2.14889322486334     -1.04828366418122      0.40248162235736
  C   -0.35188068641675      1.70592178335662      0.60399883911835
  N   -0.22472485556486      2.79156368368860      1.04684109829120
  C   0.66839536311419     -1.71460202540087     -0.56967807544693
  N   0.68573757124577     -2.80427019045474     -1.02155154541848
  C   1.99152609607714      0.14861752906151      0.32717721565156
  N   3.01671522384209      0.61763496237217      0.67219883672713
