11
Coordinates from ORCA-job run
  C   -0.37721790068121      0.40174592513136      0.15263598054587
  C   0.74680794042672     -0.34062636394251     -0.03198177998521
  N   -1.68646042357675     -0.14784470206185     -0.27090960046874
  O   -2.24911855857126      0.51374311750377     -1.13290157952953
  O   -2.05223103662588     -1.18867700789435      0.25513827359559
  C   -0.41815307588813      1.70694056804952      0.70201934935142
  N   -0.49216040445971      2.80579674024719      1.13004820838772
  C   0.68199040191270     -1.65214682054370     -0.59841952468995
  N   0.64765670415754     -2.73282664707428     -1.06866435013322
  C   2.04372291798775      0.15295450625891      0.30936101963863
  N   3.15516343531822      0.47994068432593      0.55567400328742
