11
Coordinates from ORCA-job run
  C   -0.42437359972164      0.35072010766080     -0.13559366454610
  C   0.65125130440892     -0.48300950913705     -0.08427855848317
  N   -1.39259783887780      0.39314062803041      0.97928154347756
  O   -1.75382560005379     -0.68112793469458      1.44258233947956
  O   -1.72312309206265      1.51982628861441      1.33300676775648
  C   -0.65782895869217      1.25602171322131     -1.20151033034291
  N   -0.81429294658736      1.96697056149556     -2.13049072476382
  C   0.89941352131510     -1.36520888242108      1.01040331708814
  N   1.15492173763385     -2.09358850279723      1.89976142885219
  C   1.62149177411905     -0.45014709122930     -1.13333947215229
  N   2.43896369851851     -0.41259737874326     -1.98082264636563
