11
Coordinates from ORCA-job run
  C   -0.44742355641076      0.33507237175790     -0.07010923682288
  C   0.66854561178785     -0.44725126460534     -0.10771062494641
  N   -1.36507887014891      0.35153130566807      1.09771850233805
  O   -1.19191635260505     -0.50211170462018      1.95575868590387
  O   -2.20733470149686      1.24278605482871      1.08821509862453
  C   -0.79366112389611      1.21996399280276     -1.12469538590005
  N   -1.05313042057140      1.95676550755948     -2.00813640128228
  C   1.51542678864655     -0.37981942764421     -1.25953613407611
  N   2.22557713453872     -0.34398186723234     -2.19980905472634
  C   1.09087443472430     -1.33766764525122      0.92676770774916
  N   1.55712105543167     -2.09428732326361      1.70053684313844
