11
Coordinates from ORCA-job run
  C   -0.43013612992280      0.34853123966822     -0.09766680058287
  C   0.66956132499645     -0.45485097336109     -0.11135059727672
  N   -1.35404516902542      0.35008730634280      1.06012833774356
  O   -1.55451886637613     -0.72507268582300      1.60982362024946
  O   -1.81223531969620      1.44647565825393      1.35918655232878
  C   -0.74193490383671      1.26610472005641     -1.13097434618865
  N   -1.00142269393342      2.01482803496494     -2.00423523959688
  C   1.00332618978522     -1.36257969892139      0.93559373357941
  N   1.37006562638804     -2.11874811397487      1.76149637290570
  C   1.55913952689953     -0.39923454997762     -1.22996562221744
  N   2.29320041472143     -0.36554093722833     -2.15103601094436
