11
Coordinates from ORCA-job run
  C   -0.37474648674718      0.38346252886994      0.16632512015075
  C   0.70223630780865     -0.40832245788364     -0.09567179151427
  N   -1.74722493559087     -0.05960648280466     -0.16896461347507
  O   -2.49598692475346      0.82647892987120     -0.56496542887631
  O   -1.99673613539180     -1.24956135083643     -0.02641709305659
  C   -0.26921158741208      1.68713731745198      0.71466287811704
  N   -0.16726872684678      2.76327655662112      1.18592800826886
  C   2.01452506610280      0.07414457822418      0.20309936673466
  N   3.09875102947599      0.46537648885886      0.44879941875789
  C   0.60937989322013     -1.70780054515832     -0.68142704467222
  N   0.62728250013461     -2.77458556321423     -1.18136882043474
