11
Coordinates from ORCA-job run
  C   -0.38972570569873      0.35818470903582      0.18411746246929
  C   0.72241225739556     -0.36061972935038     -0.13481401378620
  N   -1.74544003406312     -0.17594731207513     -0.07840741742548
  O   -2.57192483350323      0.65769076527748     -0.43197427746939
  O   -1.90704687754754     -1.37963010664132      0.07500656225715
  C   -0.34335717962409      1.66707241049122      0.72836260451925
  N   -0.29191947581340      2.74571585612923      1.20219155383033
  C   2.01288464673082      0.20990719626302      0.09680817592567
  N   3.07936193891260      0.67204256908321      0.29154386383694
  C   0.68662328515204     -1.66455989832628     -0.71651118585252
  N   0.74813197805910     -2.72985645988688     -1.21632332830504
