11
Coordinates from ORCA-job run
  C   -0.42354216570041      0.35699256085531     -0.08453551425509
  C   0.67711719490121     -0.44795915634556     -0.05399530786867
  N   -1.42094306252277      0.38548426016767      1.01549965676887
  O   -2.36095086241558      1.15566839586901      0.84998450609271
  O   -1.21932308064618     -0.34960588333197      1.97173724588684
  C   -0.69756650329220      1.22616206696893     -1.17325874801060
  N   -0.89853431691416      1.93592442392977     -2.09310551437151
  C   1.01844931136738     -1.34700717232066      1.00269595252316
  N   1.41178815481689     -2.12234032377105      1.79798814019523
  C   1.58173405054909     -0.40853584869063     -1.16244438524900
  N   2.33277127985674     -0.38478332333082     -2.07056603171194
