11
Coordinates from ORCA-job run
  C   -0.42410503249464      0.35148919985535     -0.10346832803868
  C   0.67801206854265     -0.44827116717369     -0.02822396482477
  N   -1.44142915481381      0.41026446050121      0.97676805766884
  O   -2.37749543934800      1.17613823211418      0.77312691303423
  O   -1.25829941285218     -0.29885152076570      1.95627206613434
  C   -0.67846311967545      1.18817102749140     -1.22203142149503
  N   -0.85888881914315      1.87169879759516     -2.16562430300106
  C   1.00150247404790     -1.31546064396770      1.06024737423327
  N   1.38355552788976     -2.06583657702455      1.88452993510556
  C   1.60419791192438     -0.43636399421599     -1.11933410965551
  N   2.37241299592254     -0.43297781440967     -2.01326221916119
