11
Coordinates from ORCA-job run
  C   -0.47790242772850      0.26127080253678     -0.13641975403133
  C   0.77270445648172     -0.26677208966224     -0.02428919327279
  N   -1.42525852852783      0.22744773385075      1.00099835990707
  O   -2.59777828929685      0.04440354606796      0.69389148658528
  O   -0.95392361112594      0.37721917146547      2.12077864521325
  C   -0.98333423699896      0.82026594820550     -1.33773486270141
  N   -1.38556818277193      1.29771613609501     -2.33810111276730
  C   1.64136180755813     -0.25459136323574     -1.15991949472291
  N   2.36342698643515     -0.24611068101664     -2.09132087837000
  C   1.27873620587523     -0.86524694223542      1.16993793179876
  N   1.76653582009977     -1.39560226207141      2.10217887236139
