11
Coordinates from ORCA-job run
  C   -0.36919190743876      0.39806873743545      0.14920543693181
  C   0.70390697534121     -0.38167625871728     -0.15851385198483
  N   -1.73905828928260     -0.00139492226102     -0.24557402225193
  O   -2.61230492129532      0.26700808421451      0.57192202148522
  O   -1.86555523522706     -0.55819955082639     -1.32832819481492
  C   -0.27293119745313      1.59321804159330      0.90637091938111
  N   -0.17242722236446      2.59041835856487      1.52734199174194
  C   2.00583729170084      0.01114611343122      0.28241152660407
  N   3.08343459877260      0.32517174021009      0.64227108625168
  C   0.61296034780517     -1.60688026719406     -0.88701384931887
  N   0.62632955944150     -2.63688007645069     -1.45909306402530
