11
Coordinates from ORCA-job run
  C   -0.38220225144718      0.37691157474954      0.16635832288912
  C   0.70212104589333     -0.41326005747761     -0.06854474868496
  N   -1.72855982259603     -0.01430955377975     -0.30944027908856
  O   -2.43066008877858      0.91252082397915     -0.69764353776183
  O   -2.00450628028865     -1.20641040351754     -0.27580477517280
  C   -0.30407599914427      1.63458933777359      0.81707498493106
  N   -0.22905414081750      2.67286204941026      1.37108114976880
  C   1.99291979650145      0.02183229247948      0.36560975414934
  N   3.06154842322463      0.37146754241176      0.71843578935670
  C   0.63956563608069     -1.66387998886635     -0.75601248106479
  N   0.68290368137210     -2.69132361716252     -1.33111417932207
