11
Coordinates from ORCA-job run
  C   -0.46505270128412      0.28646415671613     -0.12954360105145
  C   0.76004485640636     -0.30080004958858     -0.03086666609416
  N   -1.41774229006117      0.25912778222645      1.00383352243606
  O   -2.59612138349086      0.13951597464616      0.68797982664078
  O   -0.94466556145371      0.35247374689139      2.12901960736262
  C   -0.93982367670542      0.90669770116323     -1.31313430613113
  N   -1.31602740476076      1.43341663670241     -2.29875639018418
  C   1.63481164416819     -0.28842170606952     -1.16181149619398
  N   2.36237738833043     -0.27729421729389     -2.08892798389700
  C   1.23138809322252     -0.96278750864192      1.14399898082287
  N   1.68981103562854     -1.54639251675185      2.05920850628957
