11
Coordinates from ORCA-job run
  C   -0.46049179486597      0.29470607315205     -0.12663324861563
  C   0.71861973144784     -0.38492422078551     -0.06968821876898
  N   -1.44069968964760      0.21617552886306      0.98056769640957
  O   -1.55061946701182     -0.86217076041414      1.54944636895034
  O   -2.04205314850662      1.25821115126087      1.21534444824319
  C   -0.81362288577059      1.15645797959340     -1.19614196215320
  N   -1.10455207516504      1.85533653728629     -2.10028221769948
  C   1.65786217205003     -0.24679166967268     -1.13882196951301
  N   2.43591937458633     -0.13931810643779     -2.01747289530929
  C   1.09881893579380     -1.22641756626235      1.02006365135293
  N   1.49981884708965     -1.91926494658320      1.88461834710356
