11
Coordinates from ORCA-job run
  C   -0.43454442247786      0.34415417003330     -0.09859194221496
  C   0.66351301662324     -0.46063946292711     -0.11242398259395
  N   -1.35800052892822      0.36429133345572      1.05673203149711
  O   -1.84494820554823      1.45955680107810      1.31019926280224
  O   -1.52883512324222     -0.69260457837689      1.65000601015713
  C   -0.74413312137721      1.25140495861436     -1.14484214353348
  N   -0.99738059573550      2.00618043868648     -2.01521964499515
  C   1.55369567455223     -0.41023772458317     -1.22891524578423
  N   2.29240959441651     -0.41557422753576     -2.14664256318670
  C   1.01379837696438     -1.34944613235330      0.94882943915580
  N   1.38442533475289     -2.09708557609172      1.78186877869618
