11
Coordinates from ORCA-job run
  C   -0.41327847651917      0.36283352671840     -0.11237794298559
  C   0.64582183398953     -0.49357685368009     -0.09058421794601
  N   -1.34636979710521      0.45157882652404      1.03401625888993
  O   -1.59929999513694     -0.58889707163356      1.62696905750629
  O   -1.76558587552413      1.57831380802765      1.27421087743356
  C   -0.67413734366322      1.25389350477756     -1.18401932310701
  N   -0.88891308135922      1.97498545025131     -2.09174898666698
  C   0.93486238645963     -1.37394201788667      0.99648343947577
  N   1.25947103723719     -2.11368089515048      1.85411429350513
  C   1.55114966663530     -0.51387972270294     -1.19716540592030
  N   2.29627964498624     -0.53662855524521     -2.10989805018479
