11
Coordinates from ORCA-job run
  C   -0.37726749382475      0.37338021954556      0.18151142142300
  C   0.70872051229128     -0.33843829389835     -0.22984473797228
  N   -1.75011417040057     -0.14293302972164     -0.02192576022751
  O   -2.53637193415737      0.10469250269846      0.88531159709001
  O   -1.96302404627670     -0.76212407738743     -1.05632096009247
  C   -0.28402168444232      1.60819657874962      0.87248063315691
  N   -0.19444130351187      2.64352727871010      1.42956899146934
  C   2.01856374814651      0.17503262786020      0.02474750949889
  N   3.10086171654262      0.59434389992003      0.22893097667703
  C   0.62651552156081     -1.60088140811886     -0.89308439146879
  N   0.65057913407235     -2.65379629835769     -1.42137527955413
