11
Coordinates from ORCA-job run
  C   -0.45376936100603      0.30689056093998     -0.12174163495295
  C   0.71091992242515     -0.39787935178982     -0.07489249289784
  N   -1.44502075811048      0.21679910268345      0.97431266689444
  O   -1.58125133155727     -0.87467335237245      1.51159769621855
  O   -2.02755341186885      1.26368774749446      1.23376966453185
  C   -0.77894029840527      1.20686751412529     -1.16854764246587
  N   -1.04623384253377      1.93755347570047     -2.05466173500906
  C   1.66196020625189     -0.24772035311541     -1.13190619711385
  N   2.45015688302780     -0.12946394923150     -2.00007625609389
  C   1.06455791154931     -1.27861407820644      0.99258065562431
  N   1.44617408022750     -2.00344731622801      1.83956527526431
