11
Coordinates from ORCA-job run
  C   -0.37161183124298      0.38341704339657      0.17309836004441
  C   0.70497412626731     -0.36612845756444     -0.19383351309295
  N   -1.75070190341405     -0.06285798723591     -0.12893717629116
  O   -2.57910819098151      0.19212407058814      0.73781751519504
  O   -1.92741715481656     -0.63920925818508     -1.19428883636040
  C   -0.26623026582964      1.59488206008193      0.90290344917132
  N   -0.16302834539262      2.61347571917940      1.48790895325707
  C   2.01816051218985      0.07718157863300      0.15738340190494
  N   3.10336251737391      0.43928229709636      0.44040650437488
  C   0.60904255704669     -1.60063418074142     -0.90597452842631
  N   0.62255797879958     -2.63153288524857     -1.47648412977684
