11
Coordinates from ORCA-job run
  C   -0.38652803086368      0.40156251223021     -0.06645108298915
  C   0.68406480055422     -0.44042944462822     -0.08547797441849
  N   -1.41187100179313      0.30860173243640      0.99818142645111
  O   -2.56163926333518      0.52161829135314      0.63062221664000
  O   -1.01973307267865      0.02716514133399      2.12314239762117
  C   -0.63260384081973      1.37358418001045     -1.06936980437851
  N   -0.81674390361010      2.19079520671140     -1.89924177496192
  C   1.62803153361490     -0.34759344264933     -1.15533877944391
  N   2.41330708009732     -0.27479186804924     -2.03103866839352
  C   0.92160619180906     -1.44635654173220      0.90042618811016
  N   1.18310950702498     -2.31315576701662      1.65454585576306
