11
Coordinates from ORCA-job run
  C   -0.37028523548488      0.41830863391559      0.05880832598925
  C   0.70482862009261     -0.40910206377760     -0.06391709795792
  N   -1.74007729429540     -0.06141704688799     -0.23397697880223
  O   -2.61450579758126      0.39096585656574      0.49649908772665
  O   -1.86504550458168     -0.85633055712060     -1.15650848196376
  C   -0.27542406074815      1.75681855393061      0.51757707075422
  N   -0.17888073081470      2.87245227298082      0.88679114537842
  C   2.00586549363715      0.08014134880573      0.27139550705266
  N   3.08190896044632      0.47697638209844      0.54258734608767
  C   0.61717757802548     -1.76815689747465     -0.49483807831545
  N   0.63543797130450     -2.89965648303609     -0.82341784594950
