11
Coordinates from ORCA-job run
  C   -0.36762645517688      0.41952051856849      0.06232806623347
  C   0.70305551345877     -0.41134854167895     -0.07457808519213
  N   -1.74314418401317     -0.05722069095945     -0.20789816267138
  O   -1.88449877738314     -0.85324050744976     -1.12701119068739
  O   -2.60495872298769      0.39929079113369      0.53473460653314
  C   -0.26245222292256      1.75866295878466      0.51717893261010
  N   -0.15919696341797      2.87641962023096      0.87848321879387
  C   2.01051186466790      0.07507159782184      0.23872919106912
  N   3.09145080655384      0.47139637426529      0.49064908890122
  C   0.60423611439267     -1.77215130025412     -0.49736792845881
  N   0.61262302682823     -2.90640082046264     -0.81624773713120
