11
Coordinates from ORCA-job run
  C   -0.36438404112356      0.39480810770187      0.16179503709946
  C   0.70032749490103     -0.38227912204426     -0.18184484903145
  N   -1.74720253889748     -0.01167733466590     -0.17745116873913
  O   -2.59142144634219      0.26569061624310      0.66685026475965
  O   -1.91095142008461     -0.58097330522855     -1.24867650353383
  C   -0.24468191388003      1.59698874068783      0.90454391894025
  N   -0.13024174801852      2.60359171332814      1.50792195775263
  C   2.01604410454743      0.02489472954100      0.20238584413268
  N   3.10372835281230      0.35371663740017      0.51514313527348
  C   0.58724410814062     -1.61472195221082     -0.89499339202793
  N   0.58253904794500     -2.65103883075260     -1.45567424462580
