11
Coordinates from ORCA-job run
  C   -0.37919840215198      0.40665178278507     -0.07751950971172
  C   0.69080381466661     -0.43557498709246     -0.04567844766112
  N   -1.50107650143112      0.25167103541166      0.87637217053571
  O   -2.61116121765518      0.49040211148473      0.41463982145518
  O   -1.21734053388965     -0.09941474356901      2.01424423018782
  C   -0.53135520804714      1.43849139713586     -1.03840833542508
  N   -0.63815311953791      2.30407888028838     -1.83198288604352
  C   1.73279388298729     -0.27966344702470     -1.01240765406707
  N   2.59637136664949     -0.15754498754199     -1.80508970674116
  C   0.83501374308105     -1.50186359713345      0.89384653774279
  N   1.02230217532854     -2.41623344474409      1.61298377972818
