11
Coordinates from ORCA-job run
  C   -0.38090226849105      0.33965204025291      0.23295542337928
  C   0.70814541036067     -0.28858912729335     -0.29117209602864
  N   -1.74340953694861     -0.20816040637253      0.04263885127670
  O   -2.49355287741698     -0.07612572013566      1.00311863526156
  O   -1.98434518889270     -0.73591465500848     -1.03519954992473
  C   -0.29742238236013      1.50874269874551      1.03133672133212
  N   -0.21367128928373      2.49161818416069      1.67744548482336
  C   2.01038452727046      0.24852090166642     -0.04639160804433
  N   3.08647216753243      0.68731079029348      0.14978963832594
  C   0.63722502115381     -1.48561447085716     -1.06737067081384
  N   0.67107641707582     -2.48144023545185     -1.69615082958742
