11
Coordinates from ORCA-job run
  C   -0.40293575677471      0.38731472130843      0.03512090172499
  C   0.73561247540352     -0.35302028509763     -0.06008489587211
  N   -1.73470799865770     -0.22315188931292     -0.17478433000656
  O   -2.62074937086549      0.20865071969476      0.55504235453683
  O   -1.82176924297698     -1.09084514722827     -1.03434087316557
  C   -0.41091773690408      1.76230321002748      0.38462394239624
  N   -0.39963470006203      2.90795550157608      0.66351978798924
  C   0.75365640902304     -1.74538161361061     -0.37678839230189
  N   0.86272389942773     -2.89498143808613     -0.60765532974537
  C   1.99795162449469      0.26805592721358      0.19764202457824
  N   3.04077039789202      0.77210029351522      0.41670480986595
