13

C	0.163511	-0.145753	-0.033827
C	-0.511265	-0.228543	-1.422806
F	1.286535	-1.026281	-0.14635
H	0.301639	-0.068771	-2.143182
H	0.632212	0.844476	0.051107
N	-0.681199	-0.491696	1.009068
H	-0.596606	0.132952	1.794766
H	-1.681056	-0.59243	0.647745
C	-1.461379	0.874218	-1.607665
N	-1.946315	1.910566	-1.876279
C	-1.055795	-1.558206	-1.717258
N	-1.258786	-2.646915	-2.107657
F	-2.818859	-0.599602	-0.301421
