13

C	0.102831	-0.067614	-0.040066
C	-0.514974	0.292537	-1.414434
F	1.438126	-0.471305	-0.311424
H	0.346873	0.581426	-2.030565
H	0.230049	0.869975	0.521491
N	-0.603969	-1.092072	0.599129
H	-0.420271	-1.069212	1.594061
H	-1.628386	-0.877358	0.391815
C	-1.387149	1.470987	-1.348731
N	-1.830345	2.556283	-1.429872
C	-1.14492	-0.842922	-2.097211
N	-1.49176	-1.715848	-2.800978
F	-2.766243	-0.143932	-0.262642
