14

C	-0.220102	-0.153755	-1.491289
C	0.0	0.0	0.0
Cl	-1.939431	-0.655249	-1.931887
H	1.104575	0.0	0.0
H	-0.430002	0.929712	0.377206
C	-0.053347	1.149354	-2.161886
N	0.107206	2.184866	-2.694797
N	0.684642	-1.168074	-1.949232
H	1.611483	-0.958351	-1.538378
H	0.743173	-1.182033	-2.960604
N	-0.51832	-1.157863	0.743471
H	0.096787	-1.253464	1.548347
H	-0.316606	-1.972204	0.168667
H	2.874163	0.0	0.0
