14

C	-0.277667	-0.125715	-1.498103
C	0.0	0.0	0.0
Cl	-2.010117	-0.677357	-1.832338
H	1.095913	0.0	0.0
H	-0.397396	0.946812	0.380679
C	-0.219763	1.209515	-2.127944
N	-0.125957	2.257169	-2.654065
N	0.642652	-1.057415	-2.056041
H	0.727143	-0.948216	-3.058491
H	1.555408	-0.918637	-1.600126
N	-0.419712	-1.180822	0.730347
H	-1.242437	-0.999207	1.287094
H	0.340831	-1.459283	1.33807
H	2.861121	0.0	0.0
