14

C	-0.622562	0.09292	-1.400895
C	0.0	0.0	0.0
Cl	0.171598	1.439154	-2.296489
H	1.091825	0.0	0.0
H	-0.360544	-0.938677	0.438954
C	-0.409441	-1.15055	-2.153587
N	-0.362194	-2.185619	-2.708609
N	-2.052222	0.375117	-1.391234
H	-2.144918	1.090865	-0.669442
H	-2.523411	-0.460601	-1.055887
N	-0.479049	1.158966	0.772678
H	0.336256	1.737077	0.93902
H	-0.811363	0.857217	1.679404
H	2.922656	0.0	0.0
