14

C	-0.614904	0.008289	-1.397142
C	0.0	0.0	0.0
Cl	0.160429	1.382044	-2.365205
H	1.094451	0.0	0.0
H	-0.362837	-0.912762	0.484302
C	-0.308821	-1.216436	-2.142501
N	-0.109796	-2.214543	-2.726919
N	-2.025959	0.170282	-1.299252
H	-2.431699	0.397778	-2.198271
H	-2.164697	0.932537	-0.64034
N	-0.504992	1.184975	0.719264
H	-0.644668	0.930921	1.688934
H	0.255392	1.85929	0.713312
H	2.927072	0.0	0.0
