14

C	-0.281856	0.079344	-1.498396
C	0.0	0.0	0.0
Cl	-0.123748	-1.669961	-2.177895
H	1.102136	0.0	0.0
H	-0.434121	-0.899072	0.435123
C	-1.6583	0.458828	-1.848846
N	-2.759641	0.7449	-2.140978
N	0.657081	0.972851	-2.048426
H	1.592246	0.757298	-1.675469
H	0.64942	0.99129	-3.058982
N	-0.552584	1.197677	0.649326
H	-0.409337	1.081734	1.64741
H	0.049754	1.969354	0.376204
H	2.958466	0.0	0.0
