14

C	-0.380321	-0.014353	-1.481059
C	0.0	0.0	0.0
Cl	-0.076057	-1.669231	-2.13085
H	1.099051	0.0	0.0
H	-0.405074	-0.87001	0.528716
C	-1.817115	0.256151	-1.660741
N	-2.971335	0.46426	-1.734154
N	0.400512	0.93227	-2.252574
H	0.226302	1.82815	-1.800938
H	1.375217	0.708547	-2.028908
N	-0.402926	1.295796	0.544599
H	-1.243566	1.224452	1.101678
H	0.351367	1.637815	1.128731
H	2.916138	0.0	0.0
