14

C	-0.604796	-0.003333	-1.401029
C	0.0	0.0	0.0
Cl	0.169185	1.366444	-2.372736
H	1.09493	0.0	0.0
H	-0.36187	-0.91104	0.487619
C	-0.28373	-1.232781	-2.133304
N	-0.078606	-2.236015	-2.70824
N	-2.019361	0.151387	-1.315644
H	-2.166449	0.923289	-0.668768
H	-2.416999	0.370286	-2.221125
N	-0.510279	1.188431	0.707648
H	-0.684938	0.935238	1.670794
H	0.255949	1.853671	0.726636
H	2.92412	0.0	0.0
