15

C	-0.323787	0.032103	-1.479085
C	0.0	0.0	0.0
Cl	-2.087041	0.010751	-1.840525
H	1.091648	0.0	0.0
H	0.047754	-0.909841	-1.888569
N	0.26869	1.229415	-2.011121
H	0.293038	1.170669	-3.019747
H	1.22689	1.295193	-1.671334
N	-0.430183	-1.245376	0.690439
O	-0.560954	-2.24998	-0.005816
O	-0.528003	-1.199786	1.911349
N	-0.539583	1.182506	0.715699
O	-1.719465	1.14008	1.057534
O	0.226384	2.129695	0.868667
Br	3.331537	0.0	0.0
