15

C	-0.551814	0.074988	-1.415839
C	0.0	0.0	0.0
Cl	0.209258	-1.176403	-2.428633
H	1.088767	0.0	0.0
H	-0.195854	1.026208	-1.823127
N	-1.982646	-0.122424	-1.443952
H	-2.301665	-0.081864	-2.404337
H	-2.41261	0.638712	-0.93067
N	-0.549392	-1.184382	0.723299
O	-1.558338	-1.015398	1.405077
O	0.028038	-2.24679	0.533517
N	-0.397108	1.205106	0.798917
O	0.029307	1.246828	1.94446
O	-1.085565	2.075604	0.258372
Br	3.35859	0.0	0.0
