15

C	-0.506941	-0.045005	-1.426129
C	0.0	0.0	0.0
Cl	0.059902	1.48247	-2.263688
H	1.087617	0.0	0.0
H	-1.594199	0.007398	-1.457349
N	-0.01562	-1.240677	-1.999765
H	-0.307543	-1.335805	-2.962628
H	0.999013	-1.275932	-1.939656
N	-0.509885	-1.229954	0.698091
O	-1.717589	-1.246724	0.940578
O	0.290598	-2.11983	0.941975
N	-0.5387	1.142372	0.791522
O	0.03375	1.361872	1.855042
O	-1.529592	1.733463	0.368586
Br	3.391349	0.0	0.0
