15

C	-0.433939	-0.08418	-1.453907
C	0.0	0.0	0.0
Cl	-0.394988	1.63687	-2.156413
H	1.087288	0.0	0.0
H	-1.477792	-0.373535	-1.551523
N	0.441273	-0.987628	-2.072544
H	0.25483	-1.115368	-3.055564
H	1.41876	-0.753854	-1.904228
N	-0.477975	-1.195494	0.77437
O	-1.250017	-1.987011	0.241203
O	-0.065046	-1.25687	1.928444
N	-0.593509	1.164049	0.712394
O	0.151634	2.051842	1.100653
O	-1.819004	1.129339	0.837007
Br	3.398241	0.0	0.0
