14
Coordinates from ORCA-job run
  C   0.84651115020286      0.60710247262965      0.35370542968714
  C   -0.60926407845680      0.35262571149393     -0.02468347230952
  F   1.17322591384989     -0.03890195278232      1.49291701531781
  H   -0.79783269268960      0.89842565249284     -0.95458618782109
  H   1.08581847392091      1.66772269238336      0.44755815163909
  N   1.70794305867314      0.08102420632029     -0.77294261608097
  O   2.41488831707534     -0.89193860613220     -0.55869340336689
  O   1.57987217258344      0.69250684830948     -1.82890960435765
  C   -1.45794959040026      0.92345744403297      1.02319253927578
  N   -2.14099711180100      1.36956448062922      1.86706719450296
  C   -0.89441791013350     -1.13957581889588     -0.22165587676012
  H   -0.63249692419364     -1.70221059467230      0.67433711056818
  H   -1.95340295871870     -1.29008076719851     -0.43222811539916
  H   -0.32089781991207     -1.52972176861053     -1.06407816489556
