14
Coordinates from ORCA-job run
  C   0.76596410113604      0.76721305994451      0.18573028527177
  C   -0.61378586278354      0.26218010405407     -0.22436085886897
  F   0.96117925031601      0.62619232240513      1.51388516925769
  H   -0.69512877718962      0.40107923079248     -1.30705087153357
  H   0.94785021712970      1.80255162700754     -0.10752270576111
  N   1.79223333869984     -0.06369898138017     -0.55209323585220
  O   1.78396469360320      0.09489768382238     -1.76874691683193
  O   2.50221400560939     -0.81919620342849      0.09413230159173
  C   -1.61945850702674      1.10626662407593      0.42351501289222
  N   -2.42910343062371      1.77428052142767      0.94890389875769
  C   -0.81014284201306     -1.21412036565965      0.13482493516947
  H   -0.11632857285179     -1.83964176341910     -0.42938706744371
  H   -1.82580254222655     -1.52409683950105     -0.11197746967704
  H   -0.64465507177918     -1.37490702014125      1.20014752302795
