14
Coordinates from ORCA-job run
  C   0.79545567865727      0.69325497367343      0.31066249960877
  C   -0.60435434434844      0.31990100875283     -0.16642758499625
  F   0.99294794841700      0.30930912727243      1.58958041443039
  H   -0.68594807405669      0.65253568741886     -1.20603808278970
  H   1.01529517850482      1.75703756915459      0.20555600300578
  N   1.78604885634864     -0.02832137320806     -0.57663207571401
  O   1.77569099367810      0.34485237173262     -1.74542061911713
  O   2.47263680602799     -0.91066900270977     -0.08417403166563
  C   -1.57424270278086      1.07058626729347      0.63328910393465
  N   -2.35515604775421      1.66379336964293      1.27827995767029
  C   -0.85469893013152     -1.18862606046970     -0.07342732957307
  H   -0.18836111350605     -1.72859317175953     -0.74813973118373
  H   -0.68961103001920     -1.54266301790639      0.94412408536613
  H   -1.88270321903682     -1.41239774888770     -0.35923260897650
