14
Coordinates from ORCA-job run
  C   0.76867356291652      0.59663380901973     -0.63760609803474
  C   -0.67743520433239      0.30460631415128     -0.25247545965991
  F   0.96424500884225      1.93123258917369     -0.74044439444314
  H   -1.27540361836987      0.78598470867471     -1.03555977419246
  H   1.04759988118320      0.10575171012684     -1.57097190804220
  N   1.70999038761695      0.05305934481410      0.40946497352603
  O   1.98173101046594     -1.13898564389878      0.28574509443034
  O   2.08861713083245      0.81508030688436      1.28740065003759
  C   -1.00791529384825      0.96207951513799      1.01464699527250
  N   -1.30398712660164      1.45305960811888      2.03893609370250
  C   -1.00847506712106     -1.19034507489352     -0.20585707221264
  H   -0.73033644533425     -1.67008252808736     -1.14610480162485
  H   -2.08040333718297     -1.31944451527658     -0.05283720073434
  H   -0.47890088906687     -1.68863014394533      0.60466290197532
