14
Coordinates from ORCA-job run
  C   0.92127078921886      0.00333416626927     -0.36221454884072
  C   -0.53634250655057      0.14356556788496      0.04836164278368
  F   1.04588723309415      0.30443455913106     -1.68151343108540
  H   -0.81218559667870      1.18477678791874     -0.15246054861597
  H   1.34571584290678     -0.98122554305965     -0.16314683810095
  N   1.75229041586289      0.99258956782096      0.41384514599717
  O   1.55621060209549      2.17612310453727      0.16201435958660
  O   2.52873811576309      0.52554427961258      1.24216684130034
  C   -0.66086921300946     -0.10067294739843      1.48587196082528
  N   -0.77360814453927     -0.32497397227756      2.63279220848700
  C   -1.42557146816043     -0.80695823032714     -0.75839219897308
  H   -2.46900662008472     -0.67702476255852     -0.46965183010841
  H   -1.14583169486711     -1.84652720514446     -0.57637306537067
  H   -1.32769775505102     -0.59198537240907     -1.82229969788488
