14
Coordinates from ORCA-job run
  C   0.77975850363980      0.61077088704545     -0.61119765348960
  C   -0.67322913742411      0.30115114042241     -0.26760467042355
  F   0.96484746704529      1.94808162524357     -0.69560909552622
  H   -1.25511472975168      0.78513277386309     -1.06113137185377
  H   1.08761098156637      0.13200538666132     -1.54166542125037
  N   1.69763007981694      0.06551441211254      0.45522974573715
  O   1.98640842631308     -1.12194239695129      0.32587119704982
  O   2.04211832596473      0.82122489643191      1.35242259199214
  C   -1.04325670446672      0.94112103984852      0.99756747001549
  N   -1.37047072048922      1.41497619202679      2.02048582255527
  C   -0.99063495222901     -1.19737314242071     -0.24520662642258
  H   -0.68230356047089     -1.66457656880969     -1.18235062565324
  H   -0.47839446058210     -1.69891261712919      0.57454823007260
  H   -2.06496951893248     -1.33817362834470     -0.12235959280314
