14
Coordinates from ORCA-job run
  C   0.88086869151709      0.58595424836361      0.30443045197748
  C   -0.58411115941574      0.38757253413188     -0.07174402420670
  F   1.15135994624392      0.04460443082773      1.51094993888208
  H   -0.72564949006542      0.84531434278588     -1.05591970337552
  H   1.18917373960183      1.63272005526267      0.29054504393002
  N   1.71741699276072     -0.11142031832431     -0.74499733496985
  O   1.64371891279931      0.39345591227492     -1.86089541258856
  O   2.35260819828125     -1.10250454708311     -0.41810668512249
  C   -1.40657541129603      1.11563269083288      0.89637043440120
  N   -2.07053447763333      1.68800289466969      1.67693224217418
  C   -0.96395431430485     -1.09594686735787     -0.12019388795650
  H   -0.41404149368371     -1.60483515532404     -0.91366184622269
  H   -0.74141732897199     -1.58012992614614      0.83069547960165
  H   -2.02986280583305     -1.19942029491378     -0.32440469652430
