14
Coordinates from ORCA-job run
  C   0.83076579885320      0.69811729339765      0.18319770277521
  C   -0.62033563411830      0.32051642709777     -0.09802483868907
  F   1.18794077218377      0.35563242660473      1.43900111204437
  H   -0.83538733058405      0.62356622666027     -1.12761090746889
  H   1.03910564708979      1.75593803780848      0.01428917045529
  N   1.69592020907942     -0.06135775208663     -0.79744857859319
  O   2.43123282310425     -0.93684695096883     -0.36711553635324
  O   1.53994790892138      0.27468262837090     -1.96701219176878
  C   -1.47512891606960      1.10050050005713      0.79906014151912
  N   -2.16147601235116      1.71731230618868      1.52442931134953
  C   -0.86055417956531     -1.18318183849152      0.07037354038866
  H   -0.56125352051059     -1.51044446663877      1.06612459329435
  H   -1.91834045713296     -1.40785549315551     -0.06858075821031
  H   -0.29243710889984     -1.74557934484436     -0.67268276074304
