14
Coordinates from ORCA-job run
  C   0.84620643492417      0.65575157822996      0.25332376749504
  C   -0.60036316233795      0.34595149125994     -0.11818731890822
  F   1.12320550041187      0.25261016987498      1.51135312630808
  H   -0.74494830647476      0.68799607183582     -1.14789334212757
  H   1.10193140239623      1.71042318306840      0.13781245371067
  N   1.73459663288212     -0.09902718279585     -0.71069292345111
  O   2.41691344183109     -1.01485287452435     -0.27732801607685
  O   1.65109834723828      0.28386051372226     -1.87343447305747
  C   -1.47485175716507      1.13343566812517      0.75297696206337
  N   -2.18055730987171      1.75660090779740      1.45400610632214
  C   -0.90808087653392     -1.15107383310780     -0.01214511773756
  H   -0.31732762902685     -1.71398720224040     -0.73678608497149
  H   -1.96313232871485     -1.32841806621214     -0.22190052176123
  H   -0.68369038955865     -1.51927042503338      0.98889538219221
