14
Coordinates from ORCA-job run
  C   0.79619701839868      0.55492378929604     -0.64184479899647
  C   -0.66421948514806      0.30783470482131     -0.28000348672525
  F   1.02156004375785      1.88030384742832     -0.79313115673760
  H   -1.23342948916219      0.77097795747107     -1.09490213452714
  H   1.08596778238162      0.02153806258838     -1.54805642100339
  N   1.70154421925684      0.03542916695306      0.44780746855669
  O   2.07463945955554      0.82407429023274      1.30434839076999
  O   1.95184836241479     -1.16553916913574      0.37768910912137
  C   -1.00940312443229      1.02056558668809      0.95302744325576
  N   -1.31767029752719      1.55582384918314      1.95118078945389
  C   -1.02917972775733     -1.17677659618097     -0.18416191809905
  H   -0.74452357180761     -1.69734646825372     -1.10055878058025
  H   -2.10644219821143     -1.27622659982355     -0.04696210347857
  H   -0.52588899171922     -1.65558242126816      0.65456759899002
