16

C	0.0	0.0	0.0
C	-0.331364	-0.003723	-1.520917
Cl	1.811522	0.0	0.0
H	0.402734	-0.680241	-1.97075
N	-0.632997	0.991673	0.72561
H	-1.660073	0.854506	0.565508
H	-0.454238	0.867529	1.716889
N	-0.281122	-1.447543	0.551683
O	-0.595949	-1.511022	1.734386
O	-0.106711	-2.395223	-0.200672
C	-0.007917	1.351925	-2.018456
N	0.180465	2.38366	-2.55002
N	-1.664648	-0.448458	-1.860059
H	-2.358868	-0.26058	-1.073269
H	-1.999237	0.080938	-2.65639
H	-3.244448	0.0	0.0
