15

C	0.0	0.0	0.0
C	-0.456908	-0.000878	-1.461691
Br	1.97602	0.0	0.0
H	-1.552317	-0.080633	-1.353083
H	-0.074422	-0.924643	-1.914019
C	-0.330635	1.28909	0.637739
N	-0.479162	2.338063	1.147462
N	-0.562747	-1.054275	0.781824
H	-1.596221	-0.817096	0.722796
H	-0.444534	-1.91399	0.253492
C	-0.093821	1.224024	-2.288695
H	-0.392941	1.071662	-3.32979
H	0.976245	1.440496	-2.269257
H	-0.631347	2.098807	-1.915908
H	-2.984179	0.0	0.0
