15

C	0.0	0.0	0.0
C	-0.451943	0.02565	-1.466937
Br	1.97577	0.0	0.0
H	0.044095	0.852533	-1.985529
H	-1.532399	0.228389	-1.372433
C	-0.315468	1.312396	0.602785
N	-0.482286	2.381391	1.060757
N	-0.580534	-1.019275	0.809461
H	-0.436796	-1.91025	0.343037
H	-1.615593	-0.786908	0.714991
C	-0.246705	-1.28817	-2.205098
H	-0.489425	-1.157295	-3.26386
H	0.784028	-1.647929	-2.13759
H	-0.91955	-2.05558	-1.815814
H	-2.98906	0.0	0.0
