15

C	0.0	0.0	0.0
C	-0.484754	0.09583	-1.443013
Br	1.968324	0.0	0.0
H	-1.582277	0.057609	-1.325088
H	-0.15116	-0.819803	-1.940986
C	-0.300042	1.25699	0.730439
N	-0.471299	2.247218	1.342605
N	-0.579611	-1.158764	0.592174
H	-0.396746	-1.152944	1.592572
H	-1.618423	-0.961166	0.468374
C	-0.076337	1.346372	-2.204478
H	-0.454485	2.242344	-1.704399
H	-0.51368	1.320583	-3.207241
H	1.007968	1.439839	-2.309068
H	-3.004876	0.0	0.0
