15

C	0.0	0.0	0.0
C	-0.452202	-0.025083	-1.466445
Br	1.97633	0.0	0.0
H	-1.533584	0.176044	-1.377336
H	0.038763	0.786773	-2.012349
C	-0.316703	1.331208	0.55851
N	-0.477765	2.413341	0.987471
N	-0.57715	-0.99332	0.844786
H	-0.431979	-1.899991	0.410245
H	-1.612318	-0.766858	0.745908
C	-0.240676	-1.361469	-2.161616
H	-0.4962	-1.269346	-3.220889
H	0.794563	-1.707599	-2.092923
H	-0.901061	-2.122721	-1.740466
H	-2.99328	0.0	0.0
