15

C	0.0	0.0	0.0
C	-0.451252	0.155223	-1.442191
Br	2.047582	0.0	0.0
H	0.07988	0.992964	-1.90106
H	-1.521745	0.404769	-1.329834
C	-0.2256	1.270229	0.7319
N	-0.40023	2.248965	1.361026
N	-0.633441	-1.110157	0.583535
H	-1.690103	-0.852305	0.412372
H	-0.481557	-1.100091	1.588406
C	-0.317601	-1.127106	-2.251166
H	-1.060706	-1.853568	-1.922036
H	0.674768	-1.574491	-2.141692
H	-0.48723	-0.9173	-3.312076
H	-2.934708	0.0	0.0
