13
Coordinates from ORCA-job run
  C   -0.86133875256525     -0.72528628487017      0.21424042161175
  C   0.11335390584206      0.29269634729967     -0.38254107095647
  F   -1.62040234519460     -1.31556980904638     -0.77060974990611
  H   -0.48955777045373      1.07028547085754     -0.86050550755548
  H   -0.30051801684782     -1.51927527987824      0.72451160520813
  C   -1.76023137227456     -0.08526989133221      1.18586345357758
  N   -2.49514891075382      0.38973264780171      1.96701699490445
  N   0.88379206518995     -0.36063378923446     -1.42198266638260
  H   1.42527681203599      0.32019706664169     -1.93948839564556
  H   1.52630219908240     -1.03511934791624     -1.02127343330728
  N   0.80713464979909      0.90100684069351      0.74335982872664
  H   1.53954674349888      0.28795881422894      1.08273640163616
  H   1.23279079264140      1.77927721475463      0.47767211808878
