13
Coordinates from ORCA-job run
  C   -1.08919685093566     -0.41579217575158     -0.10521117049975
  C   0.42012014117716     -0.13281471796519     -0.10292718090107
  F   -1.77005703174446      0.53159082716161     -0.82378264371238
  H   0.87231041081470     -0.93529784157807      0.51005435180662
  H   -1.25856172394400     -1.38963883592345     -0.57353643468820
  C   -1.60567004010823     -0.44038935478576      1.27543237884457
  N   -1.95329753037874     -0.44667733299237      2.39638455866063
  N   0.65168698588270      1.19598041638074      0.43025021643173
  H   0.32659680933227      1.26555539038136      1.38732471534490
  H   1.64747016553841      1.38416659500702      0.43461534084662
  N   0.88973299178580     -0.19174111608887     -1.47437011900645
  H   1.41306146817730     -1.03699137785165     -1.64972995920299
  H   1.45480420440275      0.61204952400622     -1.70350405392422
