13
Coordinates from ORCA-job run
  C   -1.18037365197743     -0.14802472901169     -0.07771699514872
  C   0.21966775803715      0.27601411222382     -0.50706932517805
  F   -1.95009204627953      0.98026887587580      0.17498735256553
  H   0.09499296965834      0.80900854032323     -1.46204854844574
  H   -1.64910718590184     -0.71061890288205     -0.88711648537756
  C   -1.13169364461754     -0.97986353163088      1.13317315095638
  N   -1.09076816969876     -1.67136041587078      2.07983016715542
  N   0.96695642188518     -0.93172570403239     -0.77062699987559
  H   1.74770595207021     -0.74995902885692     -1.38694499322178
  H   1.32916511937056     -1.28765792391819      0.10769425902346
  N   0.79249289052631      1.08556633551848      0.55613567566264
  H   1.67764246849672      1.47550825908012      0.25535419490210
  H   0.17341111843064      1.85484411318144      0.78534854698193
