13
Coordinates from ORCA-job run
  C   -0.92940474853030     -0.69105525650192      0.12054676449508
  C   0.18640356222785      0.21911302386201     -0.40002128267705
  F   -1.79682304700912     -0.99839007349770     -0.90345178657990
  H   -0.30514010857296      1.01954108408377     -0.97195063760821
  H   -0.48611752016574     -1.61762840757077      0.49556510235920
  C   -1.68744542073564     -0.03781962846472      1.19980849741702
  N   -2.26813621360064      0.52120956274741      2.05273222225145
  N   0.98933899930975     -0.54899877880914     -1.31976025294512
  H   1.46044313812220      0.04768952341486     -1.98538340509011
  H   1.68235428077728     -1.07568726663379     -0.79998748452774
  N   0.95876267723866      0.67534513132541      0.75201099848751
  H   1.77405226528623      1.17858549558093      0.42330389203227
  H   0.42171213565243      1.30809559046364      1.33558737238562
