13
Coordinates from ORCA-job run
  C   -0.99542699632245     -0.58899831870488     -0.05302695809902
  C   0.47425369006639     -0.16877084854364     -0.04161638421802
  F   -1.67626337487896      0.10384829163382     -1.03213825429451
  H   0.98498083402669     -0.85774741874822      0.65009976509352
  H   -1.05259108010931     -1.65350993742111     -0.29177769605057
  C   -1.62914081455549     -0.33441327863824      1.25012715501872
  N   -2.08076875896785     -0.13030953452344      2.31369974892430
  N   0.57068717780010      1.23533942348496      0.33858178544076
  H   1.54058143178450      1.52465669473854      0.30585947337585
  H   0.23560119573154      1.38825400055467      1.28386135692498
  N   0.99166567551989     -0.42696675732824     -1.36513616795417
  H   0.63318592708113      0.28491951777242     -1.99119833257411
  H   2.00223509282382     -0.37730183427663     -1.36833549158773
