13
Coordinates from ORCA-job run
  C   -0.70068772879393      0.86791750037550      0.27672240131785
  C   -0.01276558987337     -0.31443596814006     -0.37551021751702
  H   -1.74709128369246      0.88697794034886     -0.03140661180509
  H   0.00363259040707     -0.26859974911625     -1.46483362936590
  H   -0.66209475917446      0.75235096906599      1.36209436202464
  C   -0.03631458915261      2.10777528753557     -0.11703731420198
  N   0.50713653062178      3.09239800501059     -0.45161481120685
  N   -0.69810200428774     -1.61121657127624     -0.00211627573457
  O   -1.91315026348796     -1.55305010839289      0.14194653185685
  O   0.00909243774555     -2.60687371906984      0.06317323895208
  N   1.40855982730498     -0.42293349989205      0.08556439455052
  O   2.26003424252309     -0.56091786044254     -0.78536178227819
  O   1.58175058986006     -0.36939222600664      1.29837971340767
