13
Coordinates from ORCA-job run
  C   -0.63401431709584      0.91219640118166     -0.29450043256324
  C   -0.08814902916807     -0.36171689034780      0.31848552905402
  H   -0.37097972192872      0.94262475911930     -1.35410334808975
  H   -0.29768370668199     -0.46298412473421      1.38377451198860
  H   -1.72162755499099      0.91244622387500     -0.20867941001070
  C   -0.07366413438125      2.07320827187986      0.39231939160617
  N   0.38238082053509      2.99191630566095      0.96219729246925
  N   1.39847245033124     -0.43827496861390      0.14934408094521
  O   1.81836545957068     -0.22618083868147     -0.98313537277099
  O   2.05231610836216     -0.71045906237155      1.14983347544906
  N   -0.67298368610742     -1.58138756964469     -0.36060613156130
  O   -1.83230911660590     -1.47793643328703     -0.74237368957121
  O   0.03887642816101     -2.57445207403611     -0.41355589694512
