13
Coordinates from ORCA-job run
  C   -0.63980858536665      0.89992239382889     -0.31351347079201
  C   -0.08251797103191     -0.35334045796392      0.33032154169888
  H   -0.38593939283457      0.90158516490366     -1.37585477057781
  H   -0.28182823854695     -0.42525994862889      1.39993430546772
  H   -1.72665991864771      0.89648681826257     -0.21837078277240
  C   -0.08162489306049      2.08459486632043      0.33328863968042
  N   0.37307791853357      3.02631523511903      0.86541237473709
  N   1.40246463086405     -0.42890048118392      0.14920336650385
  O   1.81027518260903     -0.25294445533346     -0.99380086499106
  O   2.06770153412818     -0.66238375458628      1.15197588496131
  N   -0.66933086335923     -1.59394737551765     -0.30809117638259
  O   0.04698858355700     -2.58449392255780     -0.34371153933371
  O   -1.83379798684434     -1.50663408266265     -0.67779350819970
