13
Coordinates from ORCA-job run
  C   -0.65372182162455      0.93177837307001     -0.08968715951211
  C   0.03999608000095     -0.34424196118986      0.33641253573994
  H   -0.70884631401575      0.96397648126988     -1.17870560180497
  H   0.22361599936356     -0.42803808633947      1.40550100931505
  H   -1.67156998336899      0.92865426115755      0.31298647765931
  C   0.06613118899714      2.09582594192143      0.41840407179093
  N   0.64398374252142      3.01957133520299      0.85321517105991
  N   1.36961093767546     -0.52639765405206     -0.35275503552075
  O   2.06064203464681     -1.43095206825473      0.10362083165420
  O   1.63052802371860      0.20406706648432     -1.30084713521838
  N   -0.79399535780455     -1.52539057735542     -0.06875853440090
  O   -1.01084431068833     -1.63568352809986     -1.27144168714047
  O   -1.19553021942179     -2.25316958381475      0.83205505637823
