13
Coordinates from ORCA-job run
  C   -0.59982512602338      0.92194792899892      0.30646169821951
  C   -0.06058405663507     -0.33409033568799     -0.34363110881472
  H   -1.69117247492114      0.91961660396529      0.22215514126592
  H   -0.20054238516148     -0.38574173541146     -1.42130328945792
  H   -0.33112357291592      0.92249051077687      1.36374349377072
  C   -0.06384182098979      2.10750854828876     -0.35571476621317
  N   0.35849609608088      3.04933285751982     -0.91329139496868
  N   -0.73555314353722     -1.53501507634949      0.25373590646495
  O   -1.38321045669090     -2.24158022521676     -0.51026029967702
  O   -0.58828613980497     -1.68120765233327      1.46311004027683
  N   1.41360363134680     -0.52143174118210     -0.08296643123610
  O   1.94079299306883      0.18332315235253      0.76903057694577
  O   1.94124645618337     -1.40415283572113     -0.75106956657609
