19

C	0.0	0.0	0.0
C	-0.281629	-0.106292	-1.545381
Cl	1.772977	0.0	0.0
H	0.47887	-0.843132	-1.820021
N	-0.510043	1.19616	0.747056
O	-0.560574	2.279748	0.156429
O	-0.575828	1.081619	1.974303
C	-0.364817	-1.282871	0.740723
H	-1.453462	-1.310124	0.831323
H	0.009122	-2.127592	0.153047
H	0.117401	-1.288535	1.718799
N	0.11826	1.128096	-2.237621
H	-0.469245	1.87797	-1.886275
H	-0.109236	0.999917	-3.217107
C	-1.580195	-0.692442	-2.094178
H	-1.917587	-1.571571	-1.548019
H	-2.394979	0.0228	-2.057092
H	-1.366081	-0.981255	-3.145295
H	-2.634785	0.0	0.0
