19

C	0.0	0.0	0.0
C	-0.421937	-0.376653	-1.470027
Cl	1.78194	0.0	0.0
H	0.31247	0.132476	-2.098799
N	-0.305622	1.483379	0.290282
O	-0.141879	1.868634	1.443253
O	-0.586991	2.222681	-0.647166
C	-0.588964	-0.830071	1.106148
H	-0.322573	-1.87917	0.962994
H	-0.222604	-0.487021	2.072598
H	-1.684156	-0.705057	1.037682
N	-1.732176	-0.020992	-1.941344
H	-2.462011	-0.134438	-1.193183
H	-1.748709	0.973638	-2.139264
C	-0.250483	-1.883735	-1.657909
H	-1.086677	-2.400068	-1.184073
H	0.692594	-2.27231	-1.267709
H	-0.310769	-2.084669	-2.728701
H	-3.425572	0.0	0.0
