19

C	0.0	0.0	0.0
C	-0.660378	0.247594	-1.35928
Cl	1.77739	0.0	0.0
H	-1.630021	0.688604	-1.063812
N	-0.31731	1.209627	0.913786
O	-0.284537	1.025373	2.125122
O	-0.518196	2.295379	0.379525
C	-0.520711	-1.235463	0.682177
H	-0.25514	-2.097485	0.07084
H	-0.095987	-1.329196	1.680427
H	-1.614503	-1.116894	0.726179
N	-0.9238	-1.051213	-1.996861
H	-1.120183	-0.861739	-2.973877
H	-1.822777	-1.34294	-1.602187
C	0.110323	1.147729	-2.306434
H	0.405137	2.07687	-1.821017
H	-0.533355	1.396567	-3.157309
H	1.001788	0.639128	-2.682632
H	-3.272809	0.0	0.0
