19

C	0.0	0.0	0.0
C	-0.681866	0.137452	-1.379585
Cl	1.776038	0.0	0.0
H	-1.510707	0.826963	-1.170575
N	-0.282218	1.31153	0.776749
O	-0.429865	1.242509	1.990684
O	-0.253314	2.355404	0.133194
C	-0.512538	-1.152503	0.818533
H	-1.598547	-1.004023	0.91176
H	-0.317177	-2.070077	0.265439
H	-0.031693	-1.172768	1.794956
N	-1.250763	-1.15469	-1.76464
H	-2.153288	-1.161768	-1.25495
H	-1.501298	-1.074176	-2.746228
C	0.208754	0.694709	-2.473396
H	-0.408522	0.921433	-3.349901
H	0.698446	1.614915	-2.154269
H	0.96757	-0.037238	-2.764885
H	-3.267089	0.0	0.0
