19

C	0.0	0.0	0.0
C	-0.236733	-0.107065	-1.563501
Cl	1.786448	0.0	0.0
H	0.316127	-1.018965	-1.826498
N	-0.792235	1.099427	0.599926
O	-0.792371	1.122086	1.863307
O	-0.847166	2.182905	-0.077247
C	-0.289395	-1.295073	0.771285
H	0.120566	-2.141352	0.213528
H	0.202248	-1.233641	1.74214
H	-1.359156	-1.429293	0.920775
N	0.43335	1.011424	-2.251556
H	0.063494	1.043577	-3.196052
H	0.104901	1.845244	-1.765956
C	-1.654067	-0.281887	-2.111314
H	-1.553449	-0.422632	-3.201977
H	-2.243686	0.616561	-1.930721
H	-2.180913	-1.149939	-1.711745
H	-2.041596	0.0	0.0
