18

C	-0.540775	-0.005519	-1.426425
C	0.0	0.0	0.0
Br	0.403718	-1.383529	-2.434564
H	1.087941	0.0	0.0
N	-1.930357	-0.239909	-1.541524
H	-2.403563	0.516687	-1.057899
H	-2.191176	-0.21684	-2.520108
N	-0.119554	1.316778	-2.141467
O	-0.803814	1.631806	-3.112653
O	0.845305	1.922445	-1.704853
C	-0.507473	-1.168771	0.830095
H	-0.220696	-2.103435	0.349613
H	-0.029458	-1.123961	1.809185
H	-1.594039	-1.143845	0.934957
N	-0.433818	1.253032	0.703058
O	0.145182	1.530774	1.743726
O	-1.379678	1.900755	0.233937
Cl	3.30683	0.0	0.0
