18

C	-0.589964	-0.011579	-1.417051
C	0.0	0.0	0.0
Br	0.371389	-1.378928	-2.426583
H	1.0878	0.0	0.0
N	-1.982375	-0.249874	-1.588652
H	-2.499087	0.441822	-1.058021
H	-2.216458	-1.185112	-1.283787
N	-0.248981	1.326682	-2.112149
O	-1.015172	1.721517	-2.97957
O	0.781964	1.869489	-1.745526
C	-0.465214	-1.182022	0.840432
H	-0.187218	-2.114041	0.347789
H	-1.546241	-1.161805	1.010689
H	0.051619	-1.141182	1.799312
N	-0.451642	1.235555	0.716318
O	-1.371478	1.902002	0.220453
O	0.08289	1.482353	1.789717
Cl	3.325287	0.0	0.0
