18

C	-0.345487	0.056398	-1.509387
C	0.0	0.0	0.0
Br	-2.152538	0.739518	-1.81013
H	1.093437	0.0	0.0
N	0.570027	0.769102	-2.33489
H	1.506986	0.434916	-2.092884
H	0.536436	1.739059	-2.040033
N	-0.317482	-1.411367	-1.982438
O	-1.343505	-2.078183	-1.935741
O	0.79237	-1.818389	-2.305009
C	-0.560715	-1.158003	0.787533
H	-0.116394	-2.08441	0.422077
H	-1.647751	-1.218704	0.717379
H	-0.276326	-1.04504	1.832789
N	-0.380386	1.311788	0.61473
O	-1.076822	1.306375	1.628804
O	0.040593	2.331347	0.069601
Cl	3.250647	0.0	0.0
