18

C	-0.546713	-0.013908	-1.423685
C	0.0	0.0	0.0
Br	0.397201	-1.393101	-2.430405
H	1.087956	0.0	0.0
N	-1.936744	-0.255877	-1.525062
H	-2.20812	-0.239286	-2.500899
H	-2.409942	0.50073	-1.041282
N	-0.137045	1.303424	-2.152348
O	0.8276	1.917637	-1.726818
O	-0.827274	1.60463	-3.123669
C	-0.493504	-1.173268	0.832772
H	-0.201982	-2.104674	0.348615
H	-0.0079	-1.126385	1.807884
H	-1.579417	-1.158629	0.946072
N	-0.438469	1.251939	0.703347
O	0.113356	1.509566	1.763733
O	-1.356329	1.920754	0.210756
Cl	3.317357	0.0	0.0
