17

C	-0.46611	0.027681	-1.460752
C	0.0	0.0	0.0
Cl	-2.2791	0.159397	-1.494069
H	1.092819	0.0	0.0
C	0.145767	1.248025	-2.13642
H	1.234001	1.162314	-2.059377
H	-0.181293	2.141646	-1.608457
H	-0.156984	1.289017	-3.183957
C	-0.1255	-1.164355	-2.23796
N	0.120215	-2.034254	-2.988246
N	-0.455317	-1.291501	0.662144
O	-0.034398	-2.339873	0.186287
O	-1.207698	-1.204911	1.635149
N	-0.430831	1.159608	0.700059
H	0.240079	1.362609	1.42845
H	-1.339919	1.014149	1.115891
Br	3.391523	0.0	0.0
