17

C	-0.597197	-0.016537	-1.425201
C	0.0	0.0	0.0
Cl	0.044702	-1.373715	-2.404259
H	1.090397	0.0	0.0
C	-2.121271	-0.09801	-1.417712
H	-2.52571	0.732079	-0.835835
H	-2.49583	-0.03136	-2.439892
H	-2.44729	-1.043335	-0.983076
C	-0.193919	1.228291	-2.085452
N	0.041647	2.215677	-2.676684
N	-0.455293	-1.264278	0.710069
O	0.165501	-2.297682	0.49556
O	-1.449881	-1.175827	1.440461
N	-0.452724	1.177527	0.674996
H	0.295787	1.518769	1.264957
H	-1.269836	0.97718	1.237203
Br	3.420166	0.0	0.0
