17

C	-0.416526	-0.034621	-1.497963
C	0.0	0.0	0.0
Cl	0.146837	1.519037	-2.213268
H	1.091695	0.0	0.0
C	0.256723	-1.175277	-2.251176
H	-0.130203	-2.136053	-1.909607
H	0.070477	-1.072833	-3.321491
H	1.329368	-1.128751	-2.046564
C	-1.873497	-0.058852	-1.650579
N	-3.042067	-0.070914	-1.780068
N	-0.495978	-1.297237	0.594287
O	0.235553	-2.281489	0.525609
O	-1.629247	-1.283866	1.076216
N	-0.48402	1.07057	0.795985
H	0.155971	1.849135	0.736786
H	-1.428097	1.350851	0.567554
Br	3.466502	0.0	0.0
