17

C	-0.498301	0.011125	-1.463622
C	0.0	0.0	0.0
Cl	-0.00183	1.583982	-2.169147
H	1.093915	0.0	0.0
C	0.116329	-1.092083	-2.318752
H	-0.136436	-0.919278	-3.366028
H	-0.252104	-2.070142	-2.015235
H	1.198277	-1.061128	-2.182871
C	-1.96326	-0.034279	-1.486722
N	-3.13675	-0.100877	-1.483141
N	-0.409915	-1.349295	0.604068
O	0.232335	-2.343872	0.278499
O	-1.366811	-1.353489	1.381247
N	-0.504856	1.083933	0.75889
H	-1.391218	0.847872	1.183975
H	0.168812	1.333881	1.469706
Br	3.435038	0.0	0.0
