17

C	-0.555154	-0.136461	-1.439877
C	0.0	0.0	0.0
Cl	0.385497	-1.277821	-2.452629
H	1.108265	0.0	0.0
C	-2.032653	-0.533564	-1.487975
H	-2.405613	-0.45083	-2.509395
H	-2.623749	0.123961	-0.84299
H	-2.139017	-1.562006	-1.149739
C	-0.414525	1.177751	-2.079538
N	-0.395064	2.225199	-2.612577
N	-0.409739	-1.218036	0.828655
O	-0.415805	-2.305793	0.252792
O	-0.646283	-1.055785	2.018327
N	-0.413961	1.190527	0.656595
H	0.356491	1.83923	0.724453
H	-1.233928	1.637419	0.27371
Br	3.386252	0.0	0.0
