16
Coordinates from ORCA-job run
  C   -0.41428079683261      0.62464487351897      0.04388319111878
  C   1.04442354562034      0.13283629057845     -0.06458409645453
  Cl  -0.27262879761541      2.40695524848202      0.28216523272645
  H   1.62129196386268      0.51591286269193      0.77741565199255
  C   -1.08790923439507      0.04519748730428      1.28211281832602
  H   -1.24216641500406     -1.02918321070218      1.15204397912112
  H   -0.50123545340502      0.21622347117202      2.18704594620350
  H   -2.06388442644816      0.51695759220366      1.40876260328627
  N   -1.08661929509462      0.40590955701205     -1.20387480804044
  H   -2.06028514850245      0.67602456202785     -1.13667700740848
  H   -1.01833757476919     -0.56679879313126     -1.48124468586914
  C   1.67472939805981      0.49439086233600     -1.32790436988310
  N   2.23430954230452      0.77067128123896     -2.32225529448600
  N   1.06683672434617     -1.37189117536261      0.08883935324378
  O   1.52781796775897     -1.80647024175231      1.13833097346624
  O   0.57793800011410     -2.03238066761782     -0.82405948734303
