16
Coordinates from ORCA-job run
  C   -0.43341443415712      0.34198008451943      0.24524856740047
  C   0.69969127008571     -0.41186142208843     -0.48619960610491
  Cl  0.27387852437013      0.87367562865431      1.86042651282907
  H   0.38095842539809     -0.54192177101041     -1.52541569573033
  C   -1.58462288098960     -0.60029138671646      0.55289272859982
  H   -1.96687476417671     -1.02245655664546     -0.37968714271893
  H   -2.38545352545664     -0.03412028395749      1.03306349442557
  H   -1.28142028046419     -1.40021254165568      1.22609538475011
  N   -0.89194269809865      1.41253334130424     -0.55968430106990
  H   -0.15474935864876      2.06267191119509     -0.79934624547129
  H   -1.65112257808056      1.90322098419551     -0.10489531951422
  C   1.00157779966097     -1.70131652092097      0.11793684666177
  N   1.18983740793100     -2.76812490752236      0.57096013112001
  N   1.96645879753870      0.41999483243149     -0.55923880898767
  O   2.96919913777569      0.00007918842966     -0.00165465079418
  O   1.86699915731194      1.46814941978752     -1.19050189539538
