15

C	-0.349267	-0.203624	-1.491008
C	0.0	0.0	0.0
Cl	-0.121196	-1.980211	-1.806105
H	1.092118	0.0	0.0
H	-0.391292	-0.78963	0.644512
C	-1.781503	0.129932	-1.863941
H	-2.481062	-0.452459	-1.260492
H	-1.970785	1.192584	-1.687119
H	-1.938916	-0.093794	-2.919709
N	0.572843	0.501423	-2.351345
H	0.366123	1.493702	-2.273743
H	1.512677	0.36771	-1.960379
C	-0.465427	1.298727	0.45692
N	-0.833892	2.3621	0.799565
H	2.807386	0.0	0.0
