15

C	-0.251047	-0.063626	-1.497422
C	0.0	0.0	0.0
Cl	-2.029856	-0.416015	-1.863081
H	1.096034	0.0	0.0
H	-0.33778	-0.925053	0.47207
C	0.079104	1.257742	-2.170851
H	-0.561871	2.069375	-1.817775
H	1.124465	1.483631	-1.930068
H	-0.036529	1.163644	-3.255127
N	0.526757	-1.18108	-1.965785
H	0.612327	-1.136681	-2.97574
H	1.463687	-1.074291	-1.554703
C	-0.562176	1.156066	0.664182
N	-1.003877	2.098897	1.210126
H	2.770129	0.0	0.0
