15

C	-0.463913	-0.049421	-1.451264
C	0.0	0.0	0.0
Cl	-0.129547	1.542304	-2.24142
H	1.092801	0.0	0.0
H	-0.286182	-0.951187	0.470329
C	0.373763	-1.092039	-2.181418
H	0.144568	-2.081212	-1.767865
H	0.13829	-1.093885	-3.249695
H	1.437362	-0.888248	-2.017557
N	-1.904582	-0.24026	-1.529716
H	-2.168737	-0.376413	-2.501766
H	-2.132304	-1.091286	-1.022911
C	-0.572285	1.085878	0.776092
N	-1.008647	1.952796	1.437825
H	2.828123	0.0	0.0
