15

C	-0.24658	-0.020577	-1.507448
C	0.0	0.0	0.0
Cl	-2.038735	-0.082288	-1.876971
H	1.095798	0.0	0.0
H	-0.375754	0.909972	0.474913
C	0.330527	1.243225	-2.111524
H	-0.176467	2.129052	-1.722072
H	0.229114	1.207522	-3.19619
H	1.389278	1.282152	-1.829286
N	0.370644	-1.16692	-2.142048
H	0.001141	-2.012973	-1.716477
H	1.358358	-1.11335	-1.873507
C	-0.505958	-1.178345	0.676268
N	-0.90898	-2.145524	1.209283
H	2.783666	0.0	0.0
