15

C	-0.427703	0.012906	-1.451229
C	0.0	0.0	0.0
Cl	-2.356816	0.144964	-1.511891
H	1.094015	0.0	0.0
H	-0.342299	-0.913921	0.496295
C	0.09457	1.228798	-2.178121
H	-0.168652	1.190627	-3.23863
H	-0.313983	2.142769	-1.747951
H	1.18328	1.216622	-2.053293
N	-0.015655	-1.17347	-2.081741
H	-0.343887	-1.228351	-3.036384
H	-0.289731	-1.999798	-1.568151
C	-0.474704	1.153133	0.743963
N	-0.828319	2.101222	1.340977
H	2.773986	0.0	0.0
