12

C	0.0	0.0	0.0
C	-0.488136	0.407833	-1.41162
Br	1.950825	0.0	0.0
H	0.371341	0.696639	-2.024381
H	-0.330272	-1.011431	0.214073
H	-1.158735	1.260336	-1.284676
C	-0.429167	0.910948	1.055706
N	-0.583108	1.69399	1.917903
N	-1.162045	-0.751205	-1.990766
H	-2.00813	-0.746964	-1.387739
H	-1.443136	-0.509406	-2.936234
F	-2.5826	0.0	0.0
