12

C	0.0	0.0	0.0
C	-0.484801	-0.489457	-1.357581
Br	1.956941	0.0	0.0
H	-1.582459	-0.433095	-1.188521
H	-0.335367	-0.689489	0.767596
H	-0.157743	0.224486	-2.127638
C	-0.438479	1.358779	0.315024
N	-0.616957	2.486943	0.59212
N	-0.02944	-1.860116	-1.584977
H	0.827548	-1.876435	-2.122919
H	-0.740475	-2.355883	-2.103283
F	-2.64394	0.0	0.0
