12

C	0.0	0.0	0.0
C	-0.468138	0.026895	-1.452167
Br	1.958776	0.0	0.0
H	-1.564295	-0.007744	-1.292124
H	-0.348854	-0.903035	0.492926
H	-0.106816	-0.894957	-1.931677
C	-0.433932	1.170107	0.758738
N	-0.599313	2.129387	1.416354
N	-0.036641	1.245205	-2.124297
H	-0.77538	1.576919	-2.727392
H	0.794489	1.093716	-2.678649
F	-2.617842	0.0	0.0
