12

C	0.0	0.0	0.0
C	-0.442429	0.241216	-1.473596
Br	1.950973	0.0	0.0
H	-0.981395	1.195888	-1.494131
H	-0.349426	-0.971033	0.337071
H	0.451888	0.327902	-2.09829
C	-0.437017	1.056674	0.90503
N	-0.62387	1.956571	1.636761
N	-1.24245	-0.889556	-1.927147
H	-2.070786	-0.76289	-1.303462
H	-1.524747	-0.688707	-2.883574
F	-2.591907	0.0	0.0
