12

C	0.0	0.0	0.0
C	-0.452267	-0.101854	-1.45488
Br	1.958832	0.0	0.0
H	-1.548859	-0.11033	-1.305672
H	-0.354159	-0.864059	0.552344
H	-0.12654	0.807716	-1.98253
C	-0.464776	1.245648	0.601866
N	-0.687607	2.325318	1.010709
N	0.032019	-1.342365	-2.056306
H	0.930633	-1.201283	-2.499069
H	-0.626422	-1.629935	-2.767413
F	-2.599585	0.0	0.0
