12

C	0.0	0.0	0.0
C	-0.491208	0.343978	-1.426705
Br	1.951047	0.0	0.0
H	0.364155	0.611961	-2.054637
H	-0.326886	-1.002865	0.257224
H	-1.167913	1.196032	-1.336315
C	-0.431815	0.950774	1.018439
N	-0.594635	1.75914	1.85569
N	-1.162555	-0.844481	-1.949844
H	-1.450369	-0.643875	-2.903836
H	-2.007763	-0.812751	-1.344022
F	-2.589826	0.0	0.0
