12

C	0.0	0.0	0.0
C	-0.239208	0.30435	-1.558141
Br	1.952884	0.0	0.0
H	0.113751	1.337439	-1.674213
H	-0.379922	-0.971136	0.302077
H	0.484887	-0.331102	-2.077364
C	-0.475327	1.052577	0.88223
N	-0.67043	1.968737	1.592567
N	-1.528781	0.149718	-2.169579
H	-2.213919	0.330525	-1.386963
H	-1.667162	-0.843846	-2.32483
F	-2.665858	0.0	0.0
