15

C	-0.074554	0.125401	-1.525946
C	0.0	0.0	0.0
Br	-1.793204	1.142381	-2.171573
H	1.098278	0.0	0.0
H	-0.441346	-0.936544	0.344052
N	1.073079	0.806992	-1.970171
H	1.890187	0.576503	-1.333358
H	1.265475	0.670117	-2.952417
C	-0.304052	-1.176754	-2.169233
N	-0.427344	-2.224659	-2.690334
C	-0.483212	1.212393	0.773582
H	-0.058076	2.116996	0.335458
H	-1.572102	1.308586	0.781759
H	-0.125453	1.141813	1.805053
F	2.738076	0.0	0.0
