15

C	-0.495053	0.011652	-1.427082
C	0.0	0.0	0.0
Br	0.181462	-1.591421	-2.372024
H	1.092891	0.0	0.0
H	-0.383084	-0.915005	0.464841
N	-1.944905	-0.040175	-1.529877
H	-2.319209	0.712209	-0.961196
H	-2.23401	0.112519	-2.490731
C	0.056455	1.158851	-2.172671
N	0.362775	2.120562	-2.775727
C	-0.436238	1.241409	0.776612
H	-1.517179	1.330963	0.951405
H	0.056288	1.212272	1.751627
H	-0.083133	2.148727	0.278512
F	2.641691	0.0	0.0
