15

C	-0.048282	0.121819	-1.526207
C	0.0	0.0	0.0
Br	-1.767768	0.91281	-2.229131
H	1.097528	0.0	0.0
H	-0.444508	-0.933725	0.351699
N	1.05765	0.899328	-2.061844
H	1.873033	0.596487	-1.471164
H	0.888961	1.869741	-1.813323
C	-0.010648	-1.21922	-2.125004
N	0.021929	-2.303041	-2.57746
C	-0.493476	1.213869	0.762916
H	-1.580921	1.329762	0.727671
H	-0.181153	1.133001	1.807765
H	-0.039472	2.125231	0.365232
F	2.713146	0.0	0.0
