15

C	-0.059571	0.046763	-1.522976
C	0.0	0.0	0.0
Br	-1.818894	0.769927	-2.198701
H	1.097597	0.0	0.0
H	-0.327032	0.979737	0.366944
N	1.01499	0.850613	-2.083761
H	0.827753	1.811729	-1.807746
H	1.844891	0.563895	-1.506592
C	0.018058	-1.302661	-2.100966
N	0.08544	-2.39222	-2.537233
C	-0.698874	-1.146059	0.695759
H	-0.278203	-2.104627	0.383367
H	-0.557525	-1.064743	1.777102
H	-1.776321	-1.159682	0.494294
F	2.709948	0.0	0.0
