15

C	-0.053212	0.087224	-1.537869
C	0.0	0.0	0.0
Br	-1.767095	1.347068	-2.075962
H	1.095321	0.0	0.0
H	-0.35545	0.944062	0.411144
N	1.136739	0.602273	-2.005898
H	1.339308	0.420233	-2.978032
H	1.941949	0.483027	-1.305542
C	-0.49916	-1.135374	-2.216369
N	-0.74758	-2.151583	-2.754188
C	-0.688607	-1.198629	0.615388
H	-1.752423	-1.235656	0.354206
H	-0.621073	-1.151966	1.708221
H	-0.218644	-2.130879	0.289943
F	2.760047	0.0	0.0
