15

C	-0.070415	0.044378	-1.531242
C	0.0	0.0	0.0
Br	-1.774282	1.245178	-2.111333
H	1.098146	0.0	0.0
H	-0.343457	0.962023	0.383298
N	1.109842	0.570906	-2.022482
H	1.299411	0.381539	-2.99597
H	1.925109	0.444979	-1.343292
C	-0.476061	-1.215767	-2.162313
N	-0.693827	-2.241681	-2.698955
C	-0.684208	-1.174065	0.664173
H	-1.762032	-1.193603	0.460814
H	-0.548683	-1.118216	1.749867
H	-0.251732	-2.121514	0.328241
F	2.757004	0.0	0.0
