15

C	-0.536767	-0.024942	-1.419079
C	0.0	0.0	0.0
Br	0.238309	-1.56097	-2.401453
H	1.093482	0.0	0.0
H	-0.335771	0.960407	0.423074
N	-1.989037	-0.13955	-1.599701
H	-2.406239	0.604011	-1.043568
H	-2.273565	-1.018489	-1.180312
C	-0.109967	1.180458	-2.141646
N	0.156858	2.183264	-2.693199
C	-0.486644	-1.152482	0.865738
H	-0.001238	-1.069928	1.841166
H	-1.572327	-1.179626	1.029337
H	-0.173126	-2.107876	0.438052
F	2.639503	0.0	0.0
