14

C	-0.427036	0.037738	-1.451284
C	0.0	0.0	0.0
Cl	-2.155731	0.448013	-1.680633
H	1.093693	0.0	0.0
H	0.155298	0.771342	-2.006539
H	-0.316006	0.952775	0.435249
N	-0.144521	-1.275718	-2.15254
O	0.994277	-1.39692	-2.567124
O	-1.013009	-2.13005	-2.197964
C	-0.544406	-1.170103	0.805997
H	-0.244788	-1.047958	1.848666
H	-1.633938	-1.239921	0.759518
H	-0.122136	-2.114115	0.458485
Br	3.570104	0.0	0.0
