14

C	-0.433998	-0.003391	-1.443353
C	0.0	0.0	0.0
Cl	-0.09073	1.52475	-2.263474
H	1.09331	0.0	0.0
H	0.031167	-0.803593	-2.014931
H	-0.363095	0.913301	0.476983
N	-1.917808	-0.268357	-1.527709
O	-2.677927	0.56497	-1.047983
O	-2.253958	-1.349428	-2.011108
C	-0.489697	-1.242578	0.738852
H	-0.033113	-1.26732	1.729826
H	-1.576825	-1.25875	0.860122
H	-0.185114	-2.153843	0.217732
Br	3.61001	0.0	0.0
