14
Coordinates from ORCA-job run
  C   1.12180322273013     -0.26783590147866     -0.37981376409863
  C   -0.30930662746971      0.23628363613102     -0.13075737835910
  Cl  1.49317505062642     -1.77410271332407      0.49960117504427
  H   -0.42150618323979      1.07969059982841     -0.83482838002591
  H   1.24156428071987     -0.49068230401227     -1.44339352472963
  C   2.08392187320873      0.76735891684050     -0.00859666437185
  N   2.80317879526684      1.64710872055207      0.28785226679432
  N   -0.44822337815779      0.62302024824152      1.26129418385832
  H   0.02809920705841      1.49799194813880      1.44620792621894
  H   -1.42532062775956      0.74497678642526      1.49402697447217
  C   -1.34233970282269     -0.82103622055957     -0.48351194931828
  H   -1.17401571493825     -1.22500555762161     -1.48433687927805
  H   -2.34305007853151     -0.38176475852938     -0.46245679321802
  H   -1.30598011669109     -1.63700340063201      0.23871280701144
