14
Coordinates from ORCA-job run
  C   1.11021671520859      0.41237363728740     -0.48099985415883
  C   -0.40246457704449      0.40626436977336     -0.20245612138781
  Cl  1.45309209073643      0.04237866841112     -2.19845027674514
  H   -0.85783494953962      1.03053222694293     -0.98487437078611
  H   1.50219538743731      1.41661890590812     -0.30465273874097
  C   1.81776884996466     -0.52569171563063      0.38482717903555
  N   2.37590765363564     -1.29563077444299      1.07316129858694
  N   -0.56148393172823      0.95091652816912      1.13971230027334
  H   -0.59547972897607      1.96247371407309      1.12467719715602
  H   -1.41403610209506      0.61376436472879      1.56713124815812
  C   -0.99148817351251     -0.99148902454410     -0.27055891914589
  H   -2.07822647795127     -0.94124941885230     -0.16535464227976
  H   -0.59210437485835     -1.60600012167909      0.53984338650108
  H   -0.76706238127704     -1.47426136014482     -1.22200568646652
