14
Coordinates from ORCA-job run
  C   1.15419009936134     -0.18543134482212     -0.31622696604741
  C   -0.30348181877473      0.26227325833242     -0.15241025748585
  Cl  1.59156709964468     -1.44750478357876      0.88121843918918
  H   -0.43532809882947      1.05619848420116     -0.89827066356386
  H   1.29448564523870     -0.64432327650749     -1.29799736385521
  C   2.06879395381419      0.94443903730522     -0.18594426709177
  N   2.78833982939563      1.87004819388214     -0.12902643677729
  N   -0.45834910592636      0.87841889621271      1.15435662375350
  H   -0.51817422289888      0.16711535780710      1.87343963236197
  H   -1.30861618630654      1.42593953127600      1.18525270523112
  C   -1.27756113797298     -0.87034331507873     -0.47098630635004
  H   -1.11446469155069     -1.27952151193489     -1.47252319238521
  H   -1.17938933633632     -1.68216814316237      0.25261701899833
  H   -2.30201202885856     -0.49414038393241     -0.42249896597746
