14
Coordinates from ORCA-job run
  C   1.11586444266402      0.25913116204209      0.09869852390563
  C   -0.38758654840549      0.29915239224579     -0.26405534903327
  Cl  1.89991271101043      1.83080273941339     -0.25585890249150
  H   -0.44607298561620      0.52960926631197     -1.33327572143467
  H   1.22236168285507      0.10005727889223      1.17587003732885
  C   1.82691829159056     -0.79626040246802     -0.61467724581401
  N   2.35911351919692     -1.66331860949119     -1.20181941291176
  N   -1.13500599884649      1.31775555512505      0.44471220796414
  H   -0.74339267162764      2.23766298545099      0.28724383186082
  H   -1.13154536722018      1.13513647341497      1.44191759992430
  C   -1.01762430623396     -1.06172054141097      0.00059379391754
  H   -2.07965681433836     -1.00648117754723     -0.23945283013817
  H   -0.56005146127095     -1.85114261704788     -0.59657259971559
  H   -0.92323449375772     -1.33238450493119      1.05767606663771
