14
Coordinates from ORCA-job run
  C   1.16906730542983      0.27798066700394     -0.03214233346976
  C   -0.35575661501755      0.27765118857492     -0.17544644787364
  Cl  1.86168984186218      1.82914133142711     -0.60788217845620
  H   -0.58092373967911      0.45272269591587     -1.23902588172903
  H   1.41279994775701      0.20802822656822      1.03055226168356
  C   1.79092494965075     -0.81869662009034     -0.76630464413162
  N   2.26165599270287     -1.71874625131498     -1.35564923939947
  N   -0.87658262233287      1.30922456195937      0.71252115841791
  H   -1.88560058595494      1.23585776861073      0.75910352358031
  H   -0.65424844902731      2.23050058785333      0.35481303291510
  C   -0.92027698532916     -1.07125309912346      0.24712717727008
  H   -0.66633947411173     -1.27325992381503      1.29049839782431
  H   -2.00995408186634     -1.05774955923446      0.16127874161230
  H   -0.54745548408364     -1.88240157433522     -0.37944356824385
