14
Coordinates from ORCA-job run
  C   1.11806620761418     -0.02891408313449     -0.47231490767201
  C   -0.33658562065725      0.22993284547719     -0.04676262076571
  Cl  1.67676982315611     -1.67563898443078     -0.07740778315992
  H   -0.56581486353648      1.22374930913640     -0.47025828861830
  H   1.19566601540410      0.07407909186738     -1.55792899203054
  C   2.00008616566614      0.95336651848238      0.15439145773842
  N   2.65145645352337      1.78283995332106      0.67069293317950
  N   -0.43072632635135      0.18332827278660      1.40090737468453
  H   -0.02910476181617      1.01415569673070      1.81940977449914
  H   -1.39987032916736      0.12783233718164      1.68622588100114
  C   -1.28630015882693     -0.78322382391281     -0.66413756111311
  H   -1.13533962727041     -1.76344958233428     -0.21140583660683
  H   -2.32038483646150     -0.47490609628652     -0.49027768136319
  H   -1.13691814127644     -0.86415145488446     -1.74313374977314
