14
Coordinates from ORCA-job run
  C   1.12064032056096      0.42591469158720     -0.44441626701992
  C   -0.39775861089486      0.41243579392577     -0.19852798267529
  Cl  1.50072660787453      0.10557775149480     -2.16409704732782
  H   -0.83584920501284      1.06202111943358     -0.97005152966969
  H   1.50785043742748      1.42483680138799     -0.23099629579876
  C   1.81001429669027     -0.53619695033860      0.40968496102598
  N   2.35343893122533     -1.32537900395989      1.08788054031187
  N   -0.58449302129310      0.91408742761563      1.15669920164495
  H   -0.62158020097844      1.92532067062948      1.17342380960953
  H   -1.44312619909519      0.56085406003381      1.55766260568837
  C   -0.98611398482659     -0.98145614430961     -0.32431767820984
  H   -0.74644720744652     -1.43142914912603     -1.28799409534937
  H   -2.07438691482576     -0.93328602847864     -0.23568234944855
  H   -0.60091524940527     -1.62430103989548      0.47073212721854
