15

C	-0.440413	-0.024857	-1.45054
C	0.0	0.0	0.0
Br	0.042487	1.643151	-2.304226
H	1.093082	0.0	0.0
H	-0.322932	-0.931383	0.471574
C	0.180653	-1.197995	-2.185516
H	-0.106714	-1.185719	-3.236867
H	1.26446	-1.137721	-2.082637
H	-0.169346	-2.123561	-1.719301
N	-1.95957	-0.204035	-1.542013
O	-2.534478	0.173202	-2.55384
O	-2.485661	-0.817194	-0.615738
C	-0.54479	1.119037	0.754468
N	-1.009764	2.004389	1.369331
Cl	3.339058	0.0	0.0
