15

C	-0.376125	0.047084	-1.472153
C	0.0	0.0	0.0
Br	-2.329154	0.06049	-1.727296
H	1.095639	0.0	0.0
H	-0.361446	-0.915917	0.466652
C	0.257667	1.212185	-2.18867
H	-0.101961	2.139659	-1.740187
H	0.018216	1.201963	-3.249454
H	1.340154	1.140744	-2.043296
N	0.069672	-1.272877	-2.108171
O	0.472112	-1.228108	-3.265067
O	-0.050038	-2.287156	-1.431411
C	-0.500514	1.165734	0.710687
N	-0.916002	2.105638	1.279052
Cl	3.279746	0.0	0.0
