15

C	-0.416782	-0.013771	-1.456617
C	0.0	0.0	0.0
Br	-2.361505	0.225893	-1.62986
H	1.091909	0.0	0.0
H	-0.295763	0.977925	0.397695
C	0.320558	1.056674	-2.230628
H	0.080042	2.034227	-1.810228
H	0.041689	1.030778	-3.281752
H	1.394202	0.877589	-2.108472
N	-0.116091	-1.358283	-2.118736
O	-0.304011	-1.414908	-3.328774
O	0.297668	-2.268673	-1.412534
C	-0.589175	-1.025913	0.848182
N	-1.083634	-1.814004	1.566093
Cl	3.302288	0.0	0.0
