15

C	-0.453899	0.2095	-1.439249
C	0.0	0.0	0.0
Br	-0.02457	1.995184	-2.044207
H	1.104767	0.0	0.0
H	-0.318112	-1.003839	0.301901
C	0.206447	-0.807142	-2.349772
H	-0.112802	-0.665506	-3.384006
H	1.287467	-0.674906	-2.266884
H	-0.057452	-1.813299	-2.021577
N	-1.977469	0.014466	-1.477179
O	-2.726412	0.973895	-1.60582
O	-2.337094	-1.151328	-1.315297
C	-0.547358	0.970861	0.936153
N	-1.005472	1.731815	1.704464
Cl	3.292461	0.0	0.0
