15

C	-0.407283	-0.014809	-1.460659
C	0.0	0.0	0.0
Br	-2.353826	0.190036	-1.656324
H	1.101282	0.0	0.0
H	-0.296348	0.977606	0.394277
C	0.318929	1.070827	-2.224108
H	0.059609	2.043513	-1.803321
H	0.050797	1.044532	-3.278427
H	1.394029	0.906838	-2.092562
N	-0.077663	-1.353673	-2.120196
O	0.278944	-2.272989	-1.394132
O	-0.194407	-1.403771	-3.340547
C	-0.592395	-1.021578	0.848701
N	-1.103332	-1.784274	1.580332
Cl	3.300714	0.0	0.0
