15

C	-0.547374	-0.09152	-1.422928
C	0.0	0.0	0.0
Br	0.106494	-1.691877	-2.287235
H	1.105281	0.0	0.0
H	-0.32264	0.955832	0.422588
C	-2.065162	-0.055302	-1.50244
H	-2.476791	-0.928824	-0.996651
H	-2.426938	0.852019	-1.013444
H	-2.390623	-0.062753	-2.544906
N	-0.061019	1.151411	-2.182339
O	0.429671	1.039559	-3.295286
O	-0.304578	2.209853	-1.605823
C	-0.527393	-1.078465	0.822537
N	-0.99532	-1.928008	1.485151
Cl	3.296911	0.0	0.0
