15

C	-0.547195	-0.03983	-1.42269
C	0.0	0.0	0.0
Br	0.098435	-1.669132	-2.265928
H	1.094216	0.0	0.0
H	-0.310313	-0.931216	0.485675
C	-2.059123	0.018504	-1.524289
H	-2.492986	-0.801155	-0.951204
H	-2.369041	-0.062893	-2.564917
H	-2.412937	0.966453	-1.109517
N	-0.017786	1.138895	-2.239577
O	-0.28495	1.138578	-3.437444
O	0.561111	2.027605	-1.626173
C	-0.555144	1.111031	0.765313
N	-1.062626	1.966253	1.390949
Cl	3.314271	0.0	0.0
