14

C	-0.552338	0.020468	-1.396279
C	0.0	0.0	0.0
Br	0.334007	-1.510525	-2.398123
H	1.089316	0.0	0.0
H	-0.292885	-0.947854	0.465862
N	-1.956299	-0.021748	-1.499772
H	-2.245785	-0.062659	-2.469302
H	-2.321744	-0.809259	-0.982834
N	-0.107992	1.25494	-2.162291
O	-0.660744	1.442582	-3.245613
O	0.768165	1.947909	-1.661531
C	-0.517263	1.105238	0.789611
N	-0.909454	1.991701	1.454599
H	2.662559	0.0	0.0
