14

C	-0.291786	-0.012159	-1.493983
C	0.0	0.0	0.0
Br	0.097976	1.777548	-2.200179
H	1.093014	0.0	0.0
H	-0.409258	0.872882	0.508277
N	0.463459	-0.962994	-2.226052
H	0.117087	-1.891525	-2.014799
H	1.42444	-0.876524	-1.872603
N	-1.789099	-0.247473	-1.717597
O	-2.118745	-1.292753	-2.272091
O	-2.557215	0.581774	-1.242697
C	-0.476406	-1.22961	0.606456
N	-0.848689	-2.232681	1.094975
H	2.687697	0.0	0.0
