14

C	-0.268964	0.096344	-1.489594
C	0.0	0.0	0.0
Br	-2.124636	0.677898	-1.907912
H	1.094068	0.0	0.0
H	-0.275592	0.959859	0.447641
N	0.644589	0.965564	-2.148358
H	1.577322	0.744179	-1.757714
H	0.42256	1.916114	-1.876794
N	-0.103438	-1.308391	-2.097264
O	0.92833	-1.513685	-2.722742
O	-0.979839	-2.130935	-1.855323
C	-0.606347	-1.076438	0.751309
N	-1.057265	-1.923302	1.431197
H	2.668185	0.0	0.0
