14

C	-0.56032	-0.01228	-1.41587
C	0.0	0.0	0.0
Br	0.098246	-1.55335	-2.379743
H	1.091796	0.0	0.0
H	-0.311993	0.940401	0.467343
N	-1.997983	0.030878	-1.577941
H	-2.350645	0.755854	-0.961276
H	-2.376301	-0.858931	-1.27529
N	-0.074646	1.284277	-2.085051
O	0.66506	1.258834	-3.052552
O	-0.539134	2.293397	-1.553758
C	-0.546875	-1.108384	0.75671
N	-0.995797	-2.009841	1.364629
H	2.694373	0.0	0.0
