14

C	-0.236108	-0.121783	-1.483027
C	0.0	0.0	0.0
Br	-0.008507	1.798222	-2.263417
H	1.104694	0.0	0.0
H	-0.404625	0.915912	0.423388
N	0.609918	-1.060522	-2.019423
H	0.565892	-1.144368	-3.024577
H	1.564161	-0.928814	-1.638864
N	-1.681299	-0.391264	-1.905604
O	-2.560194	-0.023857	-1.135185
O	-1.855259	-0.925424	-2.998191
C	-0.484392	-1.168408	0.712315
N	-0.860952	-2.102116	1.318063
H	2.671026	0.0	0.0
