14

C	-0.218966	0.240238	-1.465693
C	0.0	0.0	0.0
Br	-2.132811	0.580498	-2.012603
H	1.105702	0.0	0.0
H	-0.38834	-0.962026	0.327094
N	0.60735	1.264765	-1.901169
H	0.6708	1.296625	-2.910073
H	1.537556	1.120413	-1.469191
N	0.05066	-1.118108	-2.214745
O	0.604432	-1.029014	-3.30504
O	-0.32178	-2.158326	-1.687414
C	-0.491851	1.081487	0.823648
N	-0.870335	1.935838	1.536394
H	2.646005	0.0	0.0
