14

C	-0.192719	0.245758	-1.472818
C	0.0	0.0	0.0
Br	-2.082135	0.693672	-2.041125
H	1.099551	0.0	0.0
H	-0.402626	-0.957744	0.321403
N	0.697809	1.213941	-1.901874
H	1.613893	1.03155	-1.444347
H	0.781931	1.236031	-2.909555
N	0.000811	-1.131027	-2.214532
O	0.573273	-1.079752	-3.297454
O	-0.43534	-2.146716	-1.687004
C	-0.485986	1.088737	0.818336
N	-0.859813	1.949449	1.525502
H	2.657091	0.0	0.0
