14

C	-0.459287	0.051225	-1.400056
C	0.0	0.0	0.0
Br	-2.670539	0.302216	-1.424044
H	1.092042	0.0	0.0
H	-0.250582	0.96457	0.454025
N	0.153967	1.022957	-2.137254
H	0.339931	1.881804	-1.645976
H	-0.195355	1.131497	-3.075614
N	-0.358304	-1.246317	-2.17705
O	-0.077093	-2.26093	-1.553225
O	-0.53521	-1.170228	-3.388388
C	-0.569504	-1.031234	0.84044
N	-0.998609	-1.806597	1.611944
H	2.558008	0.0	0.0
