14

C	-0.235755	-0.140629	-1.486278
C	0.0	0.0	0.0
Br	-0.059725	1.769331	-2.296842
H	1.090774	0.0	0.0
H	-0.410754	0.916418	0.416482
N	0.634523	-1.066476	-1.998557
H	0.588429	-1.185521	-2.99897
H	1.581188	-0.895472	-1.623025
N	-1.673904	-0.454677	-1.892614
O	-2.564377	-0.04624	-1.15721
O	-1.829763	-1.081839	-2.936494
C	-0.490373	-1.170616	0.706532
N	-0.877168	-2.111341	1.29463
H	2.697986	0.0	0.0
