12

C	0.0	0.0	0.0
C	-0.391895	-0.154601	-1.471941
Cl	1.788308	0.0	0.0
H	-1.376262	-0.601179	-1.551066
H	-0.320486	0.963326	0.37804
H	0.366965	-0.712104	-2.025078
C	-0.602313	-1.070538	0.803366
N	-0.59065	-2.030537	1.500225
N	-0.498441	1.150797	-2.181678
O	-1.014723	1.110577	-3.296127
O	-0.063818	2.168383	-1.649368
H	-2.339347	0.0	0.0
