12

C	0.0	0.0	0.0
C	-0.372629	-0.161909	-1.475729
Cl	1.789742	0.0	0.0
H	0.057477	0.649928	-2.059233
H	-0.252249	1.021028	0.294939
H	-0.040785	-1.134836	-1.841715
C	-0.856742	-0.880247	0.815567
N	-0.96642	-1.7614	1.619161
N	-1.857381	-0.081294	-1.670774
O	-2.405075	-1.173695	-1.972813
O	-2.283528	1.035424	-2.081848
H	-1.960274	0.0	0.0
