18

C	-0.509796	0.010003	-1.557957
C	0.155798	0.058259	-0.176746
F	-1.88719	-0.209581	-1.37851
H	1.230087	0.213043	-0.332854
C	-0.388606	1.305066	-2.258788
N	-0.279567	2.31747	-2.843714
C	0.024281	-1.105817	-2.432454
H	-0.553136	-1.165734	-3.357654
H	-0.054366	-2.029371	-1.861628
H	1.074096	-0.922646	-2.671433
N	0.010115	-1.251963	0.442909
H	-0.852414	-1.263064	0.97665
H	0.783156	-1.324537	1.109329
C	-0.369115	1.206981	0.679635
H	-1.440005	1.080441	0.867933
H	0.175654	1.18097	1.624359
H	-0.211731	2.183592	0.211849
Cl	2.628136	-0.460278	2.222029
