18

C	-0.512393	-0.011449	-1.554829
C	0.15716	0.058261	-0.176358
F	-1.8844	-0.257901	-1.36863
H	1.227738	0.233241	-0.337044
C	-0.41928	1.281862	-2.263148
N	-0.323235	2.293798	-2.85117
C	0.040642	-1.121307	-2.425
H	-0.539446	-1.198544	-3.347233
H	1.085481	-0.918282	-2.669709
H	-0.016697	-2.042784	-1.848293
N	0.039353	-1.251066	0.451204
H	-0.820856	-1.276204	0.988168
H	0.816288	-1.30448	1.11496
C	-0.387721	1.201212	0.675244
H	0.160001	1.191469	1.618567
H	-1.455422	1.054834	0.867114
H	-0.250519	2.178094	0.201692
Cl	2.652082	-0.402126	2.209916
