11
Coordinates from ORCA-job run
  C   -0.83768905447719     -0.45772692841361     -0.04518676061319
  C   0.63568025556426     -0.06398374585946      0.22302372374783
  Br  -1.28941464296105     -0.23776356578645     -1.91886638113514
  H   0.81563730168970     -0.19753980431834      1.29870110791916
  H   -0.96236644444826     -1.51921310424739      0.18187309901613
  C   -1.72717161665780      0.33438528937692      0.79244852753459
  N   -2.42204684711391      0.96947436529937      1.49587816352961
  C   0.88671870398579      1.34154482962435     -0.10827167101204
  N   1.08464187646868      2.47307052599364     -0.35087082490390
  C   1.54702826920926     -0.95189900966337     -0.50500201427957
  N   2.26798219874051     -1.69034885200567     -1.06472696980347
