11
Coordinates from ORCA-job run
  C   -0.81207779028469     -0.45494702704630      0.05750365751034
  C   0.55982375720724      0.16013435711241     -0.31905335480079
  Br  -1.45880443660560     -1.56277097394875     -1.40191927268365
  H   0.42887454814966      0.76082218459219     -1.22705378582958
  H   -0.69734742797168     -1.10945612208550      0.92448176947857
  C   -1.77442552746631      0.59814596850442      0.34837025410081
  N   -2.53793729250956      1.46080861766029      0.58087726213328
  C   1.54850923357594     -0.88935998058002     -0.58436847600456
  N   2.34436701523579     -1.72825888309375     -0.78810993821289
  C   1.02390767825194      1.03269844681999      0.76620910691911
  N   1.37411024241727      1.73118341206502      1.64306277738936
