11
Coordinates from ORCA-job run
  C   -0.86819082799333     -0.36507559605598     -0.36802716367391
  C   0.63548661443032     -0.00596796890185     -0.45159277924206
  Br  -1.85557167539073      0.66124208795011     -1.68987860961245
  H   0.95769436892053     -0.16305739705472     -1.48775952180835
  H   -0.99233861256631     -1.41697649558231     -0.63489031699301
  C   -1.39689815010953     -0.12554102419290      0.96654543773598
  N   -1.80585596903304      0.06263926895410      2.05207171384293
  C   1.40005643007856     -0.90543703684917      0.42051905184968
  N   1.99013430242204     -1.65743733326633      1.10290092053852
  C   0.87287534928422      1.39590996203164     -0.09594539372532
  N   1.06260816995725      2.51970153296740      0.18605666108800
