13

C	0.0	0.0	0.0
C	-0.499826	0.13534	-1.437717
Br	1.96113	0.0	0.0
H	-0.207208	1.099547	-1.848895
H	-1.599091	0.032866	-1.385911
C	-0.393264	1.195678	0.751322
N	-0.547293	2.193025	1.353917
C	-0.41511	-1.212279	0.711504
N	-0.58084	-2.169122	1.374478
N	0.041615	-0.903508	-2.342734
O	0.192244	-2.037904	-1.897409
O	0.254809	-0.55923	-3.504359
Cl	-3.261001	0.0	0.0
