13

C	0.0	0.0	0.0
C	-0.51785	-0.262278	-1.41158
Br	1.961777	0.0	0.0
H	-0.225989	-1.255863	-1.745689
H	-1.61897	-0.168691	-1.343038
C	-0.422054	1.265833	0.602947
N	-0.605259	2.278641	1.17087
C	-0.386473	-1.125553	0.855542
N	-0.586284	-2.044498	1.560262
N	-0.016325	0.700575	-2.417852
O	0.06671	0.282085	-3.570289
O	0.22433	1.848878	-2.055935
Cl	-3.287878	0.0	0.0
