13

C	0.0	0.0	0.0
C	-0.50208	-0.283525	-1.415181
Br	1.961067	0.0	0.0
H	-1.601885	-0.176083	-1.370853
H	-0.211492	-1.285593	-1.723694
C	-0.416949	1.279	0.581979
N	-0.571782	2.303428	1.137659
C	-0.394787	-1.110144	0.871669
N	-0.57688	-2.01669	1.597679
N	0.037398	0.655394	-2.424341
O	0.186213	1.830104	-2.098771
O	0.250231	0.192082	-3.544116
Cl	-3.267876	0.0	0.0
