14

C	0.0	0.0	0.0
C	-0.522029	0.607562	-1.310014
Cl	1.795746	0.0	0.0
H	-0.117692	-0.00537	-2.122557
H	-0.072972	1.602753	-1.391554
C	-0.419591	0.802976	1.154082
N	-0.699001	1.509433	2.050728
C	-0.43397	-1.391323	0.151291
N	-0.733768	-2.524205	0.232597
C	-2.042968	0.667704	-1.34107
H	-2.37524	1.117461	-2.279206
H	-2.516632	-0.31002	-1.257595
H	-2.459595	1.262538	-0.528728
Br	-5.240667	0.0	0.0
