14

C	0.0	0.0	0.0
C	-0.499219	-0.1979	-1.438548
Cl	1.795421	0.0	0.0
H	-1.5703	0.024218	-1.406299
H	0.012508	0.552249	-2.049836
C	-0.402891	1.31074	0.524534
N	-0.576618	2.401583	0.924766
C	-0.418069	-1.078088	0.902741
N	-0.593658	-1.983124	1.63136
C	-0.273431	-1.60815	-1.958779
H	0.772662	-1.917743	-1.891832
H	-0.891535	-2.314744	-1.401366
H	-0.57761	-1.658595	-3.006993
Br	-3.595439	0.0	0.0
