14

C	0.0	0.0	0.0
C	-0.527429	-0.368871	-1.393045
Cl	1.795608	0.0	0.0
H	-0.103928	0.35966	-2.091596
H	-0.106537	-1.349084	-1.639454
C	-0.426933	1.348491	0.389222
N	-0.716637	2.44678	0.68963
C	-0.427352	-0.976364	1.007424
N	-0.676658	-1.790057	1.817787
C	-2.049468	-0.377126	-1.436609
H	-2.489262	0.585485	-1.175886
H	-2.39132	-0.629707	-2.442081
H	-2.493704	-1.095641	-0.749368
Br	-5.254923	0.0	0.0
