14

C	0.0	0.0	0.0
C	-0.523529	-0.512263	-1.348409
Cl	1.79592	0.0	0.0
H	-0.123568	-1.523827	-1.471971
H	-0.072786	0.116819	-2.122536
C	-0.42673	1.380523	0.25
N	-0.702307	2.513075	0.400548
C	-0.422538	-0.878647	1.096345
N	-0.709707	-1.628864	1.953938
C	-2.04525	-0.490876	-1.411075
H	-2.383467	-0.923646	-2.355022
H	-2.458376	0.515691	-1.343887
H	-2.522912	-1.053203	-0.608452
Br	-5.259221	0.0	0.0
