13

C	-0.29641	-0.006726	-1.478639
C	0.0	0.0	0.0
Br	-2.221425	0.129362	-1.917292
H	1.095217	0.0	0.0
H	-0.001338	-0.991249	-1.846938
C	0.429057	0.994491	-2.252922
N	0.994233	1.731298	-2.971952
C	-0.515553	-1.174979	0.66134
N	-0.888812	-2.175689	1.153324
N	-0.434425	1.228969	0.683649
O	-0.468631	2.259787	0.013145
O	-0.663435	1.161024	1.890207
F	2.410978	0.0	0.0
