13

C	-0.281725	0.001833	-1.481331
C	0.0	0.0	0.0
Br	-2.205439	0.047338	-1.94502
H	1.095162	0.0	0.0
H	0.071332	-0.959624	-1.857502
C	0.401402	1.048529	-2.232372
N	0.942648	1.827075	-2.923999
C	-0.497362	-1.190739	0.647532
N	-0.859064	-2.19695	1.136049
N	-0.456065	1.211134	0.698092
O	-0.645658	1.130821	1.911174
O	-0.551774	2.242631	0.032647
F	2.411178	0.0	0.0
