13

C	-0.315242	0.027444	-1.492228
C	0.0	0.0	0.0
Br	0.238074	-1.656559	-2.305228
H	1.094909	0.0	0.0
H	0.312729	0.794819	-1.941634
C	-1.719569	0.259549	-1.81082
N	-2.853123	0.446568	-2.058744
C	-0.598882	-1.095193	0.722365
N	-1.080582	-2.006977	1.287789
N	-0.376863	1.295538	0.607143
O	-0.558864	1.333321	1.821113
O	-0.399388	2.275906	-0.141894
F	2.430133	0.0	0.0
