13

C	-0.500808	0.040593	-1.43916
C	0.0	0.0	0.0
Br	0.528342	1.302177	-2.530324
H	1.091601	0.0	0.0
H	-1.531265	0.397327	-1.497017
C	-0.395871	-1.271126	-2.066481
N	-0.350468	-2.32048	-2.593514
C	-0.484572	-1.170859	0.700989
N	-0.869227	-2.136402	1.252309
N	-0.448776	1.199572	0.752169
O	-0.162219	1.230877	1.945387
O	-1.046182	2.091832	0.144828
F	2.42382	0.0	0.0
