13

C	-0.503653	-0.087622	-1.437121
C	0.0	0.0	0.0
Br	0.422286	1.203732	-2.584692
H	1.091633	0.0	0.0
H	-1.56179	0.171483	-1.514372
C	-0.27287	-1.418324	-1.989351
N	-0.129691	-2.485267	-2.460922
C	-0.500816	-1.105261	0.792682
N	-0.904874	-2.010716	1.426452
N	-0.476912	1.251856	0.657644
O	-1.301281	1.961901	0.075161
O	-0.0103	1.482236	1.767845
F	2.4324	0.0	0.0
