16

C	-0.404557	-0.023663	-1.459475
C	0.0	0.0	0.0
F	-0.123617	1.184128	-2.091527
H	1.097026	0.0	0.0
H	0.167519	-0.799754	-1.980257
C	-1.850391	-0.278495	-1.646299
N	-2.997855	-0.493323	-1.775628
C	-0.429488	-1.298065	0.674327
H	0.020206	-1.342382	1.669412
H	-0.058843	-2.168181	0.122015
H	-1.517536	-1.384899	0.775984
C	-0.528908	1.228568	0.718604
H	-0.131169	1.24567	1.737075
H	-0.193113	2.139404	0.220037
H	-1.625054	1.239534	0.774718
H	2.934641	0.0	0.0
