13

C	0.0	0.0	0.0
C	-0.493014	-0.301309	-1.398641
F	1.359734	0.0	0.0
H	-1.594916	-0.279772	-1.368246
H	-0.120749	0.487249	-2.056719
N	-0.372947	1.425636	0.41278
O	-0.441103	1.647345	1.613679
O	-0.436622	2.250745	-0.492732
C	-0.453057	-0.930922	1.040119
N	-0.716402	-1.706008	1.883288
C	0.020286	-1.593594	-1.834366
N	0.434977	-2.629757	-2.199635
Cl	-3.322021	0.0	0.0
