13

C	0.0	0.0	0.0
C	-0.528425	0.154073	-1.415236
F	1.346851	0.0	0.0
H	-0.485158	-0.82719	-1.897119
H	-1.592744	0.423952	-1.331957
N	-0.370026	1.200948	0.872906
O	-0.573301	2.257974	0.29368
O	-0.294845	1.019352	2.081755
C	-0.451785	-1.234782	0.653793
N	-0.630434	-2.299708	1.1159
C	0.254984	1.102111	-2.197736
N	0.883017	1.823072	-2.878733
Cl	-3.324824	0.0	0.0
