13

C	0.0	0.0	0.0
C	-0.277278	-0.18672	-1.506224
F	1.355096	0.0	0.0
H	0.021201	-1.215767	-1.737668
H	0.475222	0.457063	-1.970509
N	-0.321577	1.415581	0.497867
O	-0.674177	1.564046	1.654405
O	-0.033319	2.295732	-0.301682
C	-0.436611	-1.0363	0.934283
N	-0.638508	-1.995642	1.583962
C	-1.508434	0.137187	-2.2198
N	-2.138159	0.502308	-3.143847
Cl	-3.014499	0.0	0.0
