13

C	0.0	0.0	0.0
C	-0.527103	-0.049635	-1.42328
F	1.346851	0.0	0.0
H	-1.590846	0.229135	-1.379181
H	-0.482308	-1.088736	-1.76193
N	-0.373433	1.315511	0.688645
O	-0.297439	1.314892	1.910689
O	-0.584817	2.27292	-0.04068
C	-0.453996	-1.12763	0.822551
N	-0.610673	-2.113107	1.442596
C	0.252382	0.781744	-2.331956
N	0.87069	1.414134	-3.104453
Cl	-3.320874	0.0	0.0
