13

C	0.0	0.0	0.0
C	-0.43426	-0.245733	-1.43412
F	1.360041	0.0	0.0
H	-1.528499	-0.185903	-1.478796
H	0.016368	0.54337	-2.040381
N	-0.370566	1.412035	0.453364
O	-0.411219	2.267682	-0.420543
O	-0.447527	1.589283	1.660682
C	-0.469598	-0.981865	0.979108
N	-0.611327	-1.842345	1.76678
C	0.063149	-1.542006	-1.880639
N	0.47855	-2.572297	-2.260035
Cl	-3.216502	0.0	0.0
