17
Coordinates from ORCA-job run
  C   0.79262137782648     -0.63230214841342     -0.32185683581714
  C   -0.59652919806690      0.01135114755190     -0.33708432597567
  F   0.61059821009095     -2.01368950316222     -0.56879858230577
  H   -1.04427978513962     -0.30869533951584     -1.28469352857795
  C   1.61504344214478     -0.14040023919197     -1.44753149359631
  N   2.25508319058471      0.24807969240909     -2.35117685102695
  N   1.48817993276229     -0.40076765001141      0.88856220570646
  H   0.97314773214191     -0.77719208639741      1.67376617656401
  H   2.41392654736831     -0.80962362939228      0.86587141869281
  C   -0.50869864264392      1.53375980581795     -0.30784324287557
  H   0.04639200948531      1.92557401217494     -1.16293139425196
  H   -0.01228881602409      1.87029584309923      0.60428048851994
  H   -1.51319247991432      1.96299614849173     -0.33541501316229
  C   -1.45632284610647     -0.52448780261124      0.80680764068144
  H   -1.43126925066818     -1.61463728529937      0.85147067646833
  H   -1.13861293494150     -0.11665313708984      1.77077598421152
  H   -2.49379848889974     -0.21760782845986      0.65779667674510
