17
Coordinates from ORCA-job run
  C   0.81085116794085     -0.62298977486723     -0.29296096602774
  C   -0.58938406799254     -0.00588108945785     -0.35034215659289
  F   0.66002159339038     -2.01115999053631     -0.52207152162858
  H   -1.01010904961985     -0.35193947349077     -1.30119645075228
  C   1.64968385447548     -0.13285383729871     -1.40728790162177
  N   2.30099787630048      0.25484888203256     -2.30339823321552
  N   1.47318200376987     -0.35981689589604      0.92951360179358
  H   0.94710407040782     -0.73484555210954      1.70815749834554
  H   2.40701835192463     -0.75047843433805      0.93477150935808
  C   -0.52962875830937      1.51815538463134     -0.34871363631416
  H   0.02959577454367      1.90391347162691     -1.20371195603549
  H   -1.54100220649880      1.92865010151796     -0.39778189458557
  H   -0.05181624440100      1.88077146391879      0.56319176019335
  C   -1.46322356183781     -0.53601840662167      0.78541797553338
  H   -2.50368198643961     -0.25642460427791      0.60684922003667
  H   -1.41506863648397     -1.62407209118954      0.85494448647152
  H   -1.17654018117022     -0.09985915364392      1.74661866504188
