17
Coordinates from ORCA-job run
  C   0.71104373586407     -0.75954049767045     -0.28103030832349
  C   -0.61478626270094      0.00285249155026     -0.32451401079394
  F   0.45466639214792     -2.11296883115545     -0.45232518479677
  H   -1.04300217697227     -0.23729275293045     -1.30511360966693
  C   1.56346876404845     -0.36940462074313     -1.43915246225380
  N   2.25531459521253     -0.01284907041632     -2.31935522028502
  N   1.37231386082226     -0.62292835180168      0.98148051208537
  H   1.51740788834486      0.35128535299044      1.21229763185056
  H   2.27083589666911     -1.09088855004568      0.96241912547294
  C   -0.40699005788635      1.51383458248695     -0.24155200345690
  H   -1.35566688566826      2.02494032083256     -0.41882551305096
  H   0.30799255126803      1.87694347861726     -0.98395884001414
  H   -0.06529911125251      1.81619187288243      0.75283150713360
  C   -1.56062972304242     -0.50201005836324      0.76151984832497
  H   -1.17511990159848     -0.27064792430417      1.75540180158064
  H   -2.53710737469918     -0.02483688510434      0.64714548123800
  H   -1.69544219055684     -1.58168055682496      0.69273124495588
