17
Coordinates from ORCA-job run
  C   0.79951141709306     -0.50858412624017     -0.49758439857718
  C   -0.63732730867523     -0.04459167871397     -0.27204726729204
  F   1.06252923898435     -0.50817959342339     -1.85925146971456
  H   -1.23742497380077     -0.77947755090804     -0.82086102439578
  C   1.75805928802822      0.46045906758537      0.10493984488193
  N   2.50128650829726      1.19200277233432      0.64647487349560
  N   1.00177486468833     -1.85799543607460     -0.05381092196787
  H   1.96062864534090     -2.13645294432398     -0.23086241788220
  H   0.82277630671923     -1.94289795077364      0.93820777687200
  C   -0.85829126962553      1.34284340513898     -0.86879662696553
  H   -0.53856334658339      1.38308608476440     -1.91058463010767
  H   -1.92012621450760      1.59636557229503     -0.82907652478072
  H   -0.31057520713197      2.10536953126297     -0.30794311794045
  C   -1.01766507054906     -0.07699335715495      1.20660154852548
  H   -1.02478006456982     -1.09054984084090      1.61372490107147
  H   -2.02483004170047      0.32472789411058      1.33642774870660
  H   -0.33898277200751      0.53986815096199      1.80344170607091
