17
Coordinates from ORCA-job run
  C   0.85293456911275     -0.46134405282655     -0.24141519976163
  C   -0.26458022609077      0.48014530566718      0.21917849219366
  F   0.27866400727403     -1.40578403804285     -1.12568194968364
  H   0.23219125995250      1.26297356210093      0.80323784055437
  C   1.85789112570278      0.27131309106422     -1.04168613119705
  N   2.65514668334650      0.85772380953905     -1.67240294784356
  N   1.51414852741045     -1.09145636270390      0.84055582056519
  H   2.27326189155990     -1.67590350872846      0.51249327772267
  H   0.86563020102473     -1.65599833854741      1.37328060786116
  C   -1.26155213025975     -0.25300741061953      1.11605347318456
  H   -2.10673578712744      0.40205661748168      1.33706085275807
  H   -0.82414212990128     -0.54249275089812      2.07412089250917
  H   -1.65015052866942     -1.14281602242399      0.61500297595199
  C   -0.96769619074291      1.11504842188699     -0.97822921427288
  H   -1.47900918937536      0.35599361966536     -1.57262133282006
  H   -0.26679196002859      1.64480885481823     -1.62730752295547
  H   -1.71021012318814      1.83673920256717     -0.63063993476652
