17
Coordinates from ORCA-job run
  C   0.86758305278090     -0.50338303560423     -0.29415914168114
  C   -0.59979277659844     -0.07632879716606     -0.22217885328839
  F   1.20674437032589     -0.62784770701251     -1.66064735069906
  H   -1.15583414566384     -0.91405191103474     -0.66658945282311
  C   1.75370810688898      0.55127427050166      0.24271601680242
  N   2.42397951759186      1.41689487701786      0.66592525551136
  N   1.10063490065527     -1.71017143965690      0.40868358892847
  H   2.06656050132316     -2.00296064602951      0.32757238167321
  H   0.49396743608225     -2.44157420769076      0.05774623595859
  C   -0.85309010462561      1.17441585944304     -1.05851416666512
  H   -1.92030195028755      1.40752790451838     -1.05963708356291
  H   -0.52968662808763      1.03980410367897     -2.09048660129218
  H   -0.32436257224348      2.03482653011519     -0.63875193960309
  C   -1.04536591762882      0.11800032831653      1.22435628178930
  H   -0.88275948052910     -0.77839300728931      1.82218722468093
  H   -2.10783608369428      0.37128357610840      1.25335113632726
  H   -0.49414822628959      0.94068330178403      1.68842646794351
