17
Coordinates from ORCA-job run
  C   0.80830005591110     -0.54058162691063     -0.18358718184406
  C   -0.32907633371963      0.40724935035362      0.20702666285613
  F   0.33593122809208     -1.46411125539360     -1.10765693821776
  H   0.09909627556225      1.12489412042715      0.92050919760127
  C   1.89103857843827      0.20567342298266     -0.88194203674959
  N   2.77524054035981      0.80465769811592     -1.37155087609343
  N   1.28354202848080     -1.28511105820349      0.94322869135350
  H   1.49528222060295     -0.66936058240906      1.71814298792726
  H   2.11465602698337     -1.81226266992111      0.70286544604450
  C   -1.45823622071419     -0.36874907120384      0.88258472820411
  H   -1.87352460496224     -1.10392033558876      0.19062977830939
  H   -1.11839329821631     -0.89889802554991      1.77157602399950
  H   -2.25598494151563      0.32048765250332      1.16928824278281
  C   -0.83769936823745      1.17449921025017     -1.01126198171627
  H   -0.05823436445250      1.78841580536272     -1.46749444764784
  H   -1.21586789286476      0.48095451854398     -1.76506720679574
  H   -1.65606992974794      1.83516284664086     -0.71729109001380
