17
Coordinates from ORCA-job run
  C   0.79700058778487     -0.62355423541790     -0.32403043268729
  C   -0.59318445521714      0.01739911796588     -0.34580687946610
  F   0.62195956315987     -1.99927470193264     -0.60627055688894
  H   -1.02765829250274     -0.28547869240232     -1.30518531936084
  C   1.63701486502717     -0.10414504191527     -1.42412837460477
  N   2.30030448627927      0.30360228011817     -2.30235548511681
  N   1.47277452188709     -0.41971052771803      0.90262637668000
  H   0.94844269923079     -0.82187229820479      1.66880622452700
  H   2.40140479104083     -0.82222589166688      0.88289576904325
  C   -0.50832624090663      1.53913240121895     -0.28666497199467
  H   -0.01703718657600      1.85862703702119      0.63418136452735
  H   0.04988788126213      1.94817325901840     -1.13151125662240
  H   -1.51312736743920      1.96770301565274     -0.31094983800303
  C   -1.46627205663115     -0.54147136842038      0.77673097271856
  H   -2.50316275320472     -0.23694519188007      0.61930234014332
  H   -1.43697581192082     -1.63217425203244      0.80283675416406
  H   -1.16304523127358     -0.14878490940457      1.75152331294137
