17
Coordinates from ORCA-job run
  C   0.80381170009395     -0.58587325877360     -0.39635087696818
  C   -0.63029950593856     -0.07528670400172     -0.28047346069902
  F   1.10232766981746     -0.78521944150625     -1.73568401473158
  H   -1.22884228257340     -0.87390397185746     -0.73364840937733
  C   1.76242363124285      0.44763787590608      0.08760241441333
  N   2.50380020321188      1.23975411868818      0.53874014789914
  N   0.97150630280158     -1.85950808732593      0.24268393728459
  H   1.93051407156556     -2.17182327348199      0.13757961852267
  H   0.76220629040298     -1.79847554498704      1.23049227864661
  C   -0.81214058616807      1.21366378193004     -1.07770307566410
  H   -0.26726733436383      2.04248454889715     -0.61716817935689
  H   -1.87033259978998      1.48331321428959     -1.10588599712265
  H   -0.46380615558763      1.09866510832761     -2.10461879791570
  C   -1.04957451790904      0.11257858301020      1.17585932256326
  H   -0.37798058882906      0.80296625857104      1.69516583850747
  H   -1.08230593834299     -0.83026812007439      1.72641135619380
  H   -2.05404035963368      0.53929491238854      1.21699789780450
