13

C	0.0	0.0	0.0
C	-0.520501	0.184111	-1.429629
Br	1.958311	0.0	0.0
H	-1.624937	0.144737	-1.256378
H	-0.193311	-0.64187	-2.066549
N	-0.544705	1.030011	0.821579
H	-1.579557	0.846594	0.681296
H	-0.302634	0.848179	1.790723
C	-0.343057	-1.375899	0.433836
N	-0.551816	-2.480018	0.780291
C	-0.10615	1.44932	-2.016184
N	0.193983	2.451773	-2.550191
F	-2.769711	0.0	0.0
