13

C	0.0	0.0	0.0
C	-0.498841	-0.307555	-1.426008
Br	1.964719	0.0	0.0
H	-0.210774	0.525876	-2.075243
H	-1.602347	-0.303711	-1.250318
N	-0.538262	1.213754	0.531378
H	-1.571655	0.983208	0.471049
H	-0.333691	1.957829	-0.130929
C	-0.366924	-1.112087	0.895984
N	-0.549171	-2.009994	1.630533
C	-0.024957	-1.557789	-1.996606
N	0.341457	-2.563866	-2.481363
F	-2.746607	0.0	0.0
