13

C	0.0	0.0	0.0
C	-0.500273	0.299957	-1.429376
Br	1.966844	0.0	0.0
H	-0.14401	-0.444027	-2.14657
H	-1.605067	0.224369	-1.259573
N	-0.526463	0.858673	1.012323
H	-1.560266	0.685891	0.864855
H	-0.31359	1.818002	0.747654
C	-0.364176	-1.393488	0.314446
N	-0.580099	-2.514651	0.58783
C	-0.118936	1.633797	-1.86207
N	0.182193	2.718487	-2.1989
F	-2.742365	0.0	0.0
