13

C	0.0	0.0	0.0
C	-0.304218	-0.107474	-1.516377
Br	1.960752	0.0	0.0
H	0.317402	-0.907956	-1.926685
H	0.065051	0.833025	-1.937804
N	-0.521886	1.205434	0.542239
H	-1.567054	0.976429	0.415279
H	-0.319495	1.225329	1.537849
C	-0.366969	-1.239499	0.714669
N	-0.557198	-2.224127	1.328878
C	-1.663035	-0.329783	-2.032887
N	-2.482929	-0.543593	-2.851271
F	-2.62573	0.0	0.0
