16

C	0.0	0.0	0.0
C	-0.378215	0.003073	-1.483383
Br	1.974712	0.0	0.0
H	-1.443216	-0.237196	-1.503544
H	0.211756	-0.777863	-1.978089
C	-0.348837	1.259717	0.806125
H	0.062985	1.157303	1.816645
H	0.144855	2.114571	0.320231
H	-1.430354	1.372113	0.810188
C	-0.445019	-1.218979	0.675879
N	-0.59744	-2.237388	1.251509
C	-0.168747	1.353856	-2.161814
H	-0.286214	1.233639	-3.243841
H	-0.919106	2.075299	-1.830294
H	0.828905	1.759977	-1.994269
H	-2.791034	0.0	0.0
