16

C	0.0	0.0	0.0
C	-0.504978	-0.002365	-1.43917
Br	1.974685	0.0	0.0
H	-1.592816	-0.16663	-1.315706
H	-0.055445	-0.852136	-1.963646
C	-0.487902	1.194879	0.798874
H	-0.099298	2.11721	0.362289
H	-0.154311	1.127906	1.836906
H	-1.58837	1.149349	0.735241
C	-0.354245	-1.257214	0.667493
N	-0.528069	-2.282744	1.215526
C	-0.249761	1.301743	-2.185185
H	-0.933895	2.079298	-1.839891
H	0.778728	1.65603	-2.065047
H	-0.428613	1.159199	-3.254592
H	-3.176921	0.0	0.0
