18

C	-0.297659	0.0885	-1.503401
C	0.0	0.0	0.0
F	-1.664764	0.335321	-1.703233
H	1.100911	0.0	0.0
N	0.415979	1.237224	-2.000221
H	0.419992	1.212391	-3.014084
H	1.382513	1.184555	-1.681754
C	0.023462	-1.206401	-2.227718
H	1.073125	-1.458105	-2.060006
H	-0.606836	-2.023364	-1.873709
H	-0.148272	-1.07006	-3.299582
C	-0.513497	-1.233775	0.5813
N	-0.973866	-2.199377	1.068079
C	-0.509761	1.215146	0.775779
H	-0.175727	1.155826	1.81348
H	-0.105715	2.120587	0.325463
H	-1.600262	1.262055	0.750989
Br	3.491179	0.0	0.0
