18

C	-0.431705	0.133294	-1.464536
C	0.0	0.0	0.0
F	-0.219488	-1.094193	-2.085979
H	1.090337	0.0	0.0
N	-1.864361	0.35274	-1.56224
H	-2.075682	1.301185	-1.27781
H	-2.121223	0.266414	-2.54
C	0.434071	1.136604	-2.205062
H	0.249364	2.149867	-1.84462
H	0.188239	1.095002	-3.270122
H	1.48928	0.901289	-2.056287
C	-0.521762	-1.236926	0.573255
N	-0.970473	-2.189084	1.092665
C	-0.444447	1.186868	0.863811
H	-0.066715	2.122964	0.446769
H	-0.014293	1.081498	1.86102
H	-1.532123	1.232602	0.958775
Br	3.583143	0.0	0.0
