18

C	-0.425483	-0.065643	-1.47186
C	0.0	0.0	0.0
F	-1.827501	-0.362801	-1.499119
H	1.094876	0.0	0.0
N	-0.191242	1.182796	-2.109308
H	-0.790805	1.897401	-1.71763
H	-0.385002	1.102069	-3.099669
C	0.285121	-1.181826	-2.201556
H	1.363403	-1.02889	-2.124814
H	-0.023656	-1.196064	-3.251578
H	0.023419	-2.141147	-1.753652
C	-0.465788	-1.202831	0.689504
N	-0.86332	-2.158801	1.244042
C	-0.490301	1.249923	0.732953
H	-1.57447	1.366077	0.642112
H	-0.234473	1.180123	1.791149
H	0.019174	2.127604	0.331981
Br	3.553474	0.0	0.0
