18

C	-0.359258	0.045092	-1.507394
C	0.0	0.0	0.0
F	-0.10305	1.360043	-1.907644
H	1.095602	0.0	0.0
N	0.497863	-0.794267	-2.299381
H	0.258758	-1.766404	-2.142009
H	1.460837	-0.660938	-1.987894
C	-1.815064	-0.232924	-1.821445
H	-1.960343	-0.102152	-2.894787
H	-2.093008	-1.250614	-1.539714
H	-2.459115	0.467631	-1.286253
C	-0.443776	-1.28179	0.539653
N	-0.852906	-2.300931	0.958823
C	-0.522856	1.165216	0.83528
H	-1.615915	1.197522	0.856569
H	-0.157058	1.075555	1.859989
H	-0.143496	2.096167	0.416384
Br	3.518012	0.0	0.0
