15

C	0.0	0.0	0.0
C	-0.469211	-0.161039	-1.438566
F	1.387907	0.0	0.0
H	0.033302	-1.049745	-1.833456
H	-1.54517	-0.34875	-1.412464
N	-0.499315	1.199438	0.580902
H	-1.517286	1.173135	0.452978
H	-0.322218	1.193924	1.579426
C	-0.325479	-1.234055	0.781134
N	-0.503856	-2.222228	1.390262
C	-0.14578	1.064743	-2.284667
H	0.908932	1.335526	-2.199904
H	-0.367515	0.860213	-3.336497
H	-0.744947	1.918553	-1.971884
Cl	-3.607546	0.0	0.0
