15

C	0.0	0.0	0.0
C	-0.419294	-0.077282	-1.456656
F	1.413383	0.0	0.0
H	0.061	0.800091	-1.906061
H	-1.498954	0.051293	-1.574888
N	-0.388376	1.21983	0.573967
H	-0.16919	1.987301	-0.040079
H	0.065453	1.333929	1.475352
C	-0.355183	-1.14348	0.852219
N	-0.624896	-2.04621	1.54678
C	0.057933	-1.328824	-2.160955
H	1.139485	-1.458302	-2.020785
H	-0.145001	-1.242834	-3.230063
H	-0.454486	-2.211224	-1.785053
Cl	-3.54297	0.0	0.0
