15

C	0.0	0.0	0.0
C	-0.378983	0.528125	-1.378923
F	1.411635	0.0	0.0
H	-0.053575	1.575912	-1.38772
H	0.257797	-0.006117	-2.090049
N	-0.526007	0.781146	1.057893
H	-1.273205	1.376851	0.724628
H	-0.886531	0.222858	1.817263
C	-0.328024	-1.442056	0.140278
N	-0.525088	-2.591816	0.273201
C	-1.845753	0.384997	-1.74938
H	-2.007297	0.756515	-2.76538
H	-2.171169	-0.655981	-1.717323
H	-2.535323	0.905657	-1.086867
Cl	-4.743583	0.0	0.0
