15

C	0.0	0.0	0.0
C	-0.51057	0.143222	-1.419387
F	1.412963	0.0	0.0
H	-1.603921	0.177118	-1.342896
H	-0.150131	1.115751	-1.778974
N	-0.503092	1.009965	0.829669
H	-0.170535	0.964672	1.779954
H	-0.448168	1.931067	0.425455
C	-0.327305	-1.330406	0.569884
N	-0.461382	-2.408842	1.012728
C	-0.035931	-0.974362	-2.340103
H	-0.293105	-0.745288	-3.376977
H	1.046438	-1.110104	-2.276892
H	-0.520528	-1.917451	-2.079392
Cl	-3.937091	0.0	0.0
