15

C	0.0	0.0	0.0
C	-0.432949	0.197106	-1.445969
F	1.388338	0.0	0.0
H	-1.519447	0.292323	-1.461255
H	0.012916	1.155641	-1.732757
N	-0.478223	1.059585	0.823222
H	-0.313938	0.835216	1.798436
H	-1.492221	1.094161	0.689425
C	-0.322187	-1.375298	0.49176
N	-0.480469	-2.477377	0.86704
C	0.03277	-0.92473	-2.369165
H	-0.091997	-0.629697	-3.414163
H	1.086669	-1.163442	-2.210601
H	-0.556011	-1.829308	-2.205534
Cl	-3.625902	0.0	0.0
