15

C	0.0	0.0	0.0
C	-0.543933	-0.106168	-1.410053
F	1.414822	0.0	0.0
H	-1.62175	-0.275752	-1.298289
H	-0.083311	-0.986491	-1.867945
N	-0.491703	1.123749	0.684486
H	-0.114318	1.209882	1.616649
H	-0.403741	1.979179	0.157339
C	-0.31913	-1.225118	0.776405
N	-0.443111	-2.215818	1.392652
C	-0.277699	1.138633	-2.250321
H	-0.51223	0.934769	-3.297232
H	0.768695	1.44992	-2.191072
H	-0.922116	1.964256	-1.940598
Cl	-3.966755	0.0	0.0
