14

C	-0.374634	-0.090334	-1.489241
C	0.0	0.0	0.0
Br	-0.152463	1.73754	-2.338846
H	1.095736	0.0	0.0
H	-1.436434	-0.279364	-1.653502
N	0.426523	-1.091006	-2.067126
H	1.4119	-0.934679	-1.860391
H	0.281071	-1.187364	-3.062017
C	-0.453519	-1.249883	0.628141
N	-0.90092	-2.193452	1.167967
N	-0.505444	1.167448	0.703164
H	-1.275307	0.925677	1.311787
H	0.245077	1.551555	1.261972
Cl	3.323581	0.0	0.0
