14

C	-0.24925	0.065673	-1.499574
C	0.0	0.0	0.0
Br	-2.161369	0.27886	-1.953596
H	1.106452	0.0	0.0
H	0.008559	-0.899034	-1.946339
N	0.48244	1.199362	-2.005785
H	1.451714	1.098113	-1.696892
H	0.458691	1.207804	-3.017882
C	-0.522731	-1.237143	0.575934
N	-0.945048	-2.229604	1.03918
N	-0.540484	1.171062	0.696094
H	-0.412825	1.952688	0.059584
H	0.068852	1.347844	1.487026
Cl	3.322821	0.0	0.0
