14

C	-0.261163	0.059225	-1.497191
C	0.0	0.0	0.0
Br	-2.180649	0.244348	-1.933599
H	1.106498	0.0	0.0
H	0.004507	-0.903241	-1.943916
N	0.449749	1.201345	-2.013919
H	0.413161	1.207792	-3.023785
H	1.422552	1.1094	-1.71953
C	-0.51466	-1.237067	0.584242
N	-0.927733	-2.230006	1.054779
N	-0.540646	1.170779	0.696842
H	-0.423311	1.95078	0.055849
H	0.075953	1.353334	1.482937
Cl	3.319309	0.0	0.0
