14

C	-0.584099	0.040491	-1.41593
C	0.0	0.0	0.0
Br	0.165559	1.546495	-2.405004
H	1.093287	0.0	0.0
H	-1.648522	0.303539	-1.332574
N	-0.300195	-1.168322	-2.146333
H	-0.718571	-1.126818	-3.066641
H	-0.669531	-1.971046	-1.647303
C	-0.463035	-1.250874	0.627752
N	-0.932099	-2.202311	1.135404
N	-0.438417	1.167367	0.762494
H	-1.250453	0.958373	1.327989
H	0.319413	1.453717	1.368065
Cl	3.336908	0.0	0.0
