14

C	-0.559594	-0.045051	-1.414927
C	0.0	0.0	0.0
Br	0.19127	-1.631576	-2.380105
H	1.089305	0.0	0.0
H	-0.163331	0.81233	-1.95448
N	-1.983281	-0.026113	-1.408341
H	-2.342011	-0.888028	-1.012578
H	-2.347264	0.067603	-2.347712
C	-0.50874	-1.151526	0.769681
N	-1.00813	-2.00956	1.400538
N	-0.394085	1.284789	0.573326
H	0.230616	1.500606	1.339806
H	-1.350389	1.26055	0.900226
Cl	3.34171	0.0	0.0
