14

C	-0.445166	0.02614	-1.44942
C	0.0	0.0	0.0
Br	-2.581108	-0.166845	-1.425857
H	1.096612	0.0	0.0
H	-0.198571	-0.881625	-1.994651
N	-0.031429	1.176478	-2.066912
H	-0.314442	1.298177	-3.025337
H	-0.14637	1.98976	-1.478636
C	-0.442864	-1.219534	0.687883
N	-0.766898	-2.179281	1.283283
N	-0.410395	1.236999	0.657622
H	0.243331	1.434059	1.406667
H	-1.347152	1.148418	1.035711
Cl	3.293565	0.0	0.0
