14

C	-0.378599	-0.050479	-1.489428
C	0.0	0.0	0.0
Br	-0.156944	1.797709	-2.290893
H	1.092375	0.0	0.0
H	-1.441217	-0.234102	-1.655315
N	0.418083	-1.039896	-2.093197
H	0.275247	-1.104591	-3.090953
H	1.402929	-0.890538	-1.880859
C	-0.444367	-1.270036	0.597349
N	-0.859937	-2.229426	1.132952
N	-0.497714	1.148004	0.736325
H	0.222106	1.451558	1.379094
H	-1.330469	0.915451	1.261118
Cl	3.312928	0.0	0.0
