14

C	-0.443723	-0.055395	-1.449348
C	0.0	0.0	0.0
Br	-2.58126	-0.256957	-1.416949
H	1.098233	0.0	0.0
H	-0.194583	-0.989177	-1.945686
N	-0.037465	1.062065	-2.128383
H	-0.331473	1.130628	-3.089297
H	-0.163348	1.902867	-1.58156
C	-0.442761	-1.178167	0.756576
N	-0.78632	-2.086182	1.418465
N	-0.411056	1.271002	0.589017
H	0.250205	1.518331	1.313669
H	-1.339449	1.199084	0.98495
Cl	3.293443	0.0	0.0
