18

C	0.0	0.0	0.0
C	-0.434995	0.102424	-1.476938
Cl	1.906244	0.0	0.0
H	-1.527011	0.208122	-1.433717
N	-0.484093	1.054878	0.793912
H	-1.038874	0.70308	1.563104
H	-1.050666	1.704134	0.26704
C	-0.375599	-1.355939	0.565473
H	-1.464452	-1.451279	0.501545
H	-0.066853	-1.394769	1.612309
H	0.120909	-2.168723	0.038166
N	-0.075175	-0.964033	-2.350031
H	-0.713278	-1.735241	-2.209535
H	0.878969	-1.260757	-2.190273
N	0.085151	1.39461	-2.061447
O	-0.50147	2.427381	-1.729609
O	1.054905	1.345307	-2.808831
Br	-3.756751	0.0	0.0
