18

C	0.0	0.0	0.0
C	-0.541402	0.180087	-1.418611
Cl	1.848731	0.0	0.0
H	-1.635243	0.154523	-1.293588
N	-0.492174	1.018418	0.839867
H	-0.429833	0.783067	1.818135
H	-0.091487	1.920841	0.63746
C	-0.456099	-1.349113	0.525129
H	-1.551405	-1.345776	0.523951
H	-0.071981	-2.167188	-0.083084
H	-0.088699	-1.480925	1.546114
N	-0.098931	-0.765668	-2.391442
H	-0.797794	-1.474615	-2.548096
H	0.78823	-1.177399	-2.139287
N	-0.289419	1.575767	-1.989592
O	-0.836374	1.806855	-3.058962
O	0.420303	2.3787	-1.380603
Br	-3.954999	0.0	0.0
