18

C	0.0	0.0	0.0
C	-0.469255	-0.003863	-1.481204
Cl	1.86709	0.0	0.0
H	-1.530707	0.263618	-1.426397
N	-0.44524	1.118547	0.770874
H	-1.45074	0.98638	0.905559
H	-0.327449	1.969577	0.232369
C	-0.428185	-1.280129	0.690158
H	-0.11362	-1.218907	1.732565
H	-1.518663	-1.347238	0.643438
H	0.026003	-2.157281	0.231134
N	-0.317317	-1.202401	-2.239243
H	-1.0639	-1.83662	-1.989145
H	0.58324	-1.633655	-2.077018
N	0.214665	1.12123	-2.218511
O	-0.115258	2.268864	-1.908112
O	1.078025	0.842551	-3.042933
Br	-3.772622	0.0	0.0
