18

C	0.0	0.0	0.0
C	-0.50076	-0.098755	-1.448964
Cl	1.807537	0.0	0.0
H	-1.596679	-0.094723	-1.393764
N	-0.471976	1.236071	0.560691
H	-0.292756	1.219784	1.559621
H	-1.488925	1.235253	0.436196
C	-0.430433	-1.250561	0.756516
H	-1.52278	-1.290735	0.747011
H	-0.018737	-2.15138	0.303282
H	-0.081775	-1.170837	1.790311
N	-0.017427	-1.256735	-2.119056
H	-0.546517	-1.405507	-2.967937
H	0.957795	-1.126181	-2.358544
N	-0.146776	1.184846	-2.203445
O	0.901503	1.18385	-2.854853
O	-0.934721	2.121391	-2.138481
Br	-3.834533	0.0	0.0
