18

C	0.0	0.0	0.0
C	-0.286631	0.20466	-1.535079
Cl	1.794397	0.0	0.0
H	0.509903	-0.317033	-2.070859
N	-0.535212	1.110033	0.744137
H	-1.556747	0.973763	0.727018
H	-0.234969	1.028218	1.709179
C	-0.4152	-1.357308	0.551963
H	-0.053976	-1.417279	1.583703
H	-1.504323	-1.421468	0.545718
H	0.005684	-2.181999	-0.021121
N	-0.302082	1.58186	-1.864319
H	-0.742778	2.09787	-1.112607
H	-0.823162	1.713332	-2.721442
N	-1.486951	-0.570713	-2.160725
O	-2.192112	0.044199	-2.9506
O	-1.498675	-1.784817	-1.998197
Br	-3.78175	0.0	0.0
