18

C	0.0	0.0	0.0
C	-0.466595	-0.052571	-1.473699
Cl	1.813406	0.0	0.0
H	-1.554952	0.083257	-1.429676
N	-0.471952	1.122017	0.755151
H	-0.356621	1.975733	0.22125
H	-1.479417	0.979256	0.868279
C	-0.445999	-1.274673	0.698535
H	-1.534727	-1.340317	0.631376
H	0.002215	-2.152196	0.239856
H	-0.14845	-1.19703	1.745699
N	-0.122732	-1.260359	-2.13042
H	-0.629819	-1.342487	-3.00093
H	0.869764	-1.28152	-2.327326
N	0.068252	1.175347	-2.229918
O	-0.338874	2.285125	-1.888705
O	0.87667	0.983064	-3.137326
Br	-3.821379	0.0	0.0
