18

C	0.0	0.0	0.0
C	-0.42508	0.306024	-1.465491
Cl	1.854692	0.0	0.0
H	0.397037	0.816079	-1.974772
N	-0.49858	1.034652	0.818173
H	-0.097301	1.025602	1.744034
H	-0.48113	1.947302	0.390377
C	-0.471758	-1.335819	0.540494
H	-0.223667	-1.392363	1.603426
H	-1.561879	-1.367481	0.440528
H	-0.00459	-2.173293	0.027416
N	-1.600827	1.070544	-1.526955
H	-2.381664	0.686052	-0.979538
H	-1.910744	1.184037	-2.482185
N	-0.48352	-1.024636	-2.278602
O	0.515391	-1.741206	-2.261186
O	-1.485361	-1.225187	-2.957335
Br	-4.412047	0.0	0.0
