18

C	0.0	0.0	0.0
C	-0.508605	0.178391	-1.444577
Cl	1.836944	0.0	0.0
H	-1.597824	0.26526	-1.359579
N	-0.445282	1.116878	0.781548
H	-1.457894	1.18908	0.65254
H	-0.275807	0.921277	1.762427
C	-0.424205	-1.362203	0.529891
H	0.001197	-2.182518	-0.05042
H	-1.517182	-1.400799	0.508638
H	-0.081153	-1.461426	1.563042
N	-0.170163	-0.838918	-2.389721
H	0.783486	-1.153055	-2.265811
H	-0.813913	-1.611432	-2.293651
N	-0.037084	1.502736	-1.990612
O	1.033499	1.512838	-2.594986
O	-0.754241	2.480578	-1.79875
Br	-3.811794	0.0	0.0
