18

C	0.0	0.0	0.0
C	-0.478259	0.047708	-1.452967
Cl	1.86941	0.0	0.0
H	-1.571028	0.157783	-1.380781
N	-0.517716	1.045499	0.752504
H	-0.438691	1.969068	0.364885
H	-0.343997	0.982137	1.741291
C	-0.4032	-1.327157	0.622671
H	-0.102487	-1.323969	1.674656
H	-1.49104	-1.39973	0.556377
H	0.071286	-2.162176	0.114489
N	-0.107148	-1.108548	-2.17903
H	0.889945	-1.110164	-2.352399
H	-0.592578	-1.136604	-3.0637
N	0.036149	1.334412	-2.135344
O	0.690123	1.202365	-3.166198
O	-0.255308	2.420519	-1.634297
Br	-3.926243	0.0	0.0
