18

C	0.0	0.0	0.0
C	-0.488996	-0.042636	-1.480485
Cl	1.805593	0.0	0.0
H	-1.550506	0.22295	-1.431775
N	-0.455891	1.143861	0.741606
H	-1.468767	1.034822	0.835476
H	-0.300474	1.983429	0.194138
C	-0.457859	-1.255074	0.72221
H	-0.015572	-2.151638	0.288548
H	-1.548843	-1.306892	0.674318
H	-0.145258	-1.170676	1.763722
N	-0.334226	-1.258451	-2.211131
H	0.571019	-1.679902	-2.045869
H	-1.073136	-1.892817	-1.938693
N	0.189458	1.064953	-2.248066
O	-0.158294	2.21831	-1.983337
O	1.070972	0.768598	-3.047217
Br	-3.810637	0.0	0.0
