18

C	-0.408024	-0.042533	-1.496129
C	0.0	0.0	0.0
Cl	0.067137	1.582677	-2.178821
H	1.089905	0.0	0.0
N	0.343612	-1.000216	-2.277938
H	1.33857	-0.801777	-2.157104
H	0.189521	-1.919885	-1.870725
N	-1.8237	-0.202346	-1.64414
H	-2.02111	-0.588527	-2.559761
H	-2.225207	-0.773056	-0.911619
N	-0.442939	-1.306886	0.582404
O	0.26539	-2.296114	0.391034
O	-1.527331	-1.339828	1.182229
C	-0.563664	1.141827	0.817197
H	-1.638554	1.25708	0.674129
H	-0.361299	0.966303	1.875981
H	-0.054584	2.058111	0.523388
Br	3.48481	0.0	0.0
