18

C	-0.380599	-0.042249	-1.489767
C	0.0	0.0	0.0
Cl	-2.316144	-0.034031	-1.520724
H	1.094246	0.0	0.0
N	-0.018772	1.144716	-2.213591
H	0.99356	1.228961	-2.138878
H	-0.462653	1.961054	-1.816544
N	0.15885	-1.117827	-2.170251
H	0.100591	-2.000557	-1.689495
H	-0.122363	-1.133259	-3.138738
N	-0.469692	-1.218696	0.731334
O	-0.166667	-2.322599	0.272978
O	-1.121722	-1.069533	1.763635
C	-0.439649	1.248276	0.736054
H	0.053988	2.111171	0.288763
H	-0.097513	1.187374	1.767929
H	-1.520832	1.382943	0.727854
Br	3.438396	0.0	0.0
