14

C	0.0	0.0	0.0
C	-0.554948	-0.618031	-1.273685
Cl	1.791692	0.0	0.0
H	0.099776	-0.356962	-2.111523
H	-0.298973	-0.61305	0.850868
H	-1.541005	-0.170728	-1.432111
C	-0.482314	1.426099	0.184744
H	-0.067751	1.867964	1.093472
H	-1.572965	1.40578	0.245329
H	-0.175183	2.040157	-0.66672
N	-0.63289	-2.078825	-1.14883
H	-0.797632	-2.468206	-2.070603
H	-1.482232	-2.262147	-0.620079
Cl	-3.796975	0.0	0.0
