14

C	0.0	0.0	0.0
C	-0.567456	0.539897	-1.300601
Cl	1.794395	0.0	0.0
H	-1.607485	0.193074	-1.324697
H	-0.278297	-1.054229	0.068595
H	-0.021121	0.094882	-2.138257
C	-0.510076	0.737451	1.219747
H	-0.172692	1.774843	1.195209
H	-1.603803	0.694483	1.205894
H	-0.142297	0.269513	2.135248
N	-0.468108	2.002992	-1.374627
H	-1.306732	2.37919	-0.943694
H	-0.507302	2.280255	-2.347989
Cl	-3.892302	0.0	0.0
