16

C	-0.148545	-0.131579	-1.511499
C	0.0	0.0	0.0
F	-1.228223	-0.900665	-1.891578
H	1.096084	0.0	0.0
H	-0.327059	-0.967027	0.400179
N	-0.440044	1.266388	-2.089792
O	-1.598184	1.54844	-2.389215
O	0.512941	2.033536	-2.143917
N	1.031192	-0.622235	-2.146934
H	1.835953	-0.408898	-1.514741
H	0.938168	-1.627455	-2.214901
C	-0.689761	1.161179	0.688627
H	-0.524662	1.098615	1.76743
H	-1.769966	1.180641	0.508612
H	-0.266509	2.110464	0.353047
F	2.733832	0.0	0.0
