16

C	-0.154428	-0.245326	-1.504736
C	0.0	0.0	0.0
F	-1.095269	-1.208783	-1.826111
H	1.093486	0.0	0.0
H	-0.422253	0.956138	0.312448
N	-0.754981	1.053589	-2.142178
O	-1.908403	1.047505	-2.572586
O	-0.020319	2.032298	-2.116363
N	1.080288	-0.528673	-2.098392
H	1.053661	-1.346039	-2.684342
H	1.876757	-0.456829	-1.423144
C	-0.508653	-1.17283	0.821681
H	-0.00445	-2.090197	0.508387
H	-0.261851	-1.011873	1.874679
H	-1.588161	-1.328994	0.733454
F	2.754806	0.0	0.0
