15

C	-0.371147	-0.00859	-1.49262
C	0.0	0.0	0.0
Cl	0.427696	-1.398056	-2.312256
H	1.09616	0.0	0.0
C	-1.816959	-0.154871	-1.707833
N	-2.978927	-0.291346	-1.824255
C	0.086679	1.218542	-2.153026
N	0.413214	2.198601	-2.712419
C	-0.47543	-1.241316	0.745634
H	0.012126	-2.121883	0.325675
H	-0.148936	-1.153315	1.783747
H	-1.562913	-1.375251	0.726597
C	-0.52953	1.210941	0.595269
N	-0.97355	2.181732	1.091695
F	2.495857	0.0	0.0
