15

C	-0.372475	-0.004677	-1.491829
C	0.0	0.0	0.0
Cl	0.43465	-1.384989	-2.320731
H	1.096127	0.0	0.0
C	-1.817017	-0.160604	-1.706492
N	-2.97746	-0.307487	-1.824551
C	0.076685	1.229127	-2.145944
N	0.402413	2.214552	-2.696749
C	-0.472247	-1.245191	0.742018
H	0.013688	-2.123605	0.315744
H	-1.559644	-1.380017	0.727865
H	-0.140851	-1.160822	1.77886
C	-0.530936	1.206962	0.601425
N	-0.974797	2.171485	1.109968
F	2.494825	0.0	0.0
