15

C	-0.359072	-0.038599	-1.490933
C	0.0	0.0	0.0
Cl	0.269358	1.426995	-2.31782
H	1.096009	0.0	0.0
C	0.251309	-1.215196	-2.122915
N	0.715714	-2.147069	-2.667188
C	-1.810033	-0.091816	-1.718576
N	-2.977049	-0.156829	-1.847628
C	-0.439784	-1.272007	0.72193
H	0.081935	-2.128543	0.289726
H	-1.521747	-1.443643	0.695192
H	-0.1218	-1.194296	1.763411
C	-0.563827	1.183527	0.61384
N	-1.032357	2.122467	1.146882
F	2.494905	0.0	0.0
