15

C	-0.370551	-0.012169	-1.492958
C	0.0	0.0	0.0
Cl	0.428312	-1.402973	-2.310689
H	1.096121	0.0	0.0
C	-1.816202	-0.159427	-1.707858
N	-2.977544	-0.301036	-1.825083
C	0.086928	1.213973	-2.155517
N	0.411974	2.193029	-2.717889
C	-0.477997	-1.238003	0.749374
H	0.007021	-2.12129	0.331804
H	-0.150384	-1.147788	1.786958
H	-1.565997	-1.369469	0.731564
C	-0.528365	1.213383	0.5917
N	-0.969871	2.184116	1.090465
F	2.495983	0.0	0.0
