15

C	-0.247163	-0.040672	-1.497826
C	0.0	0.0	0.0
Cl	-2.026148	-0.138711	-1.949406
H	1.097902	0.0	0.0
C	0.281606	1.162218	-2.148937
N	0.66695	2.125539	-2.699351
C	0.391324	-1.224842	-2.085372
N	0.838213	-2.192345	-2.577313
C	-0.445514	-1.260806	0.728409
H	-1.521118	-1.453596	0.645956
H	-0.182686	-1.156329	1.783376
H	0.114484	-2.114609	0.336761
C	-0.55237	1.20479	0.576334
N	-0.994739	2.1618	1.102323
F	2.474969	0.0	0.0
