15

C	-0.342783	0.215611	-1.478586
C	0.0	0.0	0.0
Cl	0.214915	1.835573	-2.019928
H	1.109611	0.0	0.0
C	0.332785	-0.797254	-2.300565
N	0.803373	-1.626021	-2.987321
C	-1.786779	0.129283	-1.738758
N	-2.948317	0.019689	-1.881123
C	-0.422784	-1.388075	0.47868
H	-0.136753	-1.48631	1.527554
H	-1.496815	-1.581651	0.386393
H	0.13647	-2.142877	-0.079436
C	-0.575674	1.04802	0.812193
N	-1.026707	1.872443	1.521007
F	2.489847	0.0	0.0
