15

C	-0.249934	0.009431	-1.497948
C	0.0	0.0	0.0
Cl	-2.025962	-0.087301	-1.950434
H	1.098036	0.0	0.0
C	0.268656	1.238073	-2.106537
N	0.647724	2.228309	-2.611019
C	0.398233	-1.148218	-2.125391
N	0.851801	-2.096166	-2.650222
C	-0.444809	-1.283249	0.686836
H	0.093604	-2.1273	0.250773
H	-0.157011	-1.224766	1.73839
H	-1.522932	-1.458916	0.621395
C	-0.552625	1.185099	0.614946
N	-1.000935	2.129243	1.156779
F	2.477193	0.0	0.0
