15

C	-0.319666	0.172047	-1.470824
C	0.0	0.0	0.0
Cl	-2.105478	-0.021139	-1.860193
H	1.104053	0.0	0.0
C	0.058687	1.506964	-1.943918
N	0.314936	2.587251	-2.328264
C	0.381702	-0.842025	-2.268052
N	0.872334	-1.673766	-2.936946
C	-0.383333	-1.367303	0.55312
H	-1.461771	-1.55007	0.56085
H	0.000766	-1.435166	1.572551
H	0.118479	-2.142314	-0.030749
C	-0.550505	1.087165	0.776614
N	-0.989431	1.949742	1.446391
F	2.473572	0.0	0.0
