15

C	-0.323888	0.008229	-1.504199
C	0.0	0.0	0.0
Cl	0.440089	-1.414842	-2.301842
H	1.110099	0.0	0.0
C	-1.765757	-0.073539	-1.775151
N	-2.927214	-0.155142	-1.941118
C	0.213192	1.215535	-2.142067
N	0.599141	2.185953	-2.68053
C	-0.508003	-1.242032	0.72081
H	0.036248	-2.115049	0.359012
H	-0.283889	-1.133983	1.783996
H	-1.586214	-1.404508	0.606105
C	-0.528607	1.214844	0.585766
N	-0.955069	2.188468	1.0925
F	2.492709	0.0	0.0
