15

C	-0.326922	0.03879	-1.498343
C	0.0	0.0	0.0
Cl	0.22825	1.590055	-2.215748
H	1.108754	0.0	0.0
C	0.368518	-1.055806	-2.188985
N	0.856013	-1.950804	-2.77374
C	-1.766163	-0.087911	-1.76874
N	-2.924503	-0.216218	-1.927621
C	-0.422409	-1.325626	0.631219
H	-1.493286	-1.538999	0.540307
H	0.15596	-2.134051	0.179015
H	-0.160532	-1.295706	1.690353
C	-0.590458	1.13277	0.67652
N	-1.063754	2.030932	1.272781
F	2.491011	0.0	0.0
