15

C	-0.464809	0.315067	-1.40157
C	0.0	0.0	0.0
Cl	-2.299448	0.260154	-1.574155
H	1.109783	0.0	0.0
C	-0.05929	1.658477	-1.823956
N	0.242099	2.732877	-2.191219
C	0.055538	-0.666881	-2.358789
N	0.422243	-1.460377	-3.143783
C	-0.362587	-1.406983	0.46403
H	-1.438587	-1.571154	0.574307
H	0.129659	-1.572076	1.424366
H	0.051955	-2.135338	-0.236781
C	-0.455981	1.012192	0.928965
N	-0.783535	1.806727	1.733233
F	2.469475	0.0	0.0
