15
Coordinates from ORCA-job run
  C   0.94519512538316      0.10310462262227      0.46447114038751
  C   -0.36536176473819      0.31880385961903     -0.27666776612839
  Br  1.73470509640028      1.91355018630268      0.85782268832695
  H   -0.20073031283942      0.90629825783083     -1.18211398597168
  H   0.74793642080586     -0.30664117362660      1.45378714287190
  N   1.80382978660403     -0.74658680176581     -0.26916494344568
  H   2.09796975576506     -0.32178680397478     -1.14030667049957
  H   2.62577753440686     -0.99558521693861      0.26459167348625
  N   -1.27796289429591      1.15623178498187      0.56708775717685
  O   -1.80935944994797      2.12488847699523      0.03265336680696
  O   -1.46261218883508      0.77583032558890      1.72073371645514
  C   -1.07894007940096     -0.99178552290330     -0.57044584090027
  H   -1.23697325193933     -1.54832812910348      0.35476115860907
  H   -0.47595713245078     -1.59756612625630     -1.24429399196149
  H   -2.04751664491763     -0.79142773937193     -1.03391544521354
