15
Coordinates from ORCA-job run
  C   1.02010490874975     -0.28114772989746      0.14672910894957
  C   -0.38407453636384     -0.02205960129714     -0.40100835764596
  Br  0.91465153210078     -0.26784053908547      2.17509353651510
  H   -0.25282182877476      0.19596158455300     -1.46580919213623
  H   1.27582380839574     -1.32177412843334     -0.05106634623969
  N   1.99919652610328      0.56690569468418     -0.39771857339642
  H   2.92507256307053      0.34851721189123     -0.05607673572632
  H   1.78199339445677      1.54255269429136     -0.24259763154596
  N   -0.92780282313292      1.26395339768747      0.16998359386432
  O   -1.99220410627564      1.23506338237015      0.77507843824554
  O   -0.24933130696691      2.27273718421876     -0.02564972169942
  C   -1.34909252470407     -1.16656580168572     -0.18982339595059
  H   -2.32109348721049     -0.93418928781680     -0.62375395872407
  H   -0.95397967269129     -2.05721474079955     -0.68414572706665
  H   -1.48644244675692     -1.37589932068065      0.86976496255679
