15
Coordinates from ORCA-job run
  C   0.95754172004282      0.20154995513428      0.43793230479665
  C   -0.37614534315164      0.38775007120661     -0.27209443429649
  Br  1.73915745648609      1.94758572355177      0.80683939626964
  H   -0.24119115062630      1.03510908573034     -1.13840625941501
  H   0.78688260438054     -0.24337239275584      1.42325089676116
  N   1.85247164425191     -0.53951295565371     -0.43409545290787
  H   2.81412899388818     -0.36598676939409     -0.17001320088318
  H   1.67949146477915     -1.53203537845515     -0.31309606193844
  N   -1.32218336098175      1.10787688745176      0.63683853797767
  O   -1.86675354218101      2.12003256063817      0.20477464638156
  O   -1.50489531807194      0.61028652990623      1.74710906904098
  C   -1.00946281073828     -0.94017131279013     -0.65526288671680
  H   -1.10079949324987     -1.59135598634154      0.21663320207105
  H   -2.00608131889614     -0.77357222152717     -1.06918524877788
  H   -0.40216154593177     -1.42418379670155     -1.42022450836304
