15
Coordinates from ORCA-job run
  C   1.01486682026471      0.13822132241617      0.50438141829434
  C   -0.29901474005910      0.39280849247189     -0.23870178703726
  Br  1.84300100300291      1.87784394327495      0.88472667371828
  H   -0.11962861560448      1.00279519693879     -1.12629768835221
  H   0.79165170217816     -0.29661870472441      1.47933732162388
  N   1.95711425059611     -0.68955694244993     -0.18149222252451
  H   1.71444667608670     -1.66852811370049     -0.11553555932036
  H   2.08522488798706     -0.41677286859818     -1.14712654327147
  N   -1.21057783777317      1.21107405154743      0.62343174180961
  O   -1.68753003348592      2.23333994044905      0.13966166330561
  O   -1.43715709385070      0.77047597198966      1.74894605351163
  C   -1.02484066219931     -0.90001700086067     -0.57673446272590
  H   -1.17633053791166     -1.49909821988055      0.32331905922237
  H   -1.99974331932981     -0.67960259782505     -1.01654053550297
  H   -0.45048249990148     -1.47636447104866     -1.30237513275105
