15
Coordinates from ORCA-job run
  C   1.11709031052071     -0.00276711252483     -0.26843956938624
  C   -0.37921788437597     -0.06748452086755     -0.57696659766340
  Br  1.87572325612048     -1.76014943345718     -0.98711649365756
  H   -0.53066883975038     -0.53196537179107     -1.54900552701783
  H   1.60505275633025      0.73553316973044     -0.90372052885359
  N   1.42765221631384      0.23163485323535      1.07585548789680
  H   2.40824332363662      0.42950820838533      1.21679154088406
  H   1.13819220469498     -0.51786299862261      1.68891137044996
  N   -0.91849699588656      1.32860489783465     -0.76504663478618
  O   -1.67131529813654      1.48894911865417     -1.72504846508118
  O   -0.60689231652406      2.18830159427367      0.05287152234688
  C   -1.20880207903555     -0.75236175578876      0.49234788302974
  H   -0.84799912303486     -1.77152085782013      0.64579114330877
  H   -1.15529883229668     -0.19539495093568      1.42870796036082
  H   -2.25126269857627     -0.80502484030580      0.17406690816893
