15
Coordinates from ORCA-job run
  C   1.04326713023784     -0.30675779711148      0.20782248015400
  C   -0.34985909931129     -0.05535394588448     -0.37010534867917
  Br  0.93252106082157     -0.79968697583101      2.14644520268460
  H   -0.19880916726694      0.09981753536523     -1.44248118136420
  H   1.40095699875903     -1.24185824521027     -0.23279269874975
  N   1.90375254618727      0.79281023242817      0.02273985691881
  H   1.57204557489133      1.51749334835276     -0.59347068947544
  H   2.87429775747024      0.55970265941786     -0.09963854718751
  N   -0.86258946424056      1.27359302766010      0.11242232268201
  O   -1.56938704900041      1.29530763275193      1.11316155810891
  O   -0.51411469777213      2.26026089474097     -0.54113154482065
  C   -1.36902493534242     -1.14360800491741     -0.12040019496596
  H   -1.60718750032968     -1.22002484362201      0.93735334693242
  H   -2.28523015961033     -0.93029286748256     -0.67444772824118
  H   -0.97063899549352     -2.10040265065780     -0.46547683399687
