15
Coordinates from ORCA-job run
  C   1.12351564698260     -0.13160326261557     -0.27680435202884
  C   -0.37188385786679     -0.07359730862925     -0.59426660489097
  Br  1.78749410994533     -1.86158590326846     -0.92019546410304
  H   -0.53335096855926     -0.39182603734717     -1.62419650803433
  H   1.64951812640256      0.59345981202136     -0.91004854011348
  N   1.39436995662961     -0.03906279488932      1.13235647888430
  H   1.06976800343559      0.86669195523679      1.45390600274835
  H   2.39106579359690     -0.10593262785258      1.29879440380566
  N   -0.82713071599455      1.36141473538196     -0.58203101442543
  O   -0.38040220133768      2.09773659074973      0.29935611953800
  O   -1.64879233510715      1.69071708711069     -1.43152428274663
  C   -1.25394507501732     -0.85282466155057      0.36537624894002
  H   -0.94467023109111     -1.89806632547235      0.37147851036364
  H   -2.29420909743259     -0.79188437927278      0.03980806915557
  H   -1.16134715458612     -0.46363687960246      1.37799093290716
