18

C	0.0	0.0	0.0
C	-0.485967	0.03155	-1.472176
Cl	1.853377	0.0	0.0
H	0.287232	0.489397	-2.100517
N	-0.468768	1.175822	0.644511
H	0.143132	1.486893	1.381935
H	-0.735999	1.902191	-0.003336
C	-0.448652	-1.230456	0.766375
H	-0.01096	-2.146583	0.365735
H	-0.150843	-1.123364	1.812555
H	-1.544438	-1.249353	0.707772
N	-1.732254	0.651425	-1.563761
H	-2.098819	0.610482	-2.508103
H	-2.518901	0.322139	-0.857531
N	-0.437876	-1.445631	-2.003771
O	-1.498621	-2.019746	-2.220523
O	0.679225	-1.928023	-2.205396
H	-3.616876	0.0	0.0
