18

C	0.0	0.0	0.0
C	-0.592049	0.072165	-1.398363
Cl	1.848731	0.0	0.0
H	-1.691596	-0.008865	-1.181943
N	-0.462973	1.11254	0.742454
H	-0.474992	0.939041	1.734581
H	0.029678	1.961138	0.509698
C	-0.49074	-1.278508	0.640042
H	-1.592693	-1.199339	0.635989
H	-0.156622	-2.155446	0.084104
H	-0.111826	-1.350972	1.663439
N	-0.126734	-0.884721	-2.356191
H	-0.744926	-1.682345	-2.388286
H	0.819584	-1.174133	-2.14417
N	-0.454795	1.437353	-2.030048
O	-1.248334	1.681189	-2.934074
O	0.433117	2.211386	-1.654248
H	-3.264915	0.0	0.0
