18

C	0.0	0.0	0.0
C	-0.570095	0.06995	-1.415662
Cl	1.847827	0.0	0.0
H	-1.665966	-0.057884	-1.236934
N	-0.460389	1.132346	0.71549
H	0.093168	1.956251	0.540137
H	-0.594512	0.954165	1.699037
C	-0.51485	-1.265586	0.641329
H	-0.134826	-1.349746	1.663575
H	-1.616864	-1.159869	0.6372
H	-0.204964	-2.14883	0.079848
N	-0.033586	-0.830973	-2.393578
H	0.938553	-1.032305	-2.192259
H	-0.570885	-1.685146	-2.418488
N	-0.475564	1.457879	-2.005803
O	0.507993	2.156594	-1.751535
O	-1.375526	1.78064	-2.770098
H	-3.294482	0.0	0.0
