17
Coordinates from ORCA-job run
  C   0.94015650999660      0.39057325899293     -0.16494711066523
  C   -0.45214456389225     -0.09679335030864      0.27585323965680
  Cl  0.96962596181703      0.97694997593063     -1.82559375890223
  H   -0.31544482666739     -0.37952020865802      1.32620984212187
  N   1.89284221931086     -0.82078657650439     -0.02042145761005
  O   2.27973686100471     -1.38931651908458     -1.02577633277957
  O   2.10651893367507     -1.13475535065914      1.14392033385760
  C   1.44241999767880      1.43300253651815      0.72382260438290
  N   1.79925197966302      2.29175679317081      1.44266886282447
  C   -0.89474575971117     -1.32536616985732     -0.51261269441663
  H   -0.23274725270973     -2.17931165771728     -0.35637583901634
  H   -1.89284045547466     -1.61879477679410     -0.18052485335368
  H   -0.94221166832155     -1.11570163555229     -1.58297610246885
  C   -1.47330027613335      1.03387133329298      0.19957861051399
  H   -2.41169524547621      0.69775400367265      0.64600754922428
  H   -1.67369788444655      1.31560656339864     -0.83555188716923
  H   -1.14272453031322      1.92083178015896      0.74471899379990
