17
Coordinates from ORCA-job run
  C   0.93190901499002      0.49877106490251     -0.22639717974922
  C   -0.51920998848873      0.03852799610960     -0.40969413170920
  Cl  1.28155562470975      1.96229097999599     -1.16285759559839
  H   -0.65887512677270     -0.02885772652735     -1.49402945385646
  N   1.83611308127698     -0.62112145712472     -0.76957847457426
  O   1.72840537126136     -0.85152786516496     -1.96359966393838
  O   2.52159142489411     -1.22573776128651      0.04491223527765
  C   1.26255090991065      0.72928643709123      1.17418055876522
  N   1.44472753215200      0.94650127445344      2.31497255242979
  C   -1.49218093471507      1.05687653771542      0.17670868170067
  H   -1.35664484854412      2.05012158414737     -0.25251942917037
  H   -2.51499101987327      0.73655498763639     -0.03287876869637
  H   -1.37783557070743      1.12704050751636      1.26149728134360
  C   -0.72000232296960     -1.34160657241364      0.21613339430881
  H   -0.48545853914030     -1.33272962786771      1.28403156189692
  H   -1.76655794889669     -1.63290438163537      0.10564638147732
  H   -0.11409665908695     -2.11048597754806     -0.26652794990733
