17
Coordinates from ORCA-job run
  C   0.94031204502911      0.39447110179012     -0.15486652094163
  C   -0.45197073144485     -0.10180680683955      0.27473059599658
  Cl  0.96948568709192      1.01819230823207     -1.80195374263860
  H   -0.31708319336736     -0.40400628354833      1.31990230817056
  N   1.89294807948054     -0.82014199740164     -0.03810620287659
  O   2.27897715530337     -1.36572631295451     -1.05641181548029
  O   2.10585803640049     -1.16159281153382      1.11838827223745
  C   1.44281551623288      1.41684709779767      0.75678340613672
  N   1.79863391028682      2.25951812924000      1.49467157875406
  C   -0.89316866375004     -1.31558320803515     -0.53719820486665
  H   -1.89417587927447     -1.61160967170796     -0.21627733630992
  H   -0.93351574779378     -1.08714893678699     -1.60404090385482
  H   -0.23443917417740     -2.17395022926467     -0.39157696836202
  C   -1.47385211155719      1.02942429590271      0.21705124475224
  H   -1.68237261862204      1.31995213168000     -0.81397876502485
  H   -1.13983675155181      1.91201005882339      0.76704490495763
  H   -2.40861555828620      0.68915113460666      0.66783814935013
