15

C	-0.50192	-0.030891	-1.435605
C	0.0	0.0	0.0
Br	-0.043851	1.748123	-2.187401
H	1.091344	0.0	0.0
H	-0.347	0.890925	0.52045
C	0.177237	-1.009355	-2.28902
N	0.648403	-1.741964	-3.078711
C	-2.013111	-0.201456	-1.560475
H	-2.515793	0.567362	-0.97065
H	-2.282225	-1.18942	-1.182899
H	-2.327226	-0.11622	-2.602889
N	-0.423861	-1.148631	0.749394
O	-0.5032	-2.240922	0.152186
O	-0.546934	-1.020885	1.979538
H	2.50476	0.0	0.0
