15

C	-0.502342	-0.034144	-1.433966
C	0.0	0.0	0.0
Br	-0.02528	1.739107	-2.189769
H	1.091252	0.0	0.0
H	-0.343216	0.891565	0.522084
C	0.172998	-1.022274	-2.279826
N	0.625836	-1.776418	-3.060094
C	-2.014442	-0.192108	-1.565622
H	-2.513399	0.585408	-0.983437
H	-2.293755	-1.175498	-1.182916
H	-2.321696	-0.109766	-2.610506
N	-0.414313	-1.148917	0.755664
O	-0.537563	-2.236639	0.15419
O	-0.479174	-1.026548	1.991771
H	2.504204	0.0	0.0
