15

C	-0.46992	0.040244	-1.436236
C	0.0	0.0	0.0
Br	0.275067	-1.449859	-2.501604
H	1.088568	0.0	0.0
H	-0.287864	0.922776	0.508693
C	-1.922824	-0.018145	-1.579057
N	-3.091802	0.070395	-1.677772
C	0.085985	1.329291	-2.040351
H	-0.355076	2.190264	-1.529647
H	1.16785	1.327524	-1.877934
H	-0.141046	1.388541	-3.105209
N	-0.51742	-1.094304	0.810518
O	-1.036278	-2.072376	0.254087
O	-0.329665	-0.997546	2.029163
H	2.612084	0.0	0.0
