15

C	-0.387625	-0.082711	-1.460643
C	0.0	0.0	0.0
Br	-2.355919	-0.443044	-1.702294
H	1.092308	0.0	0.0
H	-0.375114	0.898333	0.484753
C	-0.193636	1.252979	-2.026209
N	-0.023942	2.322949	-2.483006
C	0.415937	-1.096398	-2.259922
H	0.231398	-0.976163	-3.32865
H	0.161767	-2.103522	-1.94169
H	1.469508	-0.905337	-2.017621
N	-0.414434	-1.128069	0.816121
O	-0.378443	-2.263299	0.327525
O	-0.685637	-0.892086	2.000503
H	2.58171	0.0	0.0
