15

C	-0.400962	-0.027575	-1.445958
C	0.0	0.0	0.0
Br	-2.398993	-0.133217	-1.652676
H	1.093754	0.0	0.0
H	-0.331315	-0.902104	0.511958
C	0.012936	1.139572	-2.222894
N	0.360388	1.98233	-2.965487
C	0.217772	-1.277157	-2.061847
H	1.298283	-1.214783	-1.879147
H	-0.17862	-2.167326	-1.569606
H	0.0097	-1.331678	-3.130851
N	-0.480088	1.13389	0.767386
O	-0.65339	0.955566	1.979331
O	-0.602092	2.223133	0.196661
H	2.579142	0.0	0.0
