10
Coordinates from ORCA-job run
  C   -0.23247960432024      0.10735950652244     -0.00707647231998
  C   -1.17716074314438     -0.78998972334871     -0.33945817792680
  H   -0.91015383642552     -1.82254417125002     -0.53726293536920
  H   -2.22155544396536     -0.51152667727573     -0.41918660609241
  C   -0.61675576446327      1.46988158665067      0.24909386594057
  N   -0.89795787473376      2.59138403040752      0.46468303998670
  C   1.23361723914107     -0.20521288886720      0.12201178762432
  H   1.81900319671060      0.40323128377543     -0.57171290558301
  H   1.41873400776026     -1.25876634068008     -0.09224610621607
  H   1.58670882344060      0.01618339406569      1.13215450995588
