10
Coordinates from ORCA-job run
  C   -0.22845940547293      0.10232916303467      0.05402673483066
  C   -1.22890398938516     -0.74592397353902     -0.24228984004573
  H   -1.01563693118670     -1.72576459843982     -0.65580456895709
  H   -2.26643188598396     -0.47884430773758     -0.07861820674401
  C   -0.54317129179520      1.39521685597819      0.60123878375343
  N   -0.76693338752976      2.45939352416243      1.04928563950230
  C   1.23229673053062     -0.19770218713810     -0.14537309573423
  H   1.68515063509939      0.52879605332739     -0.82449245972167
  H   1.36188069495284     -1.19753277640833     -0.56203961091881
  H   1.77020883077086     -0.13996775323983      0.80406662403516
