10
Coordinates from ORCA-job run
  C   -0.23660637811837      0.09887543582538     -0.00232200082594
  C   -1.16301464277714     -0.85422509062263     -0.20608498615512
  H   -2.22032489807129     -0.61988596007463     -0.24664420160449
  H   -0.86741369384191     -1.89004410836185     -0.33364647500815
  C   -0.65819578458649      1.46426666780717      0.16414214670652
  N   -0.97054782887475      2.58958501159118      0.30339976802736
  C   1.24528495699036     -0.15289752256364      0.06652822060276
  H   1.45784687888679     -1.21397454999114     -0.07149933204758
  H   1.64479504395472      0.16348900283996      1.03321985127286
  H   1.76817634643809      0.41481111355020     -0.70709299096823
