10
Coordinates from ORCA-job run
  C   -0.23444721710466      0.10290688457969      0.00033145819780
  C   -1.17244735903487     -0.81016715914514     -0.30724931944055
  H   -2.22336070014579     -0.54963607865342     -0.35738762633144
  H   -0.89332056973194     -1.83754764411479     -0.51506205928691
  C   -0.63517845715419      1.45805610028468      0.27022956994907
  N   -0.92998362014109      2.57406693382746      0.49555929964629
  C   1.24000180010646     -0.18393050497571      0.08622885489974
  H   1.43706940084856     -1.23377649149958     -0.13520702298887
  H   1.79389497976650      0.43564125450582     -0.62332339151698
  H   1.61877174259102      0.04238670519099      1.08588023687185
