10
Coordinates from ORCA-job run
  C   -0.23409711275753      0.10386381465099      0.00274984098432
  C   -1.17832457056787     -0.80630444382028     -0.29422168438054
  H   -0.90419687959140     -1.83316302550321     -0.51107029722504
  H   -2.22967127653587     -0.54443748970912     -0.32427548827846
  C   -0.62843585565904      1.45802434915146      0.28665703645828
  N   -0.91802385117677      2.57289196534117      0.52409491731121
  C   1.24091165938452     -0.18604909133056      0.06562309737781
  H   1.78642760355111      0.43604795657489     -0.64809688615931
  H   1.63367075264721      0.03428821839748      1.06127496909205
  H   1.43273953070564     -1.23516225375282     -0.16373550518032
