10
Coordinates from ORCA-job run
  C   -0.23456577272176      0.10380779938765     -0.00284234617986
  C   -1.17510450247157     -0.81664320384304     -0.27933599471786
  H   -0.89808721144172     -1.85063596801276     -0.45454827195840
  H   -2.22563859197815     -0.55592260233072     -0.33484638145762
  C   -0.63164117918048      1.46770053378783      0.22517374766300
  N   -0.92326413168776      2.59092651386879      0.41648879105484
  C   1.23944914365761     -0.18365343065272      0.08918917760250
  H   1.79360744315516      0.41157705067956     -0.64067932439534
  H   1.62054087202503      0.07333706320726      1.08052447934631
  H   1.43370393064364     -1.24049375609186     -0.09912387695756
