18
Coordinates from ORCA-job run
  C   -0.53803712292047      0.01472364513785     -0.44139533608276
  C   0.96627238961299     -0.24565576636750     -0.24859110090853
  Br  -0.77330273420123      0.14976037973289     -2.40608972380655
  H   1.23998650321270     -1.15488368442564     -0.79446689521914
  C   -1.36515361865848     -1.17176136775817      0.02882150683578
  H   -1.32159375260959     -1.24465570857816      1.11905794639979
  H   -1.00285352675278     -2.10944370505747     -0.39586848145883
  H   -2.40794311437441     -1.03530651671645     -0.26116795064702
  C   -1.01588125885245      1.31774354556217      0.17669172017199
  H   -0.45606538189990      2.17555591347085     -0.19199346975702
  H   -2.07434812282550      1.46109502893098     -0.04843469241554
  H   -0.88342819666914      1.27268488908262      1.25946128769168
  N   1.17548148900149     -0.66685106330979      1.20383448383633
  O   1.32224544873367     -1.87515308953030      1.39025514802439
  O   1.15603859071243      0.19574560383445      2.07406820748035
  N   1.76661957265818      0.90970444663378     -0.50372784896055
  H   2.74274120924995      0.65755579289182     -0.59642280956290
  H   1.46822162658253      1.35114165646608     -1.36403199162146
