18
Coordinates from ORCA-job run
  C   -0.65535174417328     -0.25893646859099      0.16177608447260
  C   0.85530947692137     -0.46663653980036     -0.04834752107576
  Br  -1.23032708423173     -1.43918976734885      1.62792211656790
  H   1.03892858649818     -1.50442812680998     -0.33031295861310
  C   -1.04063581284273      1.16719699577726      0.52474045509991
  H   -0.76619075461325      1.84055468244022     -0.29250165865057
  H   -0.55941680731726      1.50216124754676      1.44202105748332
  H   -2.12242841989510      1.22458708471348      0.65606225168139
  C   -1.37397560362480     -0.71582528977839     -1.10167028943713
  H   -2.45363135675269     -0.62871886546870     -0.96800422617646
  H   -1.14066549471944     -1.75724627335896     -1.33317876197637
  H   -1.06069257697708     -0.08972576705232     -1.93889652548538
  N   1.62764844896076     -0.30620840905493      1.25785591554635
  O   2.08510080105695     -1.31914953815376      1.77750515547758
  O   1.76668482365834      0.84375876070147      1.67497554602159
  N   1.34682395417702      0.42157064987835     -1.05395066027970
  H   1.42209803288348      1.36084047569035     -0.68182489030467
  H   2.26072153099125      0.12739514866935     -1.37517109035151
