18
Coordinates from ORCA-job run
  C   -0.59637387288832      0.01352243454820     -0.47052949951320
  C   0.91873546838069     -0.27144214624123     -0.42002760963662
  Br  -1.03346829418151      0.09193184491121     -2.39066326274448
  H   1.15172960885635     -1.12169407451293     -1.06105021852142
  C   -1.40743334623794     -1.12370957774969      0.13435918311608
  H   -1.11660287552214     -2.09060081267649     -0.27928259653220
  H   -1.26635179707551     -1.15271078101150      1.21854602588455
  H   -2.46778751734113     -0.96461374655471     -0.06571515791193
  C   -0.96548296269480      1.35349703045741      0.14510249611516
  H   -0.47257190575579      2.17610377947574     -0.37303455615208
  H   -2.04360753269524      1.50576868586534      0.07277893299032
  H   -0.68167100903019      1.36660410211179      1.20111431171641
  N   1.23016975021555     -0.79576566489442      0.99037120360218
  O   1.30151183091838     -2.01316870863355      1.13755086985472
  O   1.37129053018559      0.04436003435457      1.87901962351954
  N   1.71275944647428      0.85263911152596     -0.76045669201795
  H   1.69192066380175      1.54586872857999     -0.02339672554853
  H   2.67223381459000      0.58440976044429     -0.93468632822056
