18
Coordinates from ORCA-job run
  C   -0.58750767274437      0.01022223693556     -0.48162776188566
  C   0.92962862418287     -0.25662060238866     -0.40432975281898
  Br  -0.98880722023090      0.09984631405795     -2.40901925640256
  H   1.18484566104567     -1.09891535759591     -1.04739817915180
  C   -1.39536942492517     -1.14235669193528      0.09803081616380
  H   -1.27497002954541     -1.17883398505422      1.18449427706632
  H   -2.45362572827026     -0.99505129162196     -0.12129186416993
  H   -1.08411263175164     -2.10192584859003     -0.31777474790901
  C   -0.98525351131948      1.34003173441721      0.13815435801317
  H   -2.06374691766937      1.47901155013367      0.04687259950245
  H   -0.49362628229607      2.17338314523850     -0.36382112695255
  H   -0.72127041183351      1.34793661722992      1.19932208774582
  N   1.22084403090404     -0.78838256709089      1.00749655015947
  O   1.30471261755880     -2.00599107205105      1.14615435539658
  O   1.33458265284550      0.04602789017415      1.90531527125440
  N   1.71608511525139      0.87954394342371     -0.72110940690031
  H   2.68191271458739      0.62463473343998     -0.87938014893220
  H   1.67267841421052      1.56743925127734      0.01991192982099
