18
Coordinates from ORCA-job run
  C   -0.49857560285269      0.24138269573998     -0.20692671461776
  C   0.89920490613251     -0.33094570056926      0.13011436796728
  Br  -0.32034102682955      1.72078985489138     -1.49518555230923
  H   0.72986304515796     -1.19874813814414      0.77299009414599
  C   -1.30929611180915     -0.85372492703546     -0.88817070859899
  H   -0.82062684219286     -1.21068068710516     -1.79547273137299
  H   -1.43944037869887     -1.69455952721308     -0.19798858761067
  H   -2.29607328521942     -0.47684594026786     -1.16101715887599
  C   -1.22182630745849      0.77334833964237      1.02095072468802
  H   -1.27952584574906     -0.01056643543420      1.78242280026539
  H   -0.71251591820582      1.63247258487248      1.45661966608469
  H   -2.23476562695713      1.07645991187384      0.75022344979239
  N   1.63215875742814      0.64014360407581      1.02558930246206
  O   1.48624652036542      0.49198226835316      2.23862284504207
  O   2.29025239808427      1.51720382048039      0.47842907420753
  N   1.77046531996247     -0.69530100874460     -0.93641143169522
  H   1.55631158923951     -1.61282051422835     -1.29692717487016
  H   1.76848440960276     -0.00759020118731     -1.67786226470442
