18
Coordinates from ORCA-job run
  C   -0.61178511685563     -0.26481263797921      0.15266573476713
  C   0.91279675999724     -0.50132467627832      0.05231168607790
  Br  -1.32104585614305     -1.55042688415635      1.46619254893069
  H   1.08651296978471     -1.55375971664413     -0.17648600901807
  C   -1.02075279288979      1.13135917540043      0.59738449192506
  H   -0.62733340208277      1.87935117230164     -0.09782037823067
  H   -0.66262750848494      1.36677299852118      1.59723952084657
  H   -2.10969181432266      1.20681252964854      0.58762081772401
  C   -1.23506297051573     -0.60984045890923     -1.19536962160167
  H   -0.94334870115260     -1.60968028633479     -1.52562505214645
  H   -0.92651153620014      0.12090504309024     -1.94818401550151
  H   -2.32312652329292     -0.57983834750329     -1.12261315596945
  N   1.58379357468361     -0.28242367229797      1.38262145757247
  O   1.98082884781338     -1.26743363812024      1.99509973952773
  O   1.69854440660092      0.88836394214177      1.74125037889748
  N   1.62876448630761      0.31332728861362     -0.88827737688070
  H   1.42341270753420      1.29658466870251     -0.77818300579557
  H   1.46563246921855      0.01606349980360     -1.83882776112496
