18
Coordinates from ORCA-job run
  C   -0.52875847226362     -0.00290772603206     -0.43888464274310
  C   0.97953163177714     -0.33596167329559     -0.29666799322186
  Br  -0.79936283806055      0.14437381955892     -2.39401197181712
  H   1.18811656152210     -1.24026878328929     -0.86899873325377
  C   -1.40090077907518     -1.14499630657953      0.05938906511675
  H   -1.09129083811052     -2.10106508655351     -0.36643594335385
  H   -2.44350543576651     -0.96516808793761     -0.20759597044777
  H   -1.33489251158690     -1.21577628302691      1.14875496121052
  C   -0.92890107538471      1.32461256321275      0.18036670211505
  H   -0.36238242782315      2.15613757446408     -0.24015770946946
  H   -0.76280967950641      1.29515739999535      1.25975173133867
  H   -1.98724730939959      1.51408709666176     -0.00661486617590
  N   1.21750979958393     -0.72899716604316      1.14024287898656
  O   1.23782954559590     -1.92833499815715      1.40345889801600
  O   1.34402711988257      0.18802121125146      1.94955868228402
  N   1.95074812878978      0.66559949616100     -0.61612724035126
  H   1.78304815773485      1.51803692038004     -0.09823383810281
  H   1.93824042209088      0.85745002922948     -1.60879401013066
