18
Coordinates from ORCA-job run
  C   -0.64337452902110     -0.34976959964072      0.16948665497095
  C   0.88858210158832     -0.37830817286552      0.03017774996314
  Br  -1.21608072659806     -1.88621332027942      1.26216449727225
  H   1.21530253050626     -1.41973163507959     -0.10899094891434
  C   -1.16722688295621      0.94143704016001      0.77633708502005
  H   -0.74769991370833      1.78013419824825      0.21364529662115
  H   -0.89595740877072      1.03663570513376      1.82577007082645
  H   -2.25548551969623      0.97199255182100      0.69632242843572
  C   -1.24718069920292     -0.57458410994105     -1.21550763861269
  H   -2.32621263686905     -0.70590154026879     -1.12658463731348
  H   -0.84011358528384     -1.47177409797615     -1.69057772664810
  H   -1.05423482930377      0.29534604931974     -1.84671837224177
  N   1.62684700176570      0.04690973940277      1.29469192099159
  O   2.76364860843124      0.48875456488531      1.13806510067756
  O   1.08645983445367     -0.13660521575957      2.37698476515059
  N   1.30516181626955      0.53194034610599     -1.01526546114541
  H   1.22611832779736      0.06934837888548     -1.91178107811333
  H   2.28144651059813      0.76238911784850     -0.86921970694033
