18
Coordinates from ORCA-job run
  C   -0.57848323479042      0.17985850999990     -0.18926615954938
  C   0.86403630231128     -0.30060672918824      0.04310384367406
  Br  -0.55549871524943      1.73160410432814     -1.40856896616116
  H   0.80647087969840     -1.17307349515921      0.70074448360663
  C   -1.34967151743993     -0.93798768628164     -0.87907061389553
  H   -1.38961234807430     -1.80721785880216     -0.21345053940702
  H   -2.37116068950436     -0.61376000632704     -1.08474454274000
  H   -0.86788241495446     -1.23324631579365     -1.80892873741623
  C   -1.27427027875895      0.61319899437451      1.09208282776718
  H   -2.31642153163441      0.85115212452180      0.87236498003246
  H   -0.81038340507493      1.48828869207621      1.54445069949342
  H   -1.24506058809396     -0.20332925157935      1.81981346793330
  N   1.62150088862226      0.72045804641483      0.90329707617115
  O   1.47306100323090      0.63294855287846      2.12102321398972
  O   2.32023196524653      1.54362769837966      0.31935484112964
  N   1.54270777699307     -0.63029923237148     -1.15480316516098
  H   1.69324203757022      0.19850376101269     -1.71685202099161
  H   2.43619386990249     -1.06311990848342     -0.96055068847567
