18
Coordinates from ORCA-job run
  C   -0.54291980958278      0.01965039179046     -0.43521924986056
  C   0.95935295741534     -0.26269100672123     -0.25784889847067
  Br  -0.79930219783866      0.14310327586002     -2.39787585280062
  H   1.21249974629184     -1.17986968115757     -0.80030139109496
  C   -1.38283891622926     -1.14995765572273      0.05425796359220
  H   -1.03995079343073     -2.09676724716246     -0.36627015146727
  H   -1.32798630913381     -1.21421957245470      1.14453275034654
  H   -2.42655407822456     -0.99953926015784     -0.22529564848804
  C   -0.99297738972884      1.33470999780279      0.17838204090069
  H   -0.42518572264467      2.18101850017349     -0.20443625796383
  H   -0.84732022669974      1.29610935888711      1.25968180763308
  H   -2.05194681506572      1.49234848352023     -0.03459045003416
  N   1.17919162456973     -0.67617044751963      1.19504342869142
  O   1.30899757727933     -1.88527374615665      1.38905222884721
  O   1.18384576789785      0.19295812511035      2.05898321644678
  N   1.77458404614188      0.87823940955264     -0.53118262589681
  H   2.74517148953290      0.60939598204639     -0.63484518404028
  H   1.47233904944990      1.31795509230933     -1.39106772634071
