18
Coordinates from ORCA-job run
  C   -0.59519070762028      0.01379887335431     -0.47205543876678
  C   0.91822074584200     -0.27809079665845     -0.41594224438450
  Br  -1.02725150630846      0.08262442338992     -2.39365416296326
  H   1.14845289819488     -1.13349762866897     -1.05111791655796
  C   -1.41242863916924     -1.11645112849801      0.13760095781194
  H   -1.27461824048464     -1.13940243345890      1.22238112129731
  H   -1.12408981163748     -2.08695737692624     -0.26929951031807
  H   -2.47163556117392     -0.95463065025299     -0.06639863862944
  C   -0.95979839050699      1.35906741284326      0.13462468283468
  H   -2.03721370987899      1.51524959912730      0.05986267502782
  H   -0.67726065992071      1.37804149432250      1.19086058800599
  H   -0.46292625226850      2.17637686605842     -0.38814848726507
  N   1.22395561797965     -0.79559958526893      0.99810553753963
  O   1.29074921553477     -2.01245390625399      1.15201028915243
  O   1.36566416905837      0.04888462835338      1.88247550780657
  N   1.71878715100468      0.83983221262373     -0.76137856192964
  H   2.67734983513074      0.56589056638772     -0.93164462295918
  H   1.69923384622411      1.53831742952593     -0.02928177570248
