18
Coordinates from ORCA-job run
  C   -0.51363866272810      0.22240590901527     -0.18929043204544
  C   0.91863718557440     -0.28310740143492      0.10874952137448
  Br  -0.43280494250450      1.78923885985357     -1.38018445373638
  H   0.80515821139510     -1.19769222984274      0.69679957632510
  C   -1.25928114812011     -0.87477188153077     -0.93824435069667
  H   -1.33267760121189     -1.76498924115188     -0.30390019335758
  H   -0.75592017814604     -1.14107534352220     -1.86835447458967
  H   -2.26922442339317     -0.54306228707602     -1.18361026584670
  C   -1.26202880090396      0.62911211858149      1.07101488325630
  H   -2.29303812725916      0.88544484147127      0.82094513735952
  H   -0.80466879927520      1.48869040147967      1.56008169030144
  H   -1.26718450420924     -0.20355657397331      1.78114772121154
  N   1.59796554249696      0.67403866470513      1.05867873684966
  O   2.20313274531464      1.61734784040525      0.56294648643187
  O   1.46507647317250      0.44782153832291      2.26101027653608
  N   1.80481059703399     -0.52903379851927     -0.97996210094106
  H   1.62916989789279     -1.42626860850457     -1.40678956259837
  H   1.76651653487100      0.20945719172111     -1.67003819583412
