18
Coordinates from ORCA-job run
  C   -0.64738466890110     -0.24726467186818      0.20614612128170
  C   0.85035754859771     -0.47325046768259     -0.06759500769474
  Br  -1.15280429777395     -1.35081036979770      1.75544569705660
  H   1.01704919852053     -1.52445250742298     -0.30721043337072
  C   -1.00995655459559      1.19696744644686      0.51683958825821
  H   -0.48089719596216      1.57524324156875      1.38990135205922
  H   -2.08329042884197      1.26634587532691      0.70109877244496
  H   -0.77705583631827      1.82747914882962     -0.34623224600690
  C   -1.42895756955410     -0.76176538333654     -0.99634464902045
  H   -1.21064644353489     -1.81469295386321     -1.18683284226223
  H   -2.50038599956635     -0.66234476399590     -0.81393309221678
  H   -1.15533318519816     -0.17959103337961     -1.87796724247424
  N   1.68710528495221     -0.25455898432299      1.18995859983820
  O   2.16699523714618     -1.24403035449320      1.73401324601444
  O   1.84977488756586      0.91327777390780      1.54417439586693
  N   1.29415085035575      0.36322458810222     -1.13766060805414
  H   2.19109738938130      0.05032995159629     -1.48778075811752
  H   1.38918178372700      1.31889346438446     -0.81502089360255
