16

C	0.0	0.0	0.0
C	-0.522001	0.139995	-1.442483
F	1.391033	0.0	0.0
H	-1.607926	0.306209	-1.344175
C	-0.381661	1.195882	0.778942
N	-0.581977	2.175111	1.395598
C	-0.478522	-1.263022	0.680059
H	-0.093295	-1.28761	1.700503
H	-0.095404	-2.13079	0.139405
H	-1.572112	-1.268316	0.692473
N	-0.30954	-1.023782	-2.289076
H	0.618099	-1.404579	-2.136896
H	-1.002639	-1.72612	-2.059431
C	0.100258	1.314608	-2.071271
N	0.610638	2.238389	-2.585671
Br	-3.778201	0.0	0.0
