16

C	0.0	0.0	0.0
C	-0.520946	-0.337946	-1.398971
F	1.392596	0.0	0.0
H	-1.62013	-0.315562	-1.300233
C	-0.388321	1.380385	0.352058
N	-0.584286	2.510026	0.604994
C	-0.48253	-0.990451	1.036054
H	-1.575704	-0.984605	1.047488
H	-0.099144	-0.69504	2.0144
H	-0.114127	-1.979488	0.768816
N	-0.084873	-1.676817	-1.77665
H	0.881	-1.644752	-2.082639
H	-0.651949	-2.003564	-2.550493
C	-0.103044	0.686199	-2.376114
N	0.245868	1.424125	-3.22201
Br	-3.803283	0.0	0.0
