16

C	0.0	0.0	0.0
C	-0.545854	-0.331319	-1.390854
F	1.392423	0.0	0.0
H	-1.641506	-0.242497	-1.280693
C	-0.373862	1.386113	0.356555
N	-0.569365	2.512862	0.623116
C	-0.480744	-0.982961	1.043322
H	-0.146595	-1.978961	0.755384
H	-0.057029	-0.707885	2.011638
H	-1.571831	-0.950613	1.085661
N	-0.204909	-1.698852	-1.760568
H	-0.904765	-2.056167	-2.397671
H	0.698046	-1.728152	-2.21737
C	-0.075642	0.652217	-2.382799
N	0.330405	1.359455	-3.229072
Br	-3.827045	0.0	0.0
