16

C	0.0	0.0	0.0
C	-0.516655	-0.338127	-1.400274
F	1.392392	0.0	0.0
H	-1.615883	-0.322478	-1.306103
C	-0.386971	1.380299	0.354629
N	-0.58294	2.508803	0.613413
C	-0.480205	-0.994174	1.033568
H	-0.106218	-1.980804	0.762987
H	-1.572442	-0.994199	1.043622
H	-0.098064	-0.700942	2.013279
N	-0.068274	-1.673797	-1.777124
H	0.898728	-1.633048	-2.07766
H	-0.628103	-2.003481	-2.553983
C	-0.10407	0.68712	-2.376438
N	0.24359	1.425732	-3.221743
Br	-3.802037	0.0	0.0
