14
Coordinates from ORCA-job run
  C   1.05307749911648     -0.48540120497322      0.30739848016156
  C   -0.23546862235284      0.31105323077044      0.10142530612765
  F   1.07921924050738     -1.05208647169305      1.57274923435438
  H   -0.19292821014943      1.16934674859712      0.78015171813482
  H   1.10236951341910     -1.29847671734955     -0.42464766038456
  C   2.23327151668696      0.37635721192879      0.15086017595803
  N   3.17690685856022      1.06814230936830      0.06549078655579
  C   -1.45469964127933     -0.53954832793193      0.43352484609379
  H   -1.49826160856383     -1.41304659084768     -0.22575532036582
  H   -2.36659476162369      0.04357590805569      0.28666827024467
  H   -1.42961495073725     -0.89401410540794      1.46472268995901
  N   -0.18641965023942      0.79945311575711     -1.27213147535027
  H   -0.57700481765289      1.72742229214713     -1.34906125475747
  H   -0.70385236569145      0.18622260157881     -1.88939579673157
