14
Coordinates from ORCA-job run
  C   1.02351276965293     -0.45931789736842      0.40260182590169
  C   -0.27955615568235      0.27734681297362      0.10089348427225
  F   1.07689238730410     -0.80799272144307      1.74207831794538
  H   -0.32232933341420      1.14230684328097      0.78040135190535
  H   1.07133149256156     -1.37225095987357     -0.19733395059727
  C   2.18231556384470      0.39077970101533      0.08764924748767
  N   3.07192105026722      1.10877794243308     -0.17744969392616
  C   -1.46382408164761     -0.63409788452482      0.37309037473287
  H   -2.40115431603997     -0.08742926471245      0.24161680041147
  H   -1.45393713826028     -1.47414942506489     -0.32640727255152
  H   -1.43554742289273     -1.01722490521457      1.39321159379876
  N   -0.23300588588636      0.63477242281482     -1.31242218449672
  H   0.33069720153392      1.46415952361024     -1.45741930527872
  H   -1.16531613134093      0.83331981207376     -1.65251058960505
