14
Coordinates from ORCA-job run
  C   1.00526114540736      0.11250648060511      0.73248855826838
  C   -0.40012313737943      0.38302109618577      0.21957380068747
  F   1.66003754594448      1.32534896810039      0.91517086823884
  H   -0.88613672517713      0.98115650004632      1.00855198127102
  H   0.96872868697894     -0.38532055086031      1.70649926736931
  C   1.78639469558454     -0.70735349415072     -0.20488515811836
  N   2.42980253167727     -1.36239626299559     -0.93499860519780
  C   -1.16270251479370     -0.91879055473299      0.03225952879004
  H   -0.69649698125572     -1.51909355644066     -0.75132011834920
  H   -2.19280482996003     -0.70951073908369     -0.26641733981559
  H   -1.19837015713085     -1.49905423340337      0.95779009400786
  N   -0.28086687212629      1.07915868957799     -1.05128600019235
  H   0.16539359786060      1.97801942757735     -0.91583980928598
  H   -1.19811698563004      1.24230822957442     -1.44758706767363
