14
Coordinates from ORCA-job run
  C   0.99171741729126     -0.42929709006434      0.33239005399339
  C   -0.34013079875262      0.31344244209824      0.15389156519286
  F   1.10653957711161     -0.91581096877164      1.62429911686363
  H   -0.34891727928387      1.11925604160645      0.89600160108625
  H   1.03815088389371     -1.28496333754782     -0.35101664472942
  C   2.12577128732431      0.46686337145445      0.05812864450662
  N   2.99645091757800      1.21955535418889     -0.17211830387679
  C   -1.50105153428292     -0.63088585228963      0.41895930316207
  H   -1.42409241527558     -1.08572793124505      1.40682406887481
  H   -2.43847343633099     -0.07858611982246      0.34914853830154
  H   -1.52151855164709     -1.43131226952697     -0.32830453407350
  N   -0.47843856211140      0.91725731515929     -1.15927876185940
  H   0.24353981972855      1.60436202568754     -1.33814945008492
  H   -0.44854732524297      0.21584701907304     -1.88977519735713
