14
Coordinates from ORCA-job run
  C   1.23087720559829      0.15605312470055      0.01963303003090
  C   -0.25543884560200      0.41040605007240      0.24074672684237
  F   1.44030121882398     -0.17996473114243     -1.31329551506539
  H   -0.36637349389654      0.68001055290736      1.29773784104952
  H   1.78904407529872      1.07468955258071      0.21468532580279
  C   1.73876282145773     -0.93163664679403      0.86740345357756
  N   2.12221849740748     -1.78935863175044      1.57033078836221
  C   -1.09151117630641     -0.83267740272818     -0.05857496260478
  H   -0.94726346564992     -1.14426739855451     -1.09526384406661
  H   -0.83013278466179     -1.66993220741752      0.59353418602793
  H   -2.15052540324177     -0.60820130798833      0.08716507556528
  N   -0.58897107717878      1.59215232043209     -0.54913295288542
  H   -1.53520339110392      1.88701596246741     -0.34097676188211
  H   -0.55578418094507      1.35371076321491     -1.53399239075425
