14
Coordinates from ORCA-job run
  C   1.14622881967076      0.17479867771423     -0.03425495745199
  C   -0.35112131782554      0.37311948615871      0.24296478282121
  F   1.31844226434521     -0.18625496295150     -1.36430701147630
  H   -0.43928190355707      0.66767814828433      1.29550463166916
  H   1.68474844211333      1.11643263995595      0.11402659637697
  C   1.74211623121335     -0.85847739713790      0.82365409187375
  N   2.18697255164326     -1.67161254505514      1.54367060867041
  C   -1.12736552128687     -0.91576646909939      0.01344884608132
  H   -2.18390465485056     -0.73124950507287      0.20617238876556
  H   -1.01819070811861     -1.24600021330915     -1.02195522512406
  H   -0.78107530288837     -1.71837245449442      0.66711967484935
  N   -0.92258006554494      1.43750905874191     -0.56803961266340
  H   -0.77545091788415      1.23108321950528     -1.54952194568479
  H   -0.48053791702980      2.32711231675997     -0.36748286870718
