14
Coordinates from ORCA-job run
  C   1.04951175461247      0.06197595807315      0.77318125456858
  C   -0.34521755550047      0.44198831367138      0.27972983776138
  F   1.74090646402178      1.18261508316511      1.17818623825000
  H   -0.76787230237359      1.06402965031628      1.07627842572981
  H   0.98187116089688     -0.61173881660343      1.63370966034038
  C   1.80072000020630     -0.61311397451080     -0.29842207600497
  N   2.34243716216183     -1.17180549989965     -1.17674254319364
  C   -1.20144688114931     -0.80979179316560      0.09305481643979
  H   -1.28809326078689     -1.39349119085336      1.01407449414291
  H   -2.20712091677860     -0.52456022949416     -0.22205700525915
  H   -0.77708619836941     -1.45395430222468     -0.68262625244178
  N   -0.20670751068169      1.27869360071042     -0.90316133168845
  H   -0.08608188633077      0.70514656043560     -1.73063737962971
  H   -1.03482002992855      1.84400664037974     -1.03556813901515
