14
Coordinates from ORCA-job run
  C   0.97632818331226      0.12364543676172      0.73390560518128
  C   -0.45961593457516      0.40259537822163      0.27700775914630
  F   1.61877460123457      1.33491924897624      0.95753862130361
  H   -0.91269368925806      0.97664077236264      1.09405219032838
  H   0.99666504566503     -0.43533452237979      1.67480574390746
  C   1.71916162166920     -0.61727245316432     -0.29601086469949
  N   2.26276514613492     -1.21047140112278     -1.15052637440235
  C   -1.22558937281354     -0.89600325607108      0.08356241217529
  H   -1.21730869823434     -1.50899964054524      0.98823632121871
  H   -2.25971623093085     -0.66532774443303     -0.17326646212058
  H   -0.79610350273549     -1.48483911480282     -0.73202813823159
  N   -0.53688625089218      1.21532814578510     -0.92183475010071
  H   0.01165559097960      2.05968650639409     -0.81363322635127
  H   -0.17843650955596      0.70543264401764     -1.72180883735502
