14
Coordinates from ORCA-job run
  C   0.99431656774725     -0.33385501020992      0.42399802570278
  C   -0.35872100619505      0.31593636533642      0.09999503175549
  F   1.07443823941855     -0.63890507001958      1.77260716952177
  H   -0.43107017849756      1.21165135174543      0.72663136260522
  H   1.10529250411334     -1.26910152085766     -0.13683227485041
  C   2.10112845539913      0.56834365925798      0.07012085337347
  N   2.94908325536386      1.31378685828315     -0.25080968400137
  C   -1.48940067099209     -0.63784543635346      0.44880953301696
  H   -1.44543987245669     -1.53088606593392     -0.18370233402213
  H   -2.44511774541627     -0.14407597560053      0.27136205686420
  H   -1.43508461065812     -0.95270997695431      1.49116540613468
  N   -0.46866271664349      0.73297322483098     -1.28628991276983
  H   -0.38281977161099     -0.05774111194756     -1.91395930078708
  H   0.23305755042811      1.42042870842299     -1.53209593254377
