14
Coordinates from ORCA-job run
  C   1.21791412977493      0.09326759505763      0.15347372246245
  C   -0.29483107539869      0.32721912382736      0.16690117516342
  F   1.64420043489846     -0.27975435577949     -1.10466060537821
  H   -0.58614367954574      0.40008068525314      1.22732901263964
  H   1.74374074882048      1.01689962221990      0.41547270996989
  C   1.59061763833879     -0.96285571194077      1.10999520634967
  N   1.85199068032187     -1.80918432201256      1.87958241477907
  C   -1.02564486889662     -0.84674486800015     -0.46596347640890
  H   -0.76401828254221     -1.78945909883470      0.01807517338928
  H   -0.76990571938119     -0.90990589658972     -1.52398499914079
  H   -2.10551402072040     -0.70900847916361     -0.37198809908849
  N   -0.56070417275744      1.54650128459725     -0.58795412826916
  H   -1.52051122790314      1.55692118642015     -0.90808686415620
  H   -0.42219058500910      2.36602323494556     -0.00919124231168
