14
Coordinates from ORCA-job run
  C   1.04503305539698      0.00342739516858      0.78085592768038
  C   -0.33762822298481      0.43641363560286      0.29708109752728
  F   1.75843666279621      1.08931526097554      1.23983161799154
  H   -0.75183697269569      1.03030255029122      1.11923798403341
  H   0.95570060647190     -0.70566021218650      1.61043450646106
  C   1.78920102834829     -0.63933254557666     -0.31502040431043
  N   2.32753513889898     -1.16927517583611     -1.21301545014656
  C   -1.21977950134014     -0.78642245255284      0.04862760690156
  H   -0.80567407981284     -1.40280831385791     -0.75487739684007
  H   -1.32357190317138     -1.41051229393378      0.94114094847717
  H   -2.21763262802500     -0.46481602346111     -0.25666190178781
  N   -0.17342672288318      1.32307842104162     -0.84517550119645
  H   -0.98897933291995      1.91057644046018     -0.95727268413184
  H   -0.05737712807942      0.78571331386492     -1.69718635065924
