16

C	0.0	0.0	0.0
C	-0.412393	0.213304	-1.511875
Br	1.955212	0.0	0.0
H	0.288147	-0.393013	-2.094933
C	-0.5924	1.019038	0.957986
H	-0.275239	2.024331	0.675566
H	-1.686242	0.941101	0.907727
H	-0.268193	0.812072	1.979805
C	-0.373246	-1.362179	0.382845
N	-0.639785	-2.458009	0.713499
C	-0.13472	1.620488	-1.847328
N	0.111637	2.749316	-2.056486
N	-1.742306	-0.146954	-1.900288
H	-1.86904	-1.15014	-1.806157
H	-2.48484	0.264789	-1.325464
Cl	-4.218114	0.0	0.0
