16

C	0.0	0.0	0.0
C	-0.452541	-0.087412	-1.489527
Br	1.97013	0.0	0.0
H	0.328363	-0.625371	-2.035924
C	-0.57959	1.181048	0.758909
H	-0.26684	1.147178	1.803917
H	-0.249212	2.119981	0.311399
H	-1.673342	1.10822	0.706186
C	-0.337154	-1.256548	0.676803
N	-0.559367	-2.240688	1.279369
C	-0.486136	1.279913	-2.071823
N	-0.584616	2.312813	-2.625529
N	-1.669969	-0.848411	-1.597636
H	-2.459471	-0.469948	-1.052497
H	-1.965255	-0.898762	-2.565315
Cl	-4.246772	0.0	0.0
