16

C	0.0	0.0	0.0
C	-0.403611	0.278384	-1.503337
Br	1.968557	0.0	0.0
H	0.306669	-0.298713	-2.105647
C	-0.608126	0.961942	0.998592
H	-0.303675	1.98454	0.769064
H	-0.298369	0.709664	2.013854
H	-1.699641	0.868736	0.923408
C	-0.365941	-1.385102	0.29586
N	-0.620866	-2.51209	0.51423
C	-0.13739	1.698802	-1.790763
N	0.088342	2.828013	-2.020724
N	-1.725315	-0.08217	-1.921929
H	-1.815576	-1.091182	-1.938778
H	-2.480626	0.249986	-1.311264
Cl	-4.203143	0.0	0.0
