16

C	0.0	0.0	0.0
C	-0.435729	-0.299708	-1.468273
Br	1.957381	0.0	0.0
H	0.322998	-0.961748	-1.896836
C	-0.591237	1.27591	0.573297
H	-0.284216	1.398629	1.612893
H	-0.264939	2.140277	-0.006505
H	-1.684617	1.190618	0.530901
C	-0.354411	-1.149916	0.839041
N	-0.548348	-2.045103	1.576039
C	-0.366032	0.958338	-2.254135
N	-0.334713	1.921138	-2.928296
N	-1.688333	-1.003627	-1.485132
H	-1.978955	-1.189135	-2.436692
H	-2.469391	-0.536583	-1.001295
Cl	-4.266317	0.0	0.0
