11
Coordinates from ORCA-job run
  C   0.64302559859268      0.16810160196367      0.69820206867818
  C   -0.34856931330484     -0.45542345917602     -0.31595012419829
  H   1.06366778888421     -0.62721157558838      1.31932161286100
  H   0.20173213779003     -1.12630948614383     -0.98606204649072
  H   0.10913032734587      0.86084233928641      1.35345377402654
  C   1.71952060517023      0.86915409150739      0.00342516935575
  N   2.58136197856885      1.41773454507568     -0.57380209070047
  C   -0.98941359353075      0.58315547299383     -1.13049570430478
  N   -1.48537907551791      1.43097121365632     -1.77336434948585
  C   -1.35756906085058     -1.24443262670713      0.40018521819377
  N   -2.13850739314779     -1.87858211686794      1.00508647206487
