11
Coordinates from ORCA-job run
  C   0.90170206128327     -0.16675114334103      0.30292544873998
  C   -0.63440505896901     -0.07790853734935      0.12549068395115
  H   1.33506728498811     -0.73087867766319     -0.52664146861112
  H   -1.05326423762576      0.52056105606978      0.94292357187791
  H   1.12172584651984     -0.70547309888574      1.22831716533903
  C   1.49182511573875      1.16807628393322      0.35995386563259
  N   1.93940624397170      2.25134656264070      0.41479445652486
  C   -1.22037100333681     -1.42169163188721      0.19166615132765
  N   -1.65950248301511     -2.50780408445846      0.26644668840729
  C   -0.98197674445185      0.57225720725519     -1.14328707890053
  N   -1.24020702510315      1.09826606368608     -2.16058948428878
