12

C	-0.454636	0.116492	-1.432193
C	0.0	0.0	0.0
Cl	0.102657	-1.250366	-2.450016
H	1.088489	0.0	0.0
H	0.082025	0.986551	-1.817792
H	-0.273215	0.913554	0.538443
C	-1.884253	0.32104	-1.649229
N	-3.015387	0.564591	-1.851822
N	-0.612213	-1.106847	0.736235
O	-0.215203	-1.289462	1.893943
O	-1.484869	-1.788839	0.188667
F	2.525585	0.0	0.0
