12

C	-0.398311	-0.028125	-1.443174
C	0.0	0.0	0.0
Cl	-2.18915	-0.189328	-1.711029
H	1.093093	0.0	0.0
H	0.036892	-0.943121	-1.851998
H	-0.35391	-0.891625	0.515914
C	0.095579	1.079432	-2.259701
N	0.528269	1.900195	-2.978546
N	-0.523798	1.148643	0.732495
O	-0.689397	1.01368	1.947125
O	-0.724086	2.201514	0.120443
F	2.496296	0.0	0.0
