12

C	-0.409394	0.070211	-1.458586
C	0.0	0.0	0.0
Cl	0.096675	-1.446885	-2.268904
H	1.0914	0.0	0.0
H	0.13737	0.881584	-1.935093
H	-0.406373	-0.872334	0.507388
C	-1.845481	0.243157	-1.674724
N	-3.002291	0.381642	-1.819854
N	-0.460997	1.189065	0.706283
O	-0.584538	2.235247	0.055682
O	-0.635817	1.106732	1.922669
F	2.508726	0.0	0.0
