12

C	-0.346737	-0.050548	-1.454883
C	0.0	0.0	0.0
Cl	-2.114723	-0.30504	-1.790799
H	1.093029	0.0	0.0
H	0.151432	-0.94086	-1.840404
H	-0.356045	-0.889818	0.51693
C	0.119267	1.077114	-2.259616
N	0.51788	1.908879	-2.985977
N	-0.546141	1.153283	0.707724
O	-0.774661	2.185938	0.074718
O	-0.704536	1.038796	1.924619
F	2.500207	0.0	0.0
