12

C	-0.534211	-0.046073	-1.421091
C	0.0	0.0	0.0
Cl	-0.412575	1.603109	-2.132215
H	1.088378	0.0	0.0
H	-1.594229	-0.30815	-1.45796
H	-0.35917	0.883866	0.526553
C	0.185418	-0.979438	-2.289615
N	0.716096	-1.70188	-3.048577
N	-0.485543	-1.159054	0.744497
O	-0.841392	-2.159424	0.104107
O	-0.477719	-1.096218	1.974014
F	2.499901	0.0	0.0
