12

C	-0.470605	0.040803	-1.433224
C	0.0	0.0	0.0
Cl	0.317622	-1.16726	-2.494674
H	1.088354	0.0	0.0
H	-0.140418	1.008764	-1.818527
H	-0.324929	0.904956	0.518517
C	-1.922982	-0.036842	-1.605733
N	-3.091581	-0.020351	-1.72667
N	-0.537335	-1.127248	0.763215
O	-0.96985	-2.109988	0.153744
O	-0.485455	-1.040553	1.990785
F	2.509272	0.0	0.0
