12

C	-0.361643	0.024975	-1.453079
C	0.0	0.0	0.0
Cl	-2.152878	0.060469	-1.77288
H	1.092612	0.0	0.0
H	0.003281	-0.888404	-1.921308
H	-0.405351	0.835803	0.566274
C	0.22964	1.187089	-2.110588
N	0.655617	2.126148	-2.671619
N	-0.464214	-1.234683	0.629627
O	-0.468597	-2.26873	-0.043956
O	-0.767781	-1.187234	1.8236
F	2.493402	0.0	0.0
