15
Coordinates from ORCA-job run
  C   0.80333247699763     -0.06534975953169     -0.07363420846961
  C   -0.52821374048948     -0.03101579087885      0.24861978340413
  N   1.87404415776252     -0.39401554529809      0.66993607005944
  H   2.79307065255101     -0.25468232663649      0.28720903338180
  H   1.73130557358268     -0.52604357681672      1.65808558789623
  N   1.19719159616391      0.23922464714925     -1.47286746761350
  O   0.54973018714623      1.08805958201010     -2.07961151397820
  O   2.18640760524053     -0.35286569634126     -1.90293768238459
  C   -1.68282971262811      0.18091302710633     -0.67970273082173
  H   -1.43405218505815     -0.09935135182916     -1.70020629550195
  H   -2.51935935463015     -0.42856005219761     -0.33897595181524
  H   -2.00902865126126      1.22322757390838     -0.68207583002098
  N   -0.88650552738073     -0.16229680199794      1.64488815066087
  O   -0.01595093465427     -0.47684825376851      2.47346576713401
  O   -2.06014214334237      0.05860432512224      1.94780728806933
