15
Coordinates from ORCA-job run
  C   0.73952313039039     -0.02342291341940     -0.21362569144394
  C   -0.56220641360116      0.08204106258958      0.12726913028002
  N   1.35495622101639     -1.16034243688478     -0.67628104443142
  H   2.36033904483841     -1.07383349478169     -0.71568714361996
  H   1.05516930096784     -2.01627650265261     -0.23599362143368
  N   1.63379729131200      1.15625838649146     -0.24677201942376
  O   2.81317341687838      0.94631308193762      0.03820111431458
  O   1.15378360005675      2.22654042806617     -0.59898525569668
  C   -1.54080867790637     -1.03312317112753     -0.02288208434958
  H   -2.51509810252133     -0.61940972730688     -0.28373571340735
  H   -1.22849576967526     -1.70979081559856     -0.82090343785996
  H   -1.65140666074544     -1.60487939163754      0.90481565902167
  N   -1.06403792445351      1.30574499684091      0.74739826819491
  O   -2.16980583343795      1.69536803008934      0.37393748830536
  O   -0.37888262311914      1.82981246739390      1.62424435154977
