15
Coordinates from ORCA-job run
  C   0.75345311170932      0.18013197674029     -0.23792767378517
  C   -0.58158358339264      0.01642882177667      0.00392753294902
  N   1.41862892080108      1.02391146481783     -1.05896589401891
  H   2.38425363454244      1.18532501930511     -0.81719080986053
  H   0.87838067073020      1.79334342889770     -1.42256856224946
  N   1.70256674128700     -0.73415489010093      0.44459960977646
  O   2.74756560634498     -0.22237664036148      0.84654753219756
  O   1.40751613682488     -1.92232714916012      0.52552747249871
  C   -1.22175813177861     -0.96275626513665      0.93656737902439
  H   -1.61317353301964     -1.82589433545238      0.39316045109435
  H   -0.52266155111116     -1.32309633545263      1.68654996919663
  H   -2.06007653562594     -0.47760882586497      1.43530382862699
  N   -1.51064253332266      0.86538321989003     -0.71768754280337
  O   -2.71148743437001      0.63094012126786     -0.57635348626380
  O   -1.07098151961925      1.77275038883367     -1.44048980638288
