15
Coordinates from ORCA-job run
  C   0.76939988666724     -0.07600978917175     -0.07751980557482
  C   -0.55504500152981      0.12178278422122      0.10545289168028
  N   1.38956742226301     -1.27401866002050     -0.27595573067177
  H   0.80606575677027     -2.08775762188903     -0.37453711351128
  H   2.23234775773698     -1.27723747394107     -0.82820558410803
  N   1.73854699720573      1.04157038662274     -0.06229797002042
  O   2.75513001520718      0.87632381828461      0.60595067477067
  O   1.47510777998713      2.00615232943621     -0.77276037134693
  C   -1.58600414107131     -0.94075063986880     -0.08574690799058
  H   -2.53393976816440     -0.47379993809447     -0.34957998974475
  H   -1.30799998606762     -1.61530009412746     -0.89970505565173
  H   -1.73603486283945     -1.53161985252911      0.82371707197489
  N   -1.02077171085838      1.41385740033730      0.59731136951229
  O   -0.28782599628511      2.04172050709192      1.36090617716725
  O   -2.13954414902146      1.77508684364820      0.23097034351490
