15
Coordinates from ORCA-job run
  C   0.72567629849570      0.11450257537328     -0.34271310398206
  C   -0.57031560595253      0.06972826624074      0.08827429475227
  N   1.34227170278748      0.91239520926837     -1.24387696290486
  H   2.34374894220029      0.97755332518399     -1.14610385353611
  H   0.82995983625824      1.73726555927601     -1.51480808619684
  N   1.67149666141384     -0.90056092684331      0.18285524115841
  O   2.80631031199839     -0.49651316960105      0.43718740312733
  O   1.28125960882056     -2.05884335053299      0.28934464673387
  C   -1.16118725064211     -0.86644667327974      1.09456233721042
  H   -0.39822619659283     -1.32156030717403      1.72032315673336
  H   -1.72241903620408     -1.66575810523514      0.60509093030256
  H   -1.85610899416079     -0.31334829675171      1.72574072775724
  N   -1.50795088434026      1.01902178629482     -0.48044736674181
  O   -2.69273385495475      0.89255024958622     -0.16849871481793
  O   -1.09278153912714      1.90001385819453     -1.24893064959587
