15
Coordinates from ORCA-job run
  C   0.75943241267894      0.15748885024637     -0.23445309123376
  C   -0.56572603163497      0.09935250788768      0.09476418551795
  N   1.48259753235702      1.10356282355606     -0.87515817698460
  H   0.94626346464501      1.79993948639354     -1.36872016101971
  H   2.34529861497016      0.78046664639710     -1.28532411858284
  N   1.63723437028165     -0.95401965386329      0.20942021478393
  O   2.50044728909202     -1.31070801704115     -0.59268172466549
  O   1.47385144309477     -1.40851401075749      1.33732047465212
  C   -1.27276563137125     -1.00264926131120      0.81906035769856
  H   -2.25847585084062     -1.13878197966761      0.37560431200960
  H   -1.41340378697444     -0.75476627238217      1.87364609479337
  H   -0.72605990645801     -1.94023867226509      0.76149530319492
  N   -1.40690760177759      1.22164304096898     -0.27602084213711
  O   -0.93311107366430      2.13387824131543     -0.97069027616492
  O   -2.56867524439839      1.21234627052286      0.13273744813798
