15
Coordinates from ORCA-job run
  C   0.73317221382441      0.04601562064934     -0.25407263529981
  C   -0.53440048894281      0.01579006291545      0.20701547448986
  N   1.48699691881795     -1.00736032370761     -0.70911127613961
  H   2.47870437162301     -0.87812234015250     -0.56414557702924
  H   1.16255417884818     -1.92363126633240     -0.44340330303829
  N   1.46443700817569      1.31441321860533     -0.46123575273158
  O   2.58317453496167      1.36448444267368      0.04683203389629
  O   0.93945273787725      2.16669732358454     -1.16473699435788
  C   -1.37604314028301     -1.21416673800378      0.30348580386185
  H   -0.76069022004496     -2.10802009223223      0.42885536515814
  H   -2.04421546779578     -1.14679014714194      1.16272112473722
  H   -1.99408811996264     -1.33993732843811     -0.58885909483541
  N   -1.19751768411750      1.25918552852181      0.57521536530811
  O   -2.40398042503017      1.31516913590036      0.33272000401570
  O   -0.53755641795127      2.13727290315805      1.12871946196465
