15
Coordinates from ORCA-job run
  C   0.77259681512649      0.15923010851415     -0.18521184294933
  C   -0.57765676448996      0.07019560869344      0.00707781546092
  N   1.51340535061564      0.97933979605319     -0.96383104501663
  H   1.00425495215405      1.48909504134515     -1.66874690311017
  H   2.43926423794901      0.64560623212422     -1.18311358228956
  N   1.65128212424560     -0.73218071280886      0.61261272875366
  O   2.62775565603143     -1.19408667680772      0.02199764501670
  O   1.37479087988293     -0.91465135964190      1.79402847977153
  C   -1.30645878395171     -0.87935925554157      0.90458126868810
  H   -0.70226559925354     -1.74910765935562      1.14884834526606
  H   -2.21647409300856     -1.20820794160586      0.40380705917296
  H   -1.59827670680091     -0.39374149688806      1.83860224474461
  N   -1.42822614157314      0.99440662041291     -0.71897630001765
  O   -0.92481659364267      1.74841806330102     -1.56588125178101
  O   -2.62917533328466      0.98504363220552     -0.44579466171019
