15
Coordinates from ORCA-job run
  C   0.72509040078081      0.03289353703929     -0.26890954342901
  C   -0.53437330553972      0.06125948758494      0.22057851937083
  N   1.17278234678667     -0.73146829341932     -1.30640069933651
  H   0.53760671005146     -1.41444870339896     -1.68449233794413
  H   2.14162705825132     -1.00882125285423     -1.29358425327200
  N   1.80285906421658      0.88659936712871      0.27431469882955
  O   2.02391537206756      0.78762865741849      1.47680820832282
  O   2.42616916121184      1.56340483947465     -0.53752572162518
  C   -1.59829039660238     -0.90404376050801     -0.18629872898428
  H   -2.12044540209841     -0.57591769197912     -1.09088965482496
  H   -1.18033959939295     -1.89825808093588     -0.36504409967359
  H   -2.32867511506537     -0.99005617380130      0.61669330314726
  N   -0.91546360349354      1.12262438580706      1.14441233916453
  O   -0.33809136209369      2.20588167732330      1.05351431300315
  O   -1.81337132908018      0.86472200512038      1.94682365725152
