15
Coordinates from ORCA-job run
  C   0.76883135064401      0.17765869315559     -0.17879921153083
  C   -0.58135552555326      0.05824454414545      0.02356357122334
  N   1.48292173150149      1.16154977797108     -0.75232888252156
  H   2.48652778869903      1.11348884531425     -0.72249313528439
  H   1.00232312795673      2.01643792670371     -0.98056645557843
  N   1.64372696069335     -0.95474898770763      0.21934200489428
  O   1.33329894288924     -1.59628140403126      1.21943648946064
  O   2.65221442856802     -1.13201089446824     -0.46297102214669
  C   -1.32485034108444     -1.14217795886305      0.51929775016365
  H   -2.28768766925170     -1.18907804025153      0.01126564503584
  H   -1.51762966618843     -1.07857628888698      1.59248443254211
  H   -0.77754764512171     -2.06140041325109      0.32656681393169
  N   -1.40218054420822      1.22690484930243     -0.21194620213865
  O   -0.90254606162660      2.22706808103381     -0.75347342255179
  O   -2.57804687791751      1.17092126983347      0.15162162450080
