15
Coordinates from ORCA-job run
  C   0.77304200949530     -0.09224849600838     -0.22400349570434
  C   -0.48226692520617     -0.05316934778182      0.32419783029366
  N   1.91041691852838     -0.64444116464170      0.23469722941242
  H   2.76736756600477     -0.46508509158095     -0.25958045076600
  H   1.91455734841889     -0.97491751483658      1.18609783999710
  N   0.96807587406849      0.48879541682281     -1.57722116965000
  O   1.82062991146437     -0.04733781665638     -2.28412436833352
  O   0.31163852737294      1.48301116494441     -1.87549738378983
  C   -1.74497763354221      0.42038529159427     -0.32425597756099
  H   -1.97212648565117      1.45310365443343     -0.05073172115160
  H   -1.68604569653867      0.36156156460173     -1.40807696194877
  H   -2.56873670336117     -0.20358763625672      0.02133806311937
  N   -0.62675246270864     -0.46738825089473      1.70403542102398
  O   -1.71290694741999     -0.25245097532440      2.24453550258120
  O   0.33008469907490     -1.00523079841499      2.28558964247733
