15
Coordinates from ORCA-job run
  C   0.73516872859282     -0.04067724452756     -0.22446089475784
  C   -0.52954369125558      0.03838072379702      0.24084224000567
  N   1.18250854869646     -0.92980348841941     -1.17003917427740
  H   2.11647728626040     -0.72377781146137     -1.49393465204055
  H   0.53876670689855     -1.10867467518806     -1.92498144083891
  N   1.83206773133463      0.76479499573896      0.35878754971232
  O   2.72645398181114      1.09978437192306     -0.41843148863322
  O   1.79644222719562      0.99173837009813      1.56177869156083
  C   -1.61349925465142     -0.89635515628449     -0.17740034269344
  H   -1.19321099335252     -1.86120572435828     -0.46871134959344
  H   -2.19581293035509     -0.49550592310516     -1.01415058659863
  H   -2.29110095997299     -1.05528990475999      0.66161038479722
  N   -0.91938336766719      1.12665285418693      1.13417249780734
  O   -1.66698091774663      0.82935300442815      2.06509230885649
  O   -0.52035309578819      2.25958560793208      0.86982625669356
