15
Coordinates from ORCA-job run
  C   0.78072894299770      0.20671947931382     -0.06964602532355
  C   -0.57671526996482      0.07354319681548      0.01482934361170
  N   1.55822759468871      1.26410758455980     -0.39648567066718
  H   2.48772998941964      1.03119566668656     -0.71086998018217
  H   1.07973352745629      2.03164451348181     -0.84180926751144
  N   1.62001900884372     -0.95812900135078      0.30558501572295
  O   2.61454703209229     -1.15160502479903     -0.39382717536339
  O   1.29616590136192     -1.61464773395939      1.29020792453055
  C   -1.34674893893183     -1.15084363208516      0.39753123452337
  H   -1.67591927576393     -1.10027748522582      1.43794798331129
  H   -2.23606284306371     -1.21725070010269     -0.22830165022830
  H   -0.75659107174772     -2.05479650412269      0.27201370283820
  N   -1.39237806637462      1.23613580514001     -0.28233012411515
  O   -0.85156091662931      2.26528327325759     -0.71510089636408
  O   -2.60317561438433      1.13892056239049     -0.07874441478279
