15
Coordinates from ORCA-job run
  C   0.78064094343854      0.20144670817174     -0.08283404207800
  C   -0.57524235357638      0.07753889848980      0.03498486600003
  N   1.55983569389490      1.26783645438746     -0.37314939653809
  H   1.07819430788181      2.06549141936982     -0.75785494072338
  H   2.47912563110430      1.04591727846017     -0.72312410831212
  N   1.61767679074076     -0.99060923395250      0.20169087620147
  O   2.59320174117871     -1.15006581447441     -0.53221411210496
  O   1.31209292859751     -1.70172140165545      1.15369158004326
  C   -1.34849666986831     -1.15830942907787      0.37150989130952
  H   -1.64448694567044     -1.16417519518986      1.42307204343195
  H   -2.25762111695481     -1.17872795920422     -0.22855286119440
  H   -0.77413778701173     -2.05997462524211      0.17596586488371
  N   -1.38497811696451      1.26393578350540     -0.16917369887443
  O   -0.84478336557245      2.31026841492579     -0.55949250612061
  O   -2.59002168121791      1.16814870148624      0.06648054407604
