15
Coordinates from ORCA-job run
  C   0.74580790461591     -0.01101209716684     -0.19492849756011
  C   -0.54645528014612      0.06234765995142      0.18976599968243
  N   1.45230665215603     -1.17105192523902     -0.39580551367582
  H   2.34774164762348     -1.01724852570371     -0.83649337164272
  H   0.93095173487930     -1.91719629673191     -0.82915984882166
  N   1.59844755108785      1.19489290244807     -0.31155849019448
  O   1.41289471470012      2.10132019879008      0.49072167448484
  O   2.43997790623720      1.17514085153557     -1.20951454248722
  C   -1.36629107221840     -1.13376879961206      0.53726602926974
  H   -1.99016737496786     -1.46406865141688     -0.29980484160805
  H   -0.72043196267472     -1.95741347558921      0.84763785196504
  H   -2.02441542984307     -0.87916603146512      1.36842247629462
  N   -1.23243211509248      1.35145927472942      0.21588245781631
  O   -2.02104733589523      1.53622003685875      1.14231414808237
  O   -1.02788754046200      2.13054487861143     -0.71374553160528
