15
Coordinates from ORCA-job run
  C   0.73862665395490     -0.02928376584906     -0.21553678519782
  C   -0.56144074037658      0.08776872478596      0.12869755240824
  N   1.33914689949489     -1.16844866656726     -0.69087256832618
  H   2.34505641480910     -1.09364913986077     -0.73758158130586
  H   1.03167397465451     -2.02559313849835     -0.25841443855714
  N   1.64681862891205      1.13995761276578     -0.23795357021626
  O   2.82446169460296      0.91277507203725      0.04079733936416
  O   1.17899233151853      2.21961365094669     -0.57772780710271
  C   -1.55298358461203     -1.01431594381513     -0.03210306128011
  H   -1.25059725199855     -1.68401605089848     -0.83977033363277
  H   -1.66738625971484     -1.59659464787434      0.88857000942039
  H   -2.52335646704824     -0.58643338696686     -0.28457728025224
  N   -1.04673507750632      1.30893117071970      0.76667542485408
  O   -0.35149995346050      1.81506346447087      1.64601422378903
  O   -2.15077726322987      1.71422504460399      0.40478287603518
