15
Coordinates from ORCA-job run
  C   0.73222941770520      0.10252720332892     -0.25825565708919
  C   -0.56464855100545      0.03010471500534      0.07867972327391
  N   1.22440586050070      1.08106731941582     -1.12665956813802
  H   1.88602654419086      1.68275184976974     -0.65035313582584
  H   1.69092501456087      0.66301328306880     -1.92302197508576
  N   1.70431527730462     -0.83490742719103      0.36107021419904
  O   2.85473754887180     -0.41197529439888      0.46711376593969
  O   1.31522674819254     -1.94921376200073      0.70536951701393
  C   -1.32703953761632     -0.86220500136845      0.99332363464577
  H   -1.80888539820664     -1.65574272754812      0.41535303581469
  H   -0.68299505293480     -1.32589246248949      1.73525280198707
  H   -2.10371117986601     -0.27776125147749      1.49162102349441
  N   -1.41558002525126      1.01725302274803     -0.60298165505302
  O   -1.58980769756486      2.08308428958023     -0.02323915954969
  O   -1.91619896888126      0.65889624355730     -1.66327256562699
