15
Coordinates from ORCA-job run
  C   0.76127813638789      0.14160346516976     -0.23872117052806
  C   -0.57406082247387      0.08272444749607      0.04612814659549
  N   1.46466580425301      0.94347231996381     -1.06966602704723
  H   0.91854104972028      1.46006262283379     -1.74122886731276
  H   2.36428239780018      0.58661637630198     -1.35272454548163
  N   1.67286772474768     -0.76723308332746      0.50010595616497
  O   1.47552506941216     -0.93937266827540      1.69881624222585
  O   2.59468013247583     -1.25366813543664     -0.15511122242375
  C   -1.25982507924648     -0.84764155890160      0.99612454095009
  H   -1.47158900853169     -0.35444345816988      1.94761349991311
  H   -0.66109012882102     -1.73181456887326      1.19846483293025
  H   -2.21133902013007     -1.15433321510324      0.56305370877419
  N   -1.45205479777849      1.02464987925831     -0.62225846971365
  O   -2.62988165664440      1.04604229845471     -0.26280770082318
  O   -0.99299980117101      1.76233527860904     -1.50778892422369
