15
Coordinates from ORCA-job run
  C   0.74064565016088      0.17796523619599     -0.27636066830936
  C   -0.58184752540654     -0.00222911799921      0.01787620025678
  N   1.35454861684612      0.94688521255592     -1.20390789078908
  H   2.32095059386302      1.16193754749495     -1.01240197235466
  H   0.77844658932219      1.65629938256248     -1.62942499871450
  N   1.73762432711759     -0.62433493946013      0.47532216906721
  O   1.48152716240018     -1.80202307043731      0.70553100527034
  O   2.77865326599672     -0.04128644778008      0.77888734536532
  C   -1.16391286107515     -0.89018753605969      1.07215938452872
  H   -2.01713557068517     -0.38610903522223      1.52461174810952
  H   -1.52167936169926     -1.82942189732454      0.64408041216320
  H   -0.43910810037144     -1.12541396512787      1.84715343885165
  N   -1.55729194288292      0.72724611046845     -0.77034364159670
  O   -2.74473049239953      0.46031704943541     -0.58134676485507
  O   -1.16769035118670      1.57035547069787     -1.59283576699333
