15
Coordinates from ORCA-job run
  C   0.75010016758210      0.12594049849103     -0.27700300786879
  C   -0.57491960740336      0.07806924201144      0.07004328781419
  N   1.41684571389617      0.98977253446658     -1.06246537555912
  H   2.41883850607797      0.92475536849438     -1.11141814676746
  H   0.92823809917590      1.81646644906316     -1.36565576485929
  N   1.64396706965284     -0.95889362020839      0.20378931731294
  O   1.41977972123754     -1.43992086655938      1.31123782841673
  O   2.58270555760102     -1.25965851419208     -0.53269548134892
  C   -1.28382415479134     -1.01360232593912      0.80860537796777
  H   -0.77647859611188     -1.96852320092143      0.69713307590808
  H   -2.29536644865582     -1.10045963217389      0.41302028721326
  H   -1.36128121421319     -0.79113395098464      1.87509736139973
  N   -1.39783145376043      1.22303247158318     -0.25892183922758
  O   -0.94100103086308      2.11448473228631     -0.99356194010794
  O   -2.53077232942445      1.25867081458285      0.22379501970642
