15
Coordinates from ORCA-job run
  C   0.73707054560741      0.09162144880501     -0.32219300238467
  C   -0.57254519696413      0.08586774356858      0.06892723861224
  N   1.39802217851776      0.84704484507672     -1.22792040661704
  H   2.39784066596682      0.89091912466712     -1.10500713227243
  H   0.91382209361257      1.67304537366229     -1.54290213008609
  N   1.64487564965211     -0.92259053755658      0.26964595695537
  O   2.78514905763208     -0.53811235177845      0.52938219425737
  O   1.21964312370923     -2.06317939521770      0.42344827306080
  C   -1.20917898205148     -0.80663370843583      1.08740205490825
  H   -0.47965649399443     -1.20213114118542      1.78969543675159
  H   -1.95628349476100     -0.23492692057085      1.63641292486061
  H   -1.71631767616733     -1.65002018986197      0.61323944536428
  N   -1.47429663106180      1.02676098245074     -0.56880744252103
  O   -1.01492654000295      1.88049416221585     -1.34279112356546
  O   -2.67321829969487      0.92184056416049     -0.30753228732380
