15
Coordinates from ORCA-job run
  C   0.74841861818793      0.09899241397529     -0.29373035720462
  C   -0.57923985615550      0.05335988157775      0.02680670052325
  N   1.41298028010378      0.76430851446055     -1.26557361200432
  H   0.89514448153929      1.50162591292286     -1.71781450201082
  H   2.39731980578374      0.90252598807346     -1.09560412352474
  N   1.68227547218026     -0.75356080502740      0.48312994196429
  O   1.32863962377425     -1.89369885668995      0.76667099449976
  O   2.77297865163328     -0.24982383555933      0.75191244790821
  C   -1.21896872053013     -0.73364701890438      1.12703136683970
  H   -1.66025606645060     -1.65752811791915      0.74606394725748
  H   -0.50570111957134     -0.99444275909242      1.90464049410254
  H   -2.02012156631227     -0.13926994870799      1.56471744238804
  N   -1.49977271281254      0.82879396416574     -0.78279820622752
  O   -1.05089185876195      1.59533905355632     -1.64886530791245
  O   -2.70280503260821      0.67802561316864     -0.56658722659881
