15
Coordinates from ORCA-job run
  C   0.76159115140595      0.18801044329558     -0.20345709756291
  C   -0.57722901856218      0.06190627372701      0.04089540992749
  N   1.48352208233145      1.20276292046132     -0.72980657438437
  H   1.01047773901179      2.09131588249054     -0.78306691888739
  H   2.46698630320725      1.19249163942580     -0.50753493423971
  N   1.63548372670670     -0.97721811472174      0.08152756899251
  O   1.22817548955042     -2.09566748974297     -0.21615401558981
  O   2.73620427760863     -0.71766101563291      0.56807166825172
  C   -1.28536713121675     -1.11846941518359      0.62731158978025
  H   -0.60777742112754     -1.76087086424440      1.18350964848224
  H   -2.06754886133408     -0.76220879482619      1.29679420397405
  H   -1.76240359194100     -1.71895964742423     -0.15067642891638
  N   -1.43828423352018      1.17602735526762     -0.30785166239763
  O   -0.93110152078092      2.23757260327502     -0.70167733324763
  O   -2.65272899133955      1.00296822383314     -0.19788512418243
