15
Coordinates from ORCA-job run
  C   0.74305931686530      0.12357730427954     -0.29593232939161
  C   -0.56030668646837      0.10705711661715      0.12795467302842
  N   1.41914880905120      1.04292044139389     -1.00589974874284
  H   2.35694416654655      0.83528086791027     -1.30217709853566
  H   0.89577700157739      1.80519447516943     -1.40446354961074
  N   1.63000919469320     -0.99693119032943      0.10900264952429
  O   2.81805170803270     -0.72121229013122      0.27286964703951
  O   1.13546793849635     -2.11725795799321      0.20097057069607
  C   -1.20201879740751     -0.87185403980159      1.06050015861769
  H   -1.93503660991419     -0.34282276489534      1.66886213790356
  H   -0.47135367837442     -1.34119978860716      1.71434457388577
  H   -1.72764992247129     -1.65920881715716      0.51577661029855
  N   -1.45428887688267      1.11111858714724     -0.40883960603506
  O   -2.65676085645271      0.97522960343751     -0.17727682404743
  O   -0.99004270729151      2.05010845296008     -1.07669186463052
