15
Coordinates from ORCA-job run
  C   0.75565805791037      0.17717408730655     -0.23295853579064
  C   -0.58069997885840      0.03492617938841      0.01480772021333
  N   1.43623907095086      1.06398011383359     -0.99424786185420
  H   0.91586797694395      1.87889500055262     -1.27960704529457
  H   2.41024643573613      1.17408303710746     -0.75732161781357
  N   1.68336997981833     -0.81837018212579      0.35898685889407
  O   2.75045949746976     -0.37387403912247      0.78252675931335
  O   1.34972560415776     -1.99907807972386      0.35226993578296
  C   -1.23866211622547     -0.99767703787535      0.87487907529157
  H   -0.54495282629206     -1.42699406980692      1.59306733680404
  H   -2.06472038782649     -0.53337833104287      1.41232638145245
  H   -1.64947512573029     -1.80996788022765      0.27086462769232
  N   -1.49214008098212      0.96398909883289     -0.62599940941332
  O   -1.03331508288943      1.91998685281741     -1.26988456108323
  O   -2.69760102418292      0.74630525008596     -0.49870966419457
