15
Coordinates from ORCA-job run
  C   0.78911889018375      0.18378969607244     -0.00597886113496
  C   -0.57415505411475      0.09176485081192     -0.03023777218743
  N   1.62172645369455      1.22030939146331     -0.25345998840583
  H   1.20305844983592      2.01152894992966     -0.71714624359324
  H   2.56635021428218      0.96418877298517     -0.49634439145136
  N   1.56087627711518     -1.01163700427525      0.41603771873707
  O   1.13878691248334     -1.67199667896131      1.36001337898514
  O   2.60087683719471     -1.22746781589659     -0.20635206212368
  C   -1.40597307674588     -1.11371031895128      0.27588564260285
  H   -1.80410020970665     -1.07099835129269      1.29227907886340
  H   -0.83684870102597     -2.03403169833933      0.17318532876436
  H   -2.25124086146698     -1.14113306260405     -0.41077431291809
  N   -1.32894313238621      1.28145003489281     -0.37498656681794
  O   -2.55527279549275      1.21622622338476     -0.28103726457960
  O   -0.72426020385044      2.30071701078043     -0.74208368474069
