15
Coordinates from ORCA-job run
  C   0.74015216065557      0.06138972494330     -0.32549739524698
  C   -0.56981719576972      0.09667053635240      0.06194837552570
  N   1.41749763435552      0.76961580380969     -1.25758546004763
  H   0.94745628231531      1.59194547197074     -1.60289546601276
  H   2.41670604683449      0.80639242346187     -1.12652451284067
  N   1.62694163755083     -0.94853464022711      0.30322126351986
  O   1.18682168385251     -2.08085063689080      0.47542403282731
  O   2.76793288477325     -0.57083188897933      0.56962035325833
  C   -1.22894284882573     -0.74203755717028      1.11103856412910
  H   -0.50524439370254     -1.17970241230605      1.79335751543216
  H   -1.80669071874882     -1.55253257543291      0.66072480093379
  H   -1.92017531873421     -0.11869018613800      1.67749849359142
  N   -1.44973575459533      1.03935932335845     -0.60200918300758
  O   -0.97547038367459      1.84551025022791     -1.41714945243550
  O   -2.64743171628654      0.98329636302012     -0.32017192962655
