15
Coordinates from ORCA-job run
  C   0.74330820767163      0.16870467644165     -0.27383212190464
  C   -0.58209448105756      0.01076400822296      0.02049650901528
  N   1.37153027138787      0.94291804025222     -1.18699128626414
  H   0.80958320238755      1.67052709218841     -1.60033113879479
  H   2.34372560874515      1.13098535943659     -0.99715717810363
  N   1.72478970917472     -0.66942725573661      0.45936314447203
  O   2.78005050174175     -0.11596326836887      0.76881841837738
  O   1.44241105371128     -1.84476024924823      0.66992848770752
  C   -1.17987972320889     -0.88694411303716      1.05758313684807
  H   -0.46170041593060     -1.14210258403827      1.83258443607014
  H   -1.54594832326230     -1.81563838678469      0.61390758532094
  H   -2.02924660094310     -0.37952274661462      1.51341543216931
  N   -1.54334230170570      0.77515236416362     -0.75188278158626
  O   -2.73575903609964      0.52735197031212     -0.56858297915502
  O   -1.13742767261215      1.62795509281085     -1.55631966417217
