15
Coordinates from ORCA-job run
  C   0.74398816937951      0.12865199590474     -0.29487636656872
  C   -0.56993527011965      0.08564057582575      0.07857124996200
  N   1.43460095458412      1.02284962001764     -1.03780934109112
  H   0.97410231383438      1.90607151524658     -1.19300550336861
  H   2.43323921484342      1.01837802360134     -0.89823568127381
  N   1.61893218522418     -1.00324382300015      0.09997325474799
  O   1.16797754115014     -2.14152266504215      0.02024927957705
  O   2.76206295649931     -0.70404305004885      0.44544444698019
  C   -1.24480263634304     -0.96295304428745      0.90530386374053
  H   -1.95542915596502     -0.48001103887438      1.57515067616121
  H   -1.80224829338344     -1.66157240064370      0.27711105670339
  H   -0.53201966786140     -1.53279844638951      1.49555984460316
  N   -1.43853996554324      1.15720567051937     -0.37099407022365
  O   -0.94962535898282      2.12589794364438     -0.97239214001010
  O   -2.64130298731645      1.04244912352639     -0.13205056993951
