15
Coordinates from ORCA-job run
  C   0.75320026932714      0.12870862462374     -0.27033654987492
  C   -0.58127285663616      0.02409839908633      0.00551993014824
  N   1.41820864738445      0.81371294772765     -1.22785928088520
  H   0.88178539748087      1.51811979474663     -1.70979607602222
  H   2.38932526140865      0.99852151870393     -1.02910304045756
  N   1.69937011075098     -0.66906024952984      0.54874575557525
  O   2.75561299504660     -0.11104587635224      0.84649954340741
  O   1.39053757064549     -1.82131412068493      0.83578261347429
  C   -1.22282187819133     -0.77413241139537      1.09633509081949
  H   -1.62593597904456     -1.71392709110280      0.71198441956042
  H   -0.52138290866432     -1.00669799416979      1.89321899562564
  H   -2.05300829010860     -0.20209231567248      1.50930314473888
  N   -1.50834383616358      0.74808604903089     -0.84345087944032
  O   -2.70998024972893      0.54974997313334     -0.65987315094564
  O   -1.06629425350670      1.51927275185492     -1.70897051572375
