16

C	-0.118254	-0.110824	-1.404054
C	0.05172	-0.189323	0.111829
Br	-2.004714	0.347925	-1.853314
H	1.110189	-0.458769	0.233452
H	0.461892	0.742669	-1.753251
C	0.269504	-1.37835	-2.131922
H	1.329362	-1.558684	-1.92783
H	-0.312586	-2.226947	-1.772715
H	0.142841	-1.270693	-3.211106
N	-0.762369	-1.266593	0.665928
H	-0.605083	-1.243141	1.6681
H	-1.73779	-1.01742	0.528486
N	-0.108966	1.075323	0.812904
H	-0.941904	1.541601	0.465642
H	0.695863	1.647202	0.554831
Cl	2.760504	1.720836	-0.86613
