15

C	-0.515891	-0.038932	-1.421273
C	0.0	0.0	0.0
Cl	0.20595	1.416396	-2.319595
H	1.092103	0.0	0.0
H	-0.35452	0.944222	0.437874
C	-0.031455	-1.211783	-2.166404
N	0.310933	-2.156683	-2.773569
N	-1.94757	-0.020196	-1.499495
H	-2.25722	0.095409	-2.458164
H	-2.285163	0.762343	-0.950821
C	-0.473666	-1.199932	0.812966
H	-0.079091	-2.122621	0.378274
H	-1.561523	-1.290295	0.89324
H	-0.046138	-1.120234	1.815948
F	2.646675	0.0	0.0
