15

C	-0.485393	0.019043	-1.432869
C	0.0	0.0	0.0
Cl	0.082585	1.505107	-2.296196
H	1.093011	0.0	0.0
H	-0.326226	-0.968561	0.411573
C	0.100675	-1.115882	-2.177736
N	0.424562	-2.067348	-2.7874
N	-1.937477	0.016655	-1.53464
H	-2.281133	-0.758474	-0.977293
H	-2.219395	-0.129855	-2.498179
C	-0.532927	1.147832	0.843366
H	-0.173831	2.098972	0.445442
H	-1.624927	1.190262	0.904549
H	-0.12388	1.049075	1.852359
F	2.647523	0.0	0.0
