15

C	-0.048002	-0.009427	-1.542688
C	0.0	0.0	0.0
Cl	-0.751565	-1.891841	-2.075988
H	1.094357	0.0	0.0
H	-0.43514	-0.908123	0.40777
C	-1.099185	0.759439	-2.209814
N	-1.871515	1.458615	-2.755987
N	1.19582	0.242723	-2.014505
H	1.333146	0.287591	-3.011669
H	2.024596	0.080597	-1.330038
C	-0.566546	1.271133	0.60942
H	-0.382334	1.273917	1.687124
H	-0.064728	2.146379	0.188878
H	-1.643895	1.378127	0.44575
F	2.809094	0.0	0.0
