15

C	-0.546663	-0.014326	-1.41432
C	0.0	0.0	0.0
Cl	0.223155	1.390799	-2.366077
H	1.091888	0.0	0.0
H	-0.342042	-0.938582	0.456203
C	-0.121105	-1.217651	-2.146382
N	0.195266	-2.183742	-2.734359
N	-1.975579	0.060918	-1.476301
H	-2.287518	0.159016	-2.435458
H	-2.282698	0.871705	-0.953902
C	-0.480231	1.188679	0.823275
H	-1.544807	1.163548	1.091489
H	0.098237	1.202773	1.749434
H	-0.265955	2.127257	0.305617
F	2.647424	0.0	0.0
