15

C	-0.04835	-0.172249	-1.535424
C	0.0	0.0	0.0
Cl	-0.879529	-2.067387	-1.872603
H	1.094376	0.0	0.0
H	-0.43761	-0.857789	0.502868
C	-1.047567	0.586712	-2.288871
N	-1.759109	1.297824	-2.901481
N	1.205315	-0.047514	-2.017531
H	1.347437	-0.049113	-3.014335
H	2.036789	-0.112584	-1.306847
C	-0.55842	1.331878	0.461904
H	-0.349844	1.468509	1.525882
H	-0.072197	2.150174	-0.073533
H	-1.640374	1.411536	0.312977
F	2.815296	0.0	0.0
