15

C	-0.104228	-0.075015	-1.522513
C	0.0	0.0	0.0
Cl	-1.710836	-0.861496	-2.071164
H	1.097106	0.0	0.0
H	-0.334628	-0.967536	0.383737
C	-0.181345	1.266086	-2.138073
N	-0.17628	2.334877	-2.630359
N	1.000976	-0.842896	-1.983737
H	1.188095	-0.690584	-2.96612
H	1.830634	-0.613634	-1.378758
C	-0.690804	1.165037	0.671308
H	-0.257793	2.115206	0.351182
H	-0.560278	1.095214	1.754286
H	-1.765913	1.188856	0.46148
F	2.733966	0.0	0.0
