13
Coordinates from ORCA-job run
  C   0.88157860637555      0.38513394927309     -0.90686360757031
  C   -0.10522861354886      0.14317461131130     -0.01840314550476
  H   0.87809898902146      1.29041538289242     -1.50730269311283
  C   1.97460468305100     -0.51135466660387     -1.11569593838322
  N   2.87644154495373     -1.24576174974830     -1.29253686394625
  C   -0.15305721198829     -1.08751706382661      0.83691537025067
  H   0.69169547865072     -1.75286373438886      0.65612980207467
  H   -1.07887216752489     -1.64065643214495      0.64955758755855
  H   -0.15767233873245     -0.80976489825662      1.89572759198348
  C   -1.22797104502140      1.12265808753279      0.15762470394857
  H   -1.26864481541117      1.47421356574626      1.19351500806766
  H   -2.18931021382407      0.64318935636424     -0.05236974480051
  H   -1.12266289600135      1.98913359184910     -0.49729807056571
