13
Coordinates from ORCA-job run
  C   1.01194054290147     -0.42713111333910     -0.73603590538898
  C   -0.05567918729053     -0.16316875562829      0.04640142768739
  H   1.31875332835528     -1.45113001133671     -0.92934869306473
  C   1.79542674739784      0.59750325830796     -1.35108167690080
  N   2.44374407394074      1.43655640822508     -1.86059729509787
  C   -0.84044717913125     -1.28174654994227      0.66595849269007
  H   -0.83843999632460     -1.19064047922880      1.75683358245725
  H   -1.88631638785674     -1.23716815711678      0.34607193397549
  H   -0.43843280029883     -2.26085313976802      0.40039150799083
  C   -0.52516462217244      1.22854322851074      0.34839925839028
  H   -1.56083751001659      1.35670198016314      0.01799454865031
  H   0.08987563554828      1.98889459543861     -0.13386231056201
  H   -0.51242264505262      1.40363873571445      1.42887512917276
