13
Coordinates from ORCA-job run
  C   0.86300995409772     -0.49382210160019     -0.87129803435708
  C   -0.06234606645572     -0.15901980734718      0.05233653582511
  H   1.05118756153574     -1.53539580149348     -1.11609595434628
  C   1.64237325007671      0.47502322012988     -1.57558124764239
  N   2.28634513579967      1.26773656796530     -2.15944402583411
  C   -0.85250265976228     -1.22125348406348      0.75820703717104
  H   -1.92376461575142     -1.07795883516916      0.58425790711858
  H   -0.57936982610146     -2.22428577508947      0.42640125988106
  H   -0.69618964089889     -1.15828667274083      1.83984046270108
  C   -0.36394364456389      1.25990723011900      0.43187148498557
  H   -0.19250896679081      1.40664791746307      1.50314735464627
  H   0.24660804150120      1.97643330984486     -0.11851522773655
  H   -1.41889852268657      1.48427423198169      0.24487244758770
