13
Coordinates from ORCA-job run
  C   0.53304823782348      0.12205716310809     -1.20380091913574
  C   -0.10198587095190      0.14598096634183     -0.01309687331533
  H   0.34510768094852      0.88998177406478     -1.94884324580182
  C   1.47484379446194     -0.89170417042925     -1.56062044766359
  N   2.25109152908714     -1.72322815132451     -1.86061916565105
  C   -1.08150071745462      1.23671935964786      0.30550797138994
  H   -1.18555150942815      1.94717921219818     -0.51622299913408
  H   -2.06665320528527      0.81324510510707      0.52546497444654
  H   -0.76540841878808      1.78439770029697      1.19908584664707
  C   0.11638712496525     -0.88660614737462      1.05196791923381
  H   0.47212683837976     -0.41019867612586      1.97109110846808
  H   0.83873422999840     -1.64678867607582      0.75286198894503
  H   -0.82923971375649     -1.38103545943471      1.29622384157115
