13
Coordinates from ORCA-job run
  C   0.58009439072890      0.20845203097996     -1.16996665395600
  C   -0.06835521359381      0.16473283146540      0.01273894112535
  H   0.58944137131425      1.11758331686769     -1.76448074535784
  C   1.29123449458647     -0.90876292042900     -1.70621961284150
  N   1.87955519970949     -1.82529526628740     -2.15117902675374
  C   -0.79167146746022      1.37293193658961      0.53025669332737
  H   -0.38325291835666      1.67529098236765      1.49989569702476
  H   -0.71869894360640      2.21916624354224     -0.15486440188825
  H   -1.85038541703668      1.14504151291581      0.68994896982775
  C   -0.11457937039038     -1.06034561798338      0.87588034826650
  H   -1.15283778842504     -1.36799390692047      1.03606925821910
  H   0.43280844304814     -1.89711539113749      0.44066634584144
  H   0.30764721948194     -0.84368575197064      1.86225418716507
