13
Coordinates from ORCA-job run
  C   0.87119710493338      0.36555265960175     -0.92552760778916
  C   -0.10276870117651      0.14522862005028     -0.01771560886701
  H   0.86466427828171      1.26120273902986     -1.54020906008124
  C   1.94881591870238     -0.54691682345679     -1.14366455692562
  N   2.83709649639956     -1.29594142889552     -1.32821562885504
  C   -0.14636212768467     -1.07194610522718      0.85669364429888
  H   0.68912362397810     -1.74783313947627      0.67131711891117
  H   -0.13006949694943     -0.77784269217899      1.91098555988252
  H   -1.07989436710845     -1.62011519187164      0.69486774929359
  C   -1.21525723138359      1.13563607788451      0.16181511770852
  H   -2.18254406726772      0.66184060713777     -0.03386172938446
  H   -1.24268697645556      1.49616752182246      1.19504620700453
  H   -1.11031445426922      1.99496715557976     -0.50253120519668
