13

C	-0.140715	0.107162	-1.52141
C	0.0	0.0	0.0
F	-1.429491	0.461714	-1.922034
H	1.096081	0.0	0.0
H	0.019701	-0.89445	-1.943911
N	0.791612	1.101004	-1.948193
H	1.668901	0.915083	-1.439636
H	0.964122	1.000754	-2.940714
C	-0.565572	-1.221711	0.53479
N	-1.001743	-2.229491	0.954095
C	-0.505186	1.180209	0.679298
N	-0.921096	2.128516	1.234153
F	2.546994	0.0	0.0
