13

C	-0.168452	-0.108612	-1.532965
C	0.0	0.0	0.0
F	-0.044042	1.210791	-2.038779
H	1.097624	0.0	0.0
H	-1.164111	-0.429014	-1.857826
N	0.844682	-0.97536	-1.979271
H	0.923447	-0.971529	-2.986498
H	1.726803	-0.718691	-1.508136
C	-0.495444	-1.196381	0.65718
N	-0.902198	-2.161143	1.191267
C	-0.586491	1.199653	0.563973
N	-1.06169	2.162672	1.041379
F	2.55622	0.0	0.0
