13

C	-0.166503	-0.089387	-1.532276
C	0.0	0.0	0.0
F	-0.006065	1.233986	-2.022871
H	1.097628	0.0	0.0
H	-1.170001	-0.381527	-1.861016
N	0.827938	-0.978135	-1.986003
H	1.706893	-0.730753	-1.508441
H	0.919443	-0.951723	-2.991101
C	-0.498978	-1.202803	0.642111
N	-0.904499	-2.171948	1.169431
C	-0.583324	1.194624	0.576737
N	-1.045287	2.155351	1.072026
F	2.550465	0.0	0.0
