13

C	-0.314432	-0.06599	-1.496716
C	0.0	0.0	0.0
F	0.010464	-1.340761	-1.937218
H	1.096037	0.0	0.0
H	0.391767	0.603129	-2.00141
N	-1.693022	0.178729	-1.807897
H	-1.79933	0.591644	-2.723744
H	-2.126926	0.77656	-1.120367
C	-0.559222	-1.11857	0.73374
N	-0.98374	-2.031604	1.340533
C	-0.445913	1.266902	0.54705
N	-0.793945	2.319737	0.940975
F	2.464192	0.0	0.0
