13

C	-0.159924	0.12128	-1.521598
C	0.0	0.0	0.0
F	-1.436453	0.555124	-1.890464
H	1.097053	0.0	0.0
H	-0.075007	-0.88625	-1.952995
N	0.821172	1.056959	-1.964636
H	1.685732	0.857837	-1.438923
H	0.989049	0.947561	-2.956195
C	-0.567291	-1.22261	0.531931
N	-1.008139	-2.23193	0.942241
C	-0.493012	1.17734	0.693532
N	-0.900158	2.11563	1.271276
F	2.550143	0.0	0.0
