13

C	-0.350532	0.074737	-1.482936
C	0.0	0.0	0.0
F	0.137714	-1.10066	-2.075207
H	1.095318	0.0	0.0
H	0.211129	0.89739	-1.930648
N	-1.743624	0.231143	-1.731722
H	-1.920284	0.21017	-2.72887
H	-2.25018	-0.534076	-1.300128
C	-0.54953	-1.203131	0.597157
N	-1.006909	-2.184108	1.057731
C	-0.458343	1.188245	0.697865
N	-0.800357	2.169274	1.247964
F	2.467796	0.0	0.0
