16

C	-0.158774	-0.078416	-1.52269
C	0.0	0.0	0.0
Cl	-1.862354	-0.940115	-1.922705
H	1.096257	0.0	0.0
N	-0.214081	1.220174	-2.100403
H	-1.04981	1.715229	-1.812901
H	-0.211666	1.150568	-3.111309
N	0.871206	-0.903624	-2.014156
H	1.026579	-0.755435	-3.002759
H	1.721866	-0.703855	-1.452776
N	-0.387701	-1.218765	0.680649
H	0.198954	-1.322857	1.49757
H	-1.362471	-1.209644	0.951616
C	-0.587312	1.213281	0.555475
N	-1.07287	2.160904	1.056785
F	2.621309	0.0	0.0
