16

C	-0.152132	-0.092074	-1.531481
C	0.0	0.0	0.0
Cl	0.085036	1.730732	-2.207092
H	1.094954	0.0	0.0
N	0.895285	-0.895001	-1.99635
H	1.756751	-0.638418	-1.473147
H	1.028321	-0.81454	-2.99507
N	-1.439647	-0.522571	-1.958733
H	-2.114773	0.197042	-1.733977
H	-1.449996	-0.66026	-2.962427
N	-0.404857	-1.25437	0.647613
H	-1.049685	-1.73836	0.036419
H	0.43883	-1.81321	0.707581
C	-0.691824	1.127743	0.5975
N	-1.289023	2.007923	1.097534
F	2.63488	0.0	0.0
