16

C	-0.161738	0.078226	-1.515684
C	0.0	0.0	0.0
Cl	-1.954168	0.696702	-1.916101
H	1.0897	0.0	0.0
N	0.729436	1.0358	-2.110056
H	1.631413	0.812611	-1.658419
H	0.458657	1.964266	-1.801402
N	0.063881	-1.179885	-2.063273
H	-0.081103	-1.18031	-3.060785
H	-0.447359	-1.893289	-1.56274
N	-0.548926	-1.21709	0.578984
H	0.093903	-1.544195	1.289703
H	-1.44986	-1.042521	1.007949
C	-0.429036	1.220206	0.672021
N	-0.763151	2.157125	1.299027
F	2.595463	0.0	0.0
