16

C	-0.222018	-0.063057	-1.533299
C	0.0	0.0	0.0
Cl	-0.114947	1.702363	-2.176453
H	1.101293	0.0	0.0
N	0.822935	-0.876279	-1.994003
H	1.71152	-0.608429	-1.540408
H	0.860803	-0.911107	-3.002043
N	-1.49485	-0.546769	-2.013478
H	-2.208202	0.127746	-1.758914
H	-1.659539	-1.384121	-1.459535
N	-0.472904	-1.299611	0.551919
H	-0.619861	-1.180826	1.550079
H	0.328758	-1.918445	0.456966
C	-0.665983	1.09293	0.669706
N	-1.230135	1.925681	1.278992
F	2.642557	0.0	0.0
