16

C	-0.202661	0.01657	-1.530306
C	0.0	0.0	0.0
Cl	-0.007499	-1.71202	-2.156721
H	1.095784	0.0	0.0
N	-1.550406	0.386157	-1.931943
H	-1.65451	0.22252	-2.927984
H	-1.622225	1.387668	-1.775365
N	0.827091	0.86528	-2.017696
H	1.707695	0.641422	-1.519681
H	0.933828	0.779677	-3.020682
N	-0.566457	-1.125593	0.709447
H	0.020422	-1.321221	1.508411
H	-1.506772	-0.9254	1.024899
C	-0.458131	1.292348	0.5168
N	-0.861605	2.293269	0.987669
F	2.641327	0.0	0.0
