16

C	-0.196021	-0.016778	-1.526503
C	0.0	0.0	0.0
Cl	0.248926	-1.776543	-2.03908
H	1.093768	0.0	0.0
N	-1.511369	0.302761	-1.929505
H	-1.620038	0.140157	-2.922776
H	-2.157829	-0.278888	-1.408696
N	0.780344	0.806775	-2.173833
H	0.500019	1.769253	-2.0098
H	1.663442	0.636281	-1.668264
N	-0.708453	-1.085298	0.698078
H	-0.698116	-0.86721	1.689467
H	-0.124535	-1.908161	0.58607
C	-0.459755	1.287909	0.504927
N	-0.80132	2.318368	0.957223
F	2.634479	0.0	0.0
