19

C	0.0	0.0	0.0
C	-0.534161	-0.093076	-1.432079
F	1.404595	0.0	0.0
H	-1.629914	-0.055142	-1.304968
C	-0.501022	1.29694	0.600553
H	-1.596362	1.213446	0.568907
H	-0.138482	2.162596	0.038312
H	-0.144062	1.381922	1.630512
C	-0.488684	-1.175273	0.819533
H	-1.582849	-1.138592	0.748398
H	-0.09087	-2.118098	0.437646
H	-0.159551	-1.056739	1.856562
N	-0.19109	-1.441763	-1.997785
O	-1.082904	-2.286363	-2.068362
O	0.975926	-1.628929	-2.341031
N	-0.014021	0.884203	-2.354188
H	0.941848	1.106708	-2.1044
H	-0.579715	1.719225	-2.29175
F	-2.98319	0.0	0.0
