19

C	0.0	0.0	0.0
C	-0.223409	-0.151499	-1.527258
F	1.413188	0.0	0.0
H	0.318563	0.693323	-1.972837
C	-0.514998	1.31528	0.519202
H	-1.612396	1.207475	0.488367
H	-0.173516	2.149351	-0.099807
H	-0.157238	1.457152	1.54497
C	-0.518211	-1.165043	0.798792
H	-0.156114	-2.113541	0.40001
H	-0.197823	-1.055586	1.840592
H	-1.615158	-1.078387	0.71185
N	-1.615819	0.062202	-2.081767
O	-1.924364	1.237871	-2.250357
O	-2.240157	-0.907305	-2.487748
N	0.25483	-1.444431	-1.9648
H	0.244257	-1.486725	-2.976775
H	1.213132	-1.520514	-1.647362
F	-2.928488	0.0	0.0
