19

C	0.0	0.0	0.0
C	-0.557604	-0.185201	-1.416872
F	1.403932	0.0	0.0
H	-1.643246	-0.31024	-1.245533
C	-0.496524	1.3277	0.534856
H	-0.105883	2.164473	-0.050313
H	-0.161823	1.446012	1.569501
H	-1.592602	1.260942	0.484664
C	-0.469488	-1.122721	0.904579
H	-0.098306	-2.091357	0.564038
H	-1.564373	-1.084348	0.874077
H	-0.09746	-0.943361	1.91817
N	0.008732	-1.451951	-1.991492
O	1.104311	-1.380573	-2.548603
O	-0.633731	-2.493618	-1.84985
N	-0.286167	0.865346	-2.364681
H	-0.970639	1.594941	-2.219667
H	0.642056	1.241893	-2.213608
F	-2.980111	0.0	0.0
