19

C	0.0	0.0	0.0
C	-0.350879	-0.119549	-1.511973
F	1.400679	0.0	0.0
H	0.500058	-0.62541	-1.982221
C	-0.537392	1.258633	0.63945
H	-1.628209	1.217532	0.527778
H	-0.118134	2.15392	0.176383
H	-0.274576	1.263045	1.701769
C	-0.501047	-1.225312	0.733517
H	-1.593116	-1.1689	0.735843
H	-0.170353	-2.141013	0.238452
H	-0.112439	-1.207394	1.757252
N	-0.187479	1.311242	-2.125172
O	-1.200106	1.945188	-2.412205
O	0.96308	1.721225	-2.290164
N	-1.579804	-0.720987	-1.783166
H	-1.822596	-0.633304	-2.760156
H	-2.359774	-0.384004	-1.133938
F	-3.231815	0.0	0.0
