19

C	0.0	0.0	0.0
C	-0.296745	-0.059948	-1.520633
F	1.401706	0.0	0.0
H	0.269612	-0.918573	-1.896226
C	-0.542842	1.215267	0.709602
H	-0.167212	2.138483	0.272112
H	-1.634169	1.159353	0.625588
H	-0.253935	1.169702	1.764912
C	-0.534393	-1.264425	0.634822
H	-0.184929	-2.152291	0.099058
H	-0.195792	-1.326796	1.673595
H	-1.627668	-1.190075	0.600214
N	0.507559	1.092893	-2.18921
O	1.506218	0.779355	-2.841849
O	0.089669	2.241026	-2.074523
N	-1.631202	-0.011287	-1.941478
H	-1.842426	-0.791406	-2.545687
H	-2.354886	0.048074	-1.157486
F	-3.263482	0.0	0.0
