19

C	0.0	0.0	0.0
C	-0.355057	-0.355163	-1.474718
F	1.401045	0.0	0.0
H	0.50203	-0.913817	-1.869165
C	-0.543923	1.339584	0.435294
H	-0.283865	1.511698	1.484007
H	-0.129892	2.154254	-0.161706
H	-1.634601	1.27182	0.331587
C	-0.49551	-1.096786	0.917534
H	-1.587649	-1.046813	0.914299
H	-0.160636	-2.077255	0.571618
H	-0.104457	-0.916426	1.924523
N	-0.221608	0.966736	-2.304527
O	-1.243462	1.495001	-2.735422
O	0.919057	1.401575	-2.484362
N	-1.573834	-1.012467	-1.639296
H	-1.816298	-1.095284	-2.616479
H	-2.356253	-0.575223	-1.058492
F	-3.225001	0.0	0.0
