19

C	0.0	0.0	0.0
C	-0.540827	-0.152279	-1.418587
F	1.40472	0.0	0.0
H	-1.641396	-0.144877	-1.276888
C	-0.495138	1.327816	0.536587
H	-0.135069	1.454414	1.562614
H	-0.137304	2.151159	-0.082232
H	-1.589962	1.249925	0.509621
C	-0.483464	-1.128756	0.886035
H	-0.147162	-0.941905	1.910033
H	-1.578341	-1.094607	0.820841
H	-0.089984	-2.09518	0.56402
N	-0.161537	-1.536959	-1.940962
O	0.944183	-1.660245	-2.480992
O	-0.966462	-2.457079	-1.799532
N	-0.045061	0.864524	-2.29107
H	0.950906	0.731181	-2.418395
H	-0.500945	0.80083	-3.191766
F	-2.986382	0.0	0.0
