13

C	0.0	0.0	0.0
C	-0.571177	-0.136737	-1.416323
F	1.369293	0.0	0.0
H	-1.58978	-0.530605	-1.277212
H	-0.355649	-0.83939	0.603895
C	-0.42178	1.259423	0.637948
N	-0.612884	2.271317	1.200565
C	0.227886	-1.117741	-2.155909
N	0.813854	-1.92099	-2.781205
N	-0.565917	1.161558	-2.100983
H	-0.723303	1.002515	-3.089892
H	-1.395465	1.646044	-1.75841
Br	-3.590611	0.0	0.0
