13

C	0.0	0.0	0.0
C	-0.454028	0.054762	-1.454903
F	1.38098	0.0	0.0
H	-1.551528	0.117597	-1.421885
H	-0.370471	-0.898354	0.496009
C	-0.419201	1.202074	0.739357
N	-0.587728	2.16897	1.382868
C	-0.050025	-1.196241	-2.126661
N	0.325002	-2.142482	-2.713764
N	0.113816	1.239751	-2.080883
H	1.105146	1.10762	-2.237893
H	-0.336385	1.408258	-2.97053
Br	-3.517239	0.0	0.0
