13

C	0.0	0.0	0.0
C	-0.22034	-0.195948	-1.523882
F	1.375322	0.0	0.0
H	0.430085	0.583395	-1.954493
H	-0.401555	-0.824446	0.582827
C	-0.416502	1.315953	0.503423
N	-0.481353	2.417722	0.906814
C	-1.498382	-0.013527	-2.225975
N	-2.129455	0.092644	-3.217709
N	0.274243	-1.548077	-1.829464
H	0.015248	-1.783383	-2.779273
H	1.284663	-1.540507	-1.76679
Br	-3.239403	0.0	0.0
