13

C	0.0	0.0	0.0
C	-0.503068	0.097517	-1.432104
F	1.382048	0.0	0.0
H	-1.602261	0.106977	-1.343296
H	-0.363117	-0.915086	0.471852
C	-0.407158	1.17119	0.795295
N	-0.549503	2.105096	1.491127
C	-0.089132	-1.110877	-2.170471
N	0.253875	-2.038452	-2.805333
N	-0.035028	1.33294	-2.03822
H	0.92776	1.244717	-2.336634
H	-0.608502	1.561211	-2.838852
Br	-3.574275	0.0	0.0
