13

C	0.0	0.0	0.0
C	-0.494506	0.046223	-1.45448
F	1.370093	0.0	0.0
H	-1.578045	-0.128403	-1.401634
H	-0.366283	-0.897301	0.503274
C	-0.41477	1.207655	0.735352
N	-0.560043	2.221755	1.308332
C	0.137936	-1.063051	-2.180082
N	0.631822	-1.967722	-2.742719
N	-0.252443	1.302032	-2.143332
H	0.663524	1.664235	-1.903046
H	-0.953715	1.965403	-1.834397
Br	-3.516233	0.0	0.0
