13

C	0.0	0.0	0.0
C	-0.340804	0.403124	-1.473943
F	1.371683	0.0	0.0
H	0.413894	-0.161339	-2.036073
H	-0.370406	-1.007438	0.203423
C	-0.462087	0.937141	1.027811
N	-0.711845	1.714049	1.871311
C	0.018663	1.824062	-1.654657
N	0.332481	2.944876	-1.809088
N	-1.622059	0.125262	-2.055502
H	-2.399979	0.406447	-1.450034
H	-1.726556	-0.875569	-2.172641
Br	-4.135442	0.0	0.0
