13

C	0.0	0.0	0.0
C	-0.451694	0.432094	-1.419037
F	1.371646	0.0	0.0
H	0.471761	0.358732	-2.004857
H	-0.359037	-1.017691	0.165212
C	-0.433901	0.877968	1.09644
N	-0.6343	1.584212	2.012343
C	-0.839318	1.860671	-1.481054
N	-1.089197	2.998655	-1.633528
N	-1.39756	-0.519033	-1.965555
H	-2.280204	-0.448472	-1.440372
H	-1.60001	-0.263708	-2.925771
Br	-3.956333	0.0	0.0
