17

C	0.0	0.0	0.0
C	-0.485556	0.01143	-1.464393
F	1.378607	0.0	0.0
H	-1.566939	-0.167787	-1.425136
N	-0.503679	1.000355	0.876842
H	-0.334049	1.90864	0.460898
H	-1.516973	0.85268	0.934413
C	-0.37274	-1.333594	0.550028
N	-0.563073	-2.397217	1.00796
C	0.244793	-0.980056	-2.355641
H	0.172044	-1.98095	-1.928394
H	-0.209952	-0.988816	-3.346387
H	1.299501	-0.709495	-2.438774
N	-0.343748	1.361619	-2.098042
O	-0.977993	1.53591	-3.135794
O	0.414057	2.192825	-1.593539
Cl	-3.516763	0.0	0.0
