17

C	0.0	0.0	0.0
C	-0.568951	0.08437	-1.415217
F	1.401164	0.0	0.0
H	-1.666253	0.078731	-1.268071
N	-0.496611	1.016556	0.838311
H	-0.097437	1.911066	0.602488
H	-0.416733	0.796319	1.818529
C	-0.371883	-1.31924	0.563505
N	-0.513746	-2.388044	1.027136
C	-0.098481	-1.031597	-2.330866
H	-0.398634	-1.993569	-1.91285
H	-0.564151	-0.922683	-3.308829
H	0.989221	-1.013716	-2.438445
N	-0.249549	1.397525	-2.070128
O	-0.676457	1.54512	-3.211851
O	0.408212	2.245953	-1.464275
Cl	-3.683855	0.0	0.0
