17

C	0.0	0.0	0.0
C	-0.348721	0.196075	-1.489417
F	1.403695	0.0	0.0
H	-0.136574	1.24426	-1.719805
N	-0.545581	1.001007	0.838938
H	-0.716527	1.856758	0.328722
H	-1.423681	0.696485	1.247904
C	-0.376137	-1.333839	0.512803
N	-0.590516	-2.384003	0.991376
C	-1.746838	-0.212655	-1.879098
H	-1.930159	0.054855	-2.922199
H	-2.51239	0.252029	-1.252891
H	-1.870659	-1.289035	-1.755001
N	0.632195	-0.557618	-2.339744
O	0.694704	-1.773857	-2.184512
O	1.282154	0.090955	-3.159588
Cl	-4.443888	0.0	0.0
