17

C	0.0	0.0	0.0
C	-0.325213	0.182552	-1.503202
F	1.403545	0.0	0.0
H	-0.147902	1.238165	-1.728542
N	-0.554399	1.002179	0.828925
H	-1.453326	0.706248	1.203166
H	-0.696342	1.863648	0.31774
C	-0.378453	-1.334562	0.507726
N	-0.612076	-2.396965	0.94689
C	-1.689862	-0.279735	-1.945588
H	-1.773052	-1.361614	-1.833698
H	-2.493019	0.157215	-1.345457
H	-1.843017	-0.014325	-2.994971
N	0.706242	-0.531416	-2.32989
O	1.348026	0.143725	-3.135154
O	0.811371	-1.744208	-2.176436
Cl	-4.349149	0.0	0.0
