17

C	0.0	0.0	0.0
C	-0.500661	0.150886	-1.442936
F	1.382398	0.0	0.0
H	-1.587043	0.26839	-1.389334
N	-0.471206	1.075859	0.797906
H	-0.266615	0.887412	1.773231
H	-1.491107	1.104763	0.690699
C	-0.353606	-1.35813	0.506644
N	-0.526812	-2.429114	0.958162
C	-0.083493	-0.992878	-2.341839
H	-0.619955	-1.894216	-2.041309
H	-0.349	-0.767799	-3.376648
H	0.990891	-1.165303	-2.285822
N	0.047771	1.443406	-1.970228
O	-0.669982	2.437016	-1.890654
O	1.178378	1.426252	-2.460006
Cl	-3.500471	0.0	0.0
