17

C	0.0	0.0	0.0
C	-0.262324	0.473395	-1.45494
F	1.378206	0.0	0.0
H	0.164801	1.477631	-1.471831
N	-0.557899	0.941407	0.90977
H	-0.417936	0.609675	1.859268
H	-1.572983	0.936602	0.750073
C	-0.386988	-1.405869	0.275668
N	-0.688151	-2.500977	0.574213
C	-1.636198	0.437698	-2.07745
H	-1.525276	0.678978	-3.139742
H	-2.303798	1.15226	-1.606901
H	-2.101373	-0.538303	-1.964822
N	0.648453	-0.317786	-2.352288
O	1.468335	0.312066	-3.017634
O	0.478305	-1.532886	-2.402951
Cl	-3.939806	0.0	0.0
