17

C	0.0	0.0	0.0
C	-0.523679	0.102944	-1.437455
Br	2.062315	0.0	0.0
H	-1.611922	0.044109	-1.27212
N	-0.49338	1.03655	0.753243
H	-0.48283	1.917688	0.261444
H	-0.28028	1.051277	1.735119
C	-0.281322	-1.304923	0.603761
N	-0.459746	-2.355964	1.097987
C	-0.068312	-1.026093	-2.347434
H	1.01303	-0.993735	-2.508443
H	-0.570298	-0.925573	-3.313315
H	-0.331043	-2.001799	-1.932728
N	-0.214099	1.446534	-1.920183
H	-0.941254	1.748451	-2.555192
H	0.672293	1.442207	-2.412521
Cl	-3.834359	0.0	0.0
