17

C	0.0	0.0	0.0
C	-0.484917	0.007121	-1.45869
Br	2.062183	0.0	0.0
H	-1.578117	-0.011311	-1.335993
N	-0.502103	1.090124	0.668389
H	-0.301675	1.166463	1.650451
H	-0.435103	1.939273	0.127901
C	-0.289069	-1.257573	0.689553
N	-0.488589	-2.271982	1.248227
C	-0.036039	-1.198691	-2.269261
H	-0.339159	-2.133224	-1.791412
H	-0.510476	-1.157366	-3.25383
H	1.049045	-1.208297	-2.403629
N	-0.115454	1.302732	-2.026794
H	-0.79676	1.564468	-2.726401
H	0.796351	1.239472	-2.464834
Cl	-3.816112	0.0	0.0
