17

C	0.0	0.0	0.0
C	-0.355691	0.327598	-1.506329
Br	2.0479	0.0	0.0
H	0.497131	-0.044375	-2.078958
N	-0.579638	0.887104	0.939543
H	-0.505162	0.509941	1.877786
H	-1.580059	0.945771	0.715518
C	-0.251675	-1.427909	0.263431
N	-0.453481	-2.564124	0.493994
C	-0.463419	1.834389	-1.696839
H	0.38719	2.360337	-1.259071
H	-1.381439	2.209641	-1.240475
H	-0.50946	2.035013	-2.768982
N	-1.52666	-0.319683	-2.040303
H	-2.366822	-0.093029	-1.504685
H	-1.42782	-1.3275	-2.005403
Cl	-3.910207	0.0	0.0
