17

C	0.0	0.0	0.0
C	-0.375621	1.230812	-0.865161
Br	1.992508	0.0	0.0
H	0.061379	2.089831	-0.327076
N	-0.503261	-0.01595	1.336374
H	-0.483611	0.922682	1.720301
H	-1.469665	-0.33973	1.322544
C	-0.368606	-1.239772	-0.689809
N	-0.653698	-2.244329	-1.227388
C	-1.882019	1.403926	-0.948078
H	-2.089387	2.290652	-1.555844
H	-2.373183	0.545437	-1.407031
H	-2.364284	1.536416	0.016144
N	0.168897	1.062517	-2.203593
H	-0.421652	1.526343	-2.880311
H	1.111301	1.419884	-2.277026
Cl	-4.707249	0.0	0.0
