17

C	0.0	0.0	0.0
C	-0.58704	-0.024273	-1.414933
Br	2.062523	0.0	0.0
H	-1.66095	-0.140694	-1.190535
N	-0.487397	1.091615	0.68627
H	-0.16674	1.213894	1.632049
H	-0.500525	1.920108	0.107782
C	-0.257852	-1.254934	0.715084
N	-0.435723	-2.261696	1.294297
C	-0.096993	-1.178541	-2.271125
H	-0.674241	-1.201144	-3.199197
H	0.963259	-1.065713	-2.516119
H	-0.235953	-2.136928	-1.7655
N	-0.400756	1.297995	-2.003608
H	0.398379	1.299709	-2.626354
H	-1.230803	1.548828	-2.524809
Cl	-3.846908	0.0	0.0
