17

C	0.0	0.0	0.0
C	-0.367642	0.080171	-1.555263
Br	1.963158	0.0	0.0
H	0.477157	-0.379605	-2.075217
N	-0.566899	0.962297	0.89148
H	-1.574422	0.774081	0.940821
H	-0.440805	1.891791	0.508611
C	-0.333208	-1.352097	0.472001
N	-0.523531	-2.472316	0.771567
C	-0.477055	1.538487	-1.974277
H	-0.550044	1.580323	-3.061839
H	0.38799	2.12826	-1.657101
H	-1.391271	1.974663	-1.564003
N	-1.552517	-0.623654	-1.966563
H	-1.453251	-1.615615	-1.786722
H	-2.381942	-0.315303	-1.453262
Cl	-3.952073	0.0	0.0
