17

C	0.0	0.0	0.0
C	-0.381955	-0.21186	-1.534294
Cl	1.777622	0.0	0.0
H	0.396246	0.33133	-2.074188
N	-0.29615	1.483541	0.395696
O	-0.122523	2.344571	-0.460565
O	-0.638128	1.687471	1.555742
N	-0.601607	-0.905703	0.869959
H	-0.469216	-0.619175	1.833466
H	-1.608972	-0.898082	0.679137
N	-1.639308	0.293215	-1.980229
H	-1.63409	1.303994	-1.958974
H	-2.436791	-0.00576	-1.417992
N	-0.280421	-1.624106	-1.87007
H	0.492866	-2.039638	-1.361963
H	-1.126731	-2.084855	-1.550207
Cl	-4.059824	0.0	0.0
