17

C	0.0	0.0	0.0
C	-0.642599	-0.216961	-1.372868
Cl	1.755171	0.0	0.0
H	-1.705821	-0.003283	-1.185162
N	-0.327527	1.482196	0.472843
O	-1.150459	1.57217	1.379922
O	0.260949	2.418103	-0.051884
N	-0.532947	-0.935925	0.910717
H	-0.230354	-0.730001	1.854554
H	-1.55623	-0.854512	0.868546
N	-0.405298	-1.615253	-1.759247
H	-1.180137	-1.893307	-2.352309
H	-0.459414	-2.18724	-0.923339
N	-0.156069	0.708099	-2.365558
H	0.659904	0.293926	-2.802879
H	-0.870405	0.842089	-3.068927
Cl	-3.808234	0.0	0.0
