17

C	0.0	0.0	0.0
C	-0.575193	-0.344452	-1.409001
Cl	1.762735	0.0	0.0
H	-1.436266	0.313388	-1.531651
N	-0.345405	1.478359	0.303643
O	-0.414764	2.23572	-0.656816
O	-0.457049	1.800325	1.478054
N	-0.486009	-0.774629	1.083174
H	-0.383553	-1.743599	0.796996
H	-1.489181	-0.580775	1.155138
N	-0.999493	-1.751496	-1.367157
H	-1.918477	-1.742902	-0.922369
H	-1.163036	-2.028822	-2.3292
N	0.357826	-0.073155	-2.4777
H	-0.154282	0.032247	-3.344163
H	1.00567	-0.847666	-2.568094
Cl	-3.569035	0.0	0.0
