17

C	0.0	0.0	0.0
C	-0.612188	0.060914	-1.430254
Cl	1.836121	0.0	0.0
H	0.203284	0.268666	-2.126678
N	-0.241068	1.358742	0.730399
O	-0.943822	1.325792	1.733387
O	0.312726	2.3432	0.272404
N	-0.567688	-1.003252	0.743908
H	-0.28708	-1.055523	1.708824
H	-0.611334	-1.878076	0.24155
N	-1.558437	1.151051	-1.484647
H	-1.848255	1.283341	-2.446863
H	-2.40192	0.902722	-0.952479
N	-1.142601	-1.276984	-1.726856
H	-2.085083	-1.300094	-1.333274
H	-1.242345	-1.357636	-2.731611
Cl	-4.254971	0.0	0.0
