12
Coordinates from ORCA-job run
  C   1.12615610116461     -0.14250129933221      0.12379970004079
  C   -0.09694505886579     -0.19324662469311     -0.77409892679835
  F   2.27482289919313     -0.09970284062939     -0.65014440294768
  H   0.02232876731630     -1.06644735808599     -1.42179211825821
  H   1.18787135094502     -1.03927627280999      0.74849132791953
  H   -0.08250468952371      0.69379721081865     -1.41300401962812
  C   1.10395209233307      1.03953865337734      1.00174949339607
  N   1.05151088338418      1.98245849663780      1.69814363221517
  C   -1.39499496282068     -0.27605980987843      0.02220802599125
  H   -1.40308313107466     -1.15058553192496      0.67801540875741
  H   -2.24919663867013     -0.35975916652138     -0.65138851780101
  H   -1.54191761338134      0.61278454304166      0.63902039711315
