12
Coordinates from ORCA-job run
  C   1.12393632847058      0.25509508822540     -0.11751360966448
  C   -0.07687823840898     -0.52224107736425     -0.62871439224214
  F   1.03389102896333      1.57791450620448     -0.52752066659016
  H   -0.04693418543454     -0.46938992159740     -1.72104484089696
  H   2.05566396294878     -0.14591905838148     -0.52731117565182
  H   0.05730597395361     -1.57239965595447     -0.35010894413763
  C   1.20654030697069      0.22583345189746      1.35336037960583
  N   1.26015235848378      0.17136574367629      2.52417829183152
  C   -1.40001244338831      0.01812156376091     -0.09941345655180
  H   -1.46562758674614     -0.08665508125455      0.98559506364918
  H   -2.23698185370908     -0.52545249045524     -0.54114768496198
  H   -1.51205565210372      1.07372693124285     -0.34935896438956
