13

C	-0.448266	0.108911	-1.436537
C	0.0	0.0	0.0
F	-0.11663	-0.991655	-2.148446
H	1.091789	0.0	0.0
H	-0.315025	0.893435	0.543155
C	-1.88753	0.372451	-1.612873
N	-3.038935	0.578219	-1.731102
N	0.273346	1.316402	-2.071752
O	0.071223	2.382605	-1.5052
O	0.928917	1.117665	-3.078464
C	-0.545526	-1.192007	0.614443
N	-0.949761	-2.169816	1.127467
H	2.618966	0.0	0.0
