13

C	-0.426868	-0.041646	-1.44085
C	0.0	0.0	0.0
F	-0.11146	1.10361	-2.086253
H	1.093505	0.0	0.0
H	-0.313174	-0.922147	0.495942
C	0.131427	-1.194356	-2.168522
N	0.507171	-2.122845	-2.781721
N	-1.960003	-0.191492	-1.532873
O	-2.403834	-1.272621	-1.15994
O	-2.602206	0.777	-1.914636
C	-0.548461	1.158471	0.674269
N	-0.953349	2.102874	1.246074
H	2.600582	0.0	0.0
