13

C	-0.449162	0.196545	-1.426996
C	0.0	0.0	0.0
F	-0.113534	-0.855807	-2.206415
H	1.091665	0.0	0.0
H	-0.315821	0.858379	0.596926
C	-1.890091	0.464881	-1.586101
N	-3.041986	0.676413	-1.688861
N	0.266362	1.445138	-1.985952
O	0.919343	1.313176	-3.00527
O	0.062229	2.471838	-1.351489
C	-0.545183	-1.227863	0.538895
N	-0.952664	-2.236784	0.984311
H	2.620592	0.0	0.0
