13

C	-0.4711	0.030358	-1.420158
C	0.0	0.0	0.0
F	-1.826045	-0.193526	-1.554543
H	1.092102	0.0	0.0
H	-0.319167	-0.952208	0.432788
C	-0.143729	1.271233	-2.126456
N	0.08426	2.292112	-2.657853
N	0.199403	-1.143121	-2.146493
O	1.013828	-0.892923	-3.026236
O	-0.1474	-2.249794	-1.748496
C	-0.536929	1.108527	0.759774
N	-0.944007	2.010807	1.395386
H	2.60336	0.0	0.0
