13

C	-0.444184	0.17765	-1.431599
C	0.0	0.0	0.0
F	-0.086636	-0.877827	-2.198495
H	1.091734	0.0	0.0
H	-0.31951	0.864088	0.586095
C	-1.888033	0.420741	-1.603238
N	-3.041431	0.616257	-1.719157
N	0.252736	1.431661	-1.997788
O	0.024372	2.461532	-1.376489
O	0.914482	1.302764	-3.011938
C	-0.542565	-1.223686	0.550158
N	-0.946208	-2.228158	1.008822
H	2.620361	0.0	0.0
