13

C	-0.506425	0.056986	-1.410536
C	0.0	0.0	0.0
F	-1.872399	0.192008	-1.489574
H	1.092049	0.0	0.0
H	-0.283262	0.938141	0.487932
C	0.105467	1.158464	-2.167028
N	0.523586	2.085711	-2.753732
N	-0.172225	-1.25137	-2.137822
O	0.905069	-1.294691	-2.716651
O	-1.001853	-2.146117	-2.033537
C	-0.543318	-1.117549	0.744408
N	-0.921891	-2.023929	1.391447
H	2.604378	0.0	0.0
