15

C	0.0	0.0	0.0
C	-0.434214	0.563281	-1.397072
Cl	1.831588	0.0	0.0
H	-0.68424	1.6149	-1.256048
H	0.456052	0.523971	-2.02857
N	-0.254801	1.052892	1.144007
O	-0.457504	0.590331	2.261434
O	-0.174225	2.244399	0.875519
N	-0.57233	-1.22917	0.292409
H	-1.602199	-1.039608	0.240486
H	-0.34541	-1.495043	1.244099
N	-1.517002	-0.099366	-2.076924
H	-2.341517	-0.044356	-1.449725
H	-1.29013	-1.083177	-2.167517
H	-3.130121	0.0	0.0
