15

C	0.0	0.0	0.0
C	-0.532688	-0.138472	-1.418598
Cl	1.7596	0.0	0.0
H	-1.618382	0.022774	-1.301226
H	-0.371097	-1.191248	-1.663499
N	-0.321337	1.458707	0.534074
O	-0.413438	1.579547	1.749309
O	-0.424884	2.379773	-0.269557
N	-0.609639	-0.952062	0.81617
H	-0.392854	-0.748287	1.787194
H	-1.642953	-0.78225	0.661598
N	0.139223	0.683919	-2.425889
H	-0.155506	0.342351	-3.334659
H	-0.208806	1.629075	-2.328072
H	-3.064928	0.0	0.0
