15

C	0.0	0.0	0.0
C	-0.536851	0.091579	-1.425043
Cl	1.76606	0.0	0.0
H	0.06631	0.770551	-2.02892
H	-1.555701	0.477723	-1.291461
N	-0.334376	1.335225	0.706084
O	-0.29739	2.337998	-0.002397
O	-0.533081	1.322453	1.910492
N	-0.554509	-1.040489	0.774642
H	-1.579886	-0.827535	0.744466
H	-0.415482	-1.880091	0.220894
N	-0.570794	-1.263561	-1.98949
H	-1.537339	-1.571307	-1.942486
H	-0.297506	-1.2368	-2.962747
H	-3.07712	0.0	0.0
