15

C	0.0	0.0	0.0
C	-0.498049	0.322313	-1.390513
Cl	1.829228	0.0	0.0
H	0.075149	1.150776	-1.806942
H	-1.547079	0.616622	-1.219146
N	-0.232921	1.285182	0.892982
O	-0.229649	2.384343	0.35179
O	-0.354252	1.088931	2.097188
N	-0.652448	-1.097732	0.518474
H	-1.710997	-0.815549	0.393856
H	-0.445326	-1.190777	1.508267
N	-0.380375	-0.865843	-2.250788
H	-1.120763	-0.784482	-2.939233
H	-0.64929	-1.655887	-1.670383
H	-2.970103	0.0	0.0
