13
Coordinates from ORCA-job run
  C   0.64363024677975      0.47411935181421     -0.31113819179788
  C   -0.63996786805164      0.26247240037891      0.04799401680779
  H   0.89781877671635      1.44467615424561     -0.72783454997494
  C   1.73611928264337     -0.55086542307227     -0.19648867173961
  H   1.59504497142577     -1.20051702658171      0.67374344057431
  H   1.81296494556474     -1.19634218113101     -1.07935026072212
  H   2.70718944136135     -0.06675224747532     -0.07087965476235
  N   -1.18740288346443     -0.97793039575048      0.40191411132386
  H   -1.72138499582393     -0.92098846833966      1.25859820238395
  H   -0.50856623049382     -1.72261655037901      0.43671538368869
  N   -1.61950884687207      1.26851843308234      0.12667566572202
  H   -2.45015523009686      1.01804620242992     -0.39359174946395
  H   -1.26778160968859      2.16817975077846     -0.16635774203976
