13
Coordinates from ORCA-job run
  C   0.51308385215353     -0.37396675400933     -0.61339204624737
  C   -0.60666662576100     -0.20679273101937      0.12094755691734
  H   0.47169527718377     -1.04604410756633     -1.46588784948477
  C   1.80378435498902      0.32524470396511     -0.30514048562497
  H   1.85773100061560      0.57056927932448      0.75906076832872
  H   1.92989042884577      1.25840871563350     -0.86817389819545
  H   2.66110099564836     -0.30813635068987     -0.54709130880604
  N   -0.68906588060973      0.71586253260607      1.17274990258427
  H   -1.55192454233798      0.66287616745523      1.68921816027807
  H   -0.41894000609123      1.65715068354465      0.93941988288575
  N   -1.76163741481787     -1.00964915134368      0.00753994168071
  H   -1.62622968138161     -1.77185562360824     -0.64114834684577
  H   -2.58182175843662     -0.47366736429221     -0.24810227747049
