13
Coordinates from ORCA-job run
  C   0.56328893425768      0.40151308774064     -0.54841579453845
  C   -0.57696209435959      0.25944033890480      0.15917925972610
  H   0.61724732544114      1.20436515679993     -1.27825706058374
  C   1.75127296756770     -0.49701670129079     -0.37190108640181
  H   2.68470960089106      0.05348831982408     -0.51454267881165
  H   1.76447475043709     -1.33321071741965     -1.08204744819513
  H   1.76146343603089     -0.91887923801461      0.63683441991410
  N   -0.78778371620054     -0.80557057491517      1.04556039971528
  H   -1.64277750570653     -0.72906548031353      1.57206191152783
  H   -0.63658838780946     -1.72226588511890      0.65795160075156
  N   -1.61939768726955      1.21009245656103      0.19057056750092
  H   -1.38099180233614      2.04512895766663     -0.32514992868683
  H   -2.49795582094375      0.83198027957553     -0.14184416191819
