13
Coordinates from ORCA-job run
  C   0.50432855963086     -0.32342487521993     -0.61559164975265
  C   -0.67083094002069     -0.17118492707087      0.03040217045972
  H   0.52700040086015     -0.99072627721802     -1.47249270088790
  C   1.78546622134044      0.34904049139776     -0.21044447585590
  H   2.44306873811438      0.47828740194096     -1.07291186516178
  H   2.34975372919466     -0.21893956608027      0.53856521975946
  H   1.60757553280016      1.34830528089745      0.20080554170665
  N   -1.90850845894323     -0.63664722698429     -0.44930651427697
  H   -2.38874321889649     -1.19204112893438      0.24672980968834
  H   -1.81452895105529     -1.14714344530588     -1.31514419948890
  N   -0.83836425017367      0.47357363432998      1.26288024977001
  H   -1.60223058221171      1.13552514248020      1.24036649380085
  H   0.00701321936042      0.89437549576729      1.61614192023907
