13
Coordinates from ORCA-job run
  C   0.55141873753028      0.34937938773741     -0.55789582088660
  C   -0.64376303133518      0.24975206979468      0.06111572511862
  H   0.67362244383714      1.13664951238941     -1.29639770193926
  C   1.72845197206572     -0.53993487984804     -0.27278567721418
  H   2.34968625068886     -0.17739942516264      0.55467151062690
  H   1.41638221612270     -1.56032968735484     -0.02630965838823
  H   2.37722606625191     -0.61412963444232     -1.14833650764564
  N   -0.91293460882143     -0.55686424892421      1.17452339673119
  H   -0.13474509273109     -1.13506120094647      1.45136888476664
  H   -1.75544636166678     -1.10158491900588      1.04953398230357
  N   -1.80309614818023      0.94301309007704     -0.33126128434039
  H   -1.63004620425548      1.56935980797346     -1.10383370752277
  H   -2.21875623950642      1.43715012771240      0.44760685839015
