13
Coordinates from ORCA-job run
  C   0.60066354717764      0.46913732577017     -0.36242566353778
  C   -0.64746012181754      0.22704465244174      0.08942608286172
  H   0.77684160368470      1.42650994607771     -0.84587593882736
  C   1.76105325443656     -0.48321902781637     -0.29182875408139
  H   2.68984719110067      0.05693567061846     -0.09223692127003
  H   1.65972854881649     -1.22017548261745      0.50875643352785
  H   1.90565676448275     -1.03433394334571     -1.22837195417148
  N   -1.04662380063522     -0.86809154801159      0.87141742199074
  H   -1.90269979036860     -1.27181753189547      0.51578581415538
  H   -0.33182098032059     -1.57247065846246      0.96363934372553
  N   -1.74961162308082      1.06621645611465     -0.16142834269638
  H   -1.48437163238793      1.90102221949998     -0.66338332081753
  H   -2.23120296108812      1.30324192162635      0.69652579914072
