13
Coordinates from ORCA-job run
  C   0.67571461127664      0.54318303312661     -0.16439720105376
  C   -0.60714276204727      0.21703472704882      0.09806746214580
  H   0.89546784183820      1.56753136400280     -0.45173663192152
  C   1.80292847489181     -0.44269296819758     -0.07922067865297
  H   2.03570010041455     -0.91099162553383     -1.04366958818923
  H   1.55498024897682     -1.24114038084340      0.62549064595023
  H   2.72067420933998      0.03884462411580      0.26792516805525
  N   -1.01169351858008     -1.09688968155645      0.37106428843208
  H   -1.97892745658519     -1.17271725738430      0.64088445783155
  H   -0.73155862077833     -1.78155948295681     -0.31174544444858
  N   -1.65159359301023      1.15327333398543      0.25280014566175
  H   -2.39466236520648      1.02044609574071     -0.42204628212957
  H   -1.31188717053043      2.10367821845218      0.21658365831896
