13
Coordinates from ORCA-job run
  C   0.67037377758429      0.54800012086729     -0.24779034408382
  C   -0.61710494811259      0.23362617033502      0.00506469910052
  H   0.88125440200808      1.55969383790889     -0.58188034683324
  C   1.80688994599855     -0.41697467545987     -0.10728976169556
  H   2.71707643037982      0.10267706673649      0.20252258863760
  H   1.59813830478635     -1.16824335878713      0.66148005356536
  H   2.04417572932477     -0.95224438508029     -1.03607515229904
  N   -1.01205589808587     -1.06173617478466      0.37292370187140
  H   -2.00725711360337     -1.21746516684901      0.34559316622328
  H   -0.52261297024536     -1.78168969431110     -0.13406128128631
  N   -1.65569011578893      1.17487497927652     -0.07348040080063
  H   -1.38383201409683      2.09289301372021      0.23651359656817
  H   -2.52035553014892      0.88758826642764      0.35547948103227
