13
Coordinates from ORCA-job run
  C   0.63190375472598      0.44857809465498     -0.46325563409445
  C   -0.64255245255437      0.25607367107935     -0.06245680798997
  H   0.84083596584320      1.35666587765241     -1.02077430366387
  C   1.75660133969582     -0.51748645037057     -0.22408852230383
  H   1.88749537762720     -1.23142174663391     -1.04604292960919
  H   2.70486168836702      0.01404083578725     -0.11355779312410
  H   1.61007344126369     -1.09621722640287      0.69349423041503
  N   -1.15557506683202     -0.95600625804387      0.43446103160180
  H   -0.48810658029233     -1.71169912923048      0.40412099999877
  H   -1.55948681434659     -0.86762516176285      1.35802511362623
  N   -1.62769651227238      1.24779287961451     -0.19862449647723
  H   -1.40144181654731      2.13106188175483      0.22564757114864
  H   -2.55791232467791      0.92724273190122      0.01505154047219
