13
Coordinates from ORCA-job run
  C   0.55706858417891     -0.50045703870461     -0.41835587516490
  C   -0.67659596988702     -0.15043901629474      0.00237619062256
  H   0.64962373167827     -1.40424542193816     -1.01408757858049
  C   1.81146903791530      0.26032812889719     -0.09463667940184
  H   2.27680299555049     -0.05998709940074      0.84493974852105
  H   2.55766252340036      0.12640497306511     -0.88109165538120
  H   1.62608706995838      1.33690125075001     -0.01892616426174
  N   -1.86918437853605     -0.74075142706551     -0.45349797718456
  H   -1.69779751069931     -1.49791980181521     -1.09881659107419
  H   -2.44725228375311     -1.04773966697516      0.31794393868633
  N   -0.95823206053909      0.84874254583956      0.94343689219114
  H   -1.68688496096149      1.47187864278098      0.62247279721651
  H   -0.14276677830563      1.35728393086127      1.24824295381132
