13
Coordinates from ORCA-job run
  C   0.64022562558016      0.56731288278144     -0.08004141403043
  C   -0.65956102548602      0.21358438371142      0.00394773240429
  H   0.87109839012927      1.62444815357065     -0.17638090589495
  C   1.78606398302242     -0.40295572219802     -0.02276826198816
  H   2.11292167776453     -0.62119729216452      1.00077798993654
  H   2.65341112156969     -0.00720441937459     -0.55574453709356
  H   1.53474686367210     -1.35719798532600     -0.49779490545280
  N   -1.73831194844398      1.08177489359087     -0.24194089366801
  H   -1.43348840649134      2.02313756541759     -0.44183932812882
  H   -2.40201706713729      1.07133362072525      0.52153368438498
  N   -1.12883988297027     -1.06308723200593      0.33903468979239
  H   -0.39570984390851     -1.74563714981114      0.45332231898324
  H   -1.84053948730075     -1.38431169891704     -0.30310616924469
