13
Coordinates from ORCA-job run
  C   0.64008222495856      0.47462283779361     -0.32139166959063
  C   -0.63862373409019      0.26384938775590      0.05558047037127
  H   0.88880437588175      1.44330331020899     -0.74555517205813
  C   1.73280762385781     -0.55129432124575     -0.21607797443583
  H   1.78839544705608     -1.21045489467302     -1.09045124585248
  H   2.70753947313655     -0.06791701701144     -0.12006073840692
  H   1.60972801728763     -1.18699394290770      0.66716912798122
  N   -1.17884749068676     -0.97604284776931      0.42057765105675
  H   -1.70406651213401     -0.92001170433752      1.28258244789362
  H   -0.49952196290058     -1.72051936247026      0.44679782373450
  N   -1.61856170951532      1.26879460559056      0.14350061248077
  H   -2.45466200136461      1.01472519138507     -0.36629603839739
  H   -1.27207375148691      2.16793875768089     -0.15737529477675
