13
Coordinates from ORCA-job run
  C   0.57220465444955     -0.51192383794054     -0.43605265588064
  C   -0.61882778982144     -0.17778718437579      0.10321204366213
  H   0.61436714221936     -1.38115180496984     -1.08619291002340
  C   1.83010543343614      0.26386327043699     -0.17997323563340
  H   2.70059937853473     -0.39665475410747     -0.15478792791323
  H   1.76986740411239      0.77591446557512      0.78426710596510
  H   2.02928467065543      1.02243839259764     -0.94708769014336
  N   -0.80319445462590      0.98359915568350      0.86582332034109
  H   -1.71854242169906      1.05302402207618      1.27976489924212
  H   -0.49642555515395      1.83629025952654      0.42737130284442
  N   -1.76497872224548     -1.00077867503352      0.07581194947474
  H   -2.54485032686632     -0.56310569371762     -0.39910492907044
  H   -1.56860941299544     -1.90272761575119     -0.33405127286511
