13
Coordinates from ORCA-job run
  C   0.60850733147627      0.47612424949056     -0.37198717187351
  C   -0.63779682289043      0.25395327192224      0.09603032196875
  H   0.82076142575378      1.45161100044462     -0.80060882677196
  C   1.72786929776378     -0.52426030456144     -0.31447480120745
  H   2.30758424977080     -0.46705703669659      0.61426318210205
  H   2.42880272469215     -0.36625383144031     -1.13737907762913
  H   1.36082235103189     -1.55158738522450     -0.40955838474635
  N   -1.73398197809126      1.10606327110814     -0.12857507200540
  H   -2.20061590609509      1.34451457564799      0.73680663582376
  H   -1.47349162469826      1.93720847994887     -0.63890196473180
  N   -1.03105053768497     -0.85113420274020      0.86276666454725
  H   -1.87679155330310     -1.27347020001841      0.50383689996283
  H   -0.30061895772557     -1.53471188788097      0.98878159456097
