13
Coordinates from ORCA-job run
  C   0.54743808532806     -0.48271844190294     -0.45021759297903
  C   -0.66605692081924     -0.18271159767949      0.05880212053397
  H   0.63897719446362     -1.39417483025868     -1.03435024781590
  C   1.78428837095691      0.34372002346710     -0.23987021560031
  H   2.34065363124044      0.06213952924498      0.66183028093340
  H   1.55223474917529      1.41111001282119     -0.16245091748149
  H   2.46936072214160      0.23406393444801     -1.08373098727095
  N   -0.92474755019916      0.82344390396392      0.99927256877781
  H   -1.70537908176234      1.40311691624824      0.72165734411384
  H   -0.11482055949573      1.37842161097804      1.22885305792491
  N   -1.85899133930014     -0.83979150999713     -0.29236210273476
  H   -2.36273001485634     -1.15475938053918      0.52649943407456
  H   -1.70022728687299     -1.60286017079405     -0.93393274247603
