13
Coordinates from ORCA-job run
  C   0.50219527379241     -0.37007688267498     -0.59053086908993
  C   -0.65698573083889     -0.20474075692251      0.08069047561831
  H   0.52875537575139     -1.12005666511001     -1.37598249417529
  C   1.74776060228690      0.43147750463974     -0.33787824205221
  H   1.78061941271321      1.36528979380665     -0.91140601496279
  H   2.63680103054638     -0.14104809288785     -0.61151099070761
  H   1.85601085436590      0.69194218903732      0.72031244973069
  N   -0.93486713184806      0.84250313224485      0.96876609623933
  H   -1.33055181682510      0.50519411696749      1.83582668096167
  H   -0.14944949584774      1.45332309961529      1.13154572591588
  N   -1.76002307609924     -1.07257154339327     -0.01121369366203
  H   -2.61141615187288     -0.56755307882488     -0.22005156679322
  H   -1.60784914612430     -1.81368281649785     -0.67956755702281
