13
Coordinates from ORCA-job run
  C   0.60531292407111     -0.56668543276886     -0.25102267004379
  C   -0.66560203598993     -0.19868145717989      0.01913759973608
  H   0.77506730860260     -1.57336933428283     -0.62172100359011
  C   1.79235288917440      0.34413476726723     -0.09300424466997
  H   2.71555388407536     -0.22957923168902     -0.18315759293310
  H   1.82920423329903      0.82692257555796      0.88959695314985
  H   1.82703891835755      1.13985045821929     -0.84713683777912
  N   -1.02432932322095      1.00953026545550      0.63946442489180
  H   -0.25033543494875      1.65441554650296      0.69824049382685
  H   -1.80457232683106      1.44591794406682      0.16409606485094
  N   -1.80546722191824     -0.95513660814862     -0.28766987608189
  H   -1.57209572485873     -1.87284809100879     -0.63830750773983
  H   -2.42212808981239     -1.02347140199177      0.51248419638229
