13
Coordinates from ORCA-job run
  C   0.58235196770916     -0.49128728016481     -0.44746235241107
  C   -0.63659722677619     -0.14118548946843      0.01361968961126
  H   0.68951325582812     -1.45718397659118     -0.93277471669447
  C   1.78802209647390      0.39124951803286     -0.31400641597268
  H   2.38063427510260      0.17385858804538      0.58338556968684
  H   2.45708650641969      0.27476229428313     -1.17034220065104
  H   1.48519376713636      1.44079401545579     -0.26435721763632
  N   -0.85756448691660      1.03232612718435      0.74719335066839
  H   -1.82939578949572      1.20816428839338      0.94375599560824
  H   -0.25767053823882      1.15754100333486      1.54587722025887
  N   -1.83147028288148     -0.82829493275369     -0.28934176972211
  H   -1.67724522946097     -1.57346405456628     -0.95340460840857
  H   -2.29285831490004     -1.18628010118535      0.53785745566265
