12

C	0.0	0.0	0.0
C	-0.550714	-0.056422	-1.397194
F	1.358237	0.0	0.0
H	-1.648511	-0.244217	-1.21311
H	-0.403246	0.834953	0.565719
H	-0.47514	0.94707	-1.828036
N	-0.360911	-1.233136	0.797996
O	-0.515805	-2.287052	0.191653
O	-0.33524	-1.099245	2.018752
C	0.15137	-0.991075	-2.26173
N	0.723306	-1.694277	-3.009806
H	-2.872299	0.0	0.0
