15

C	0.0	0.0	0.0
C	-0.429782	-0.204541	-1.466968
F	1.392236	0.0	0.0
H	0.518264	-0.277354	-2.019197
H	-0.350144	-0.802866	0.647522
H	-0.350067	0.950532	0.40026
C	-1.227316	0.990599	-1.984998
H	-0.660309	1.92296	-1.867129
H	-2.145506	1.001119	-1.381712
H	-1.46215	0.871223	-3.050343
C	-1.227714	-1.495652	-1.642019
H	-2.145806	-1.338762	-1.059312
H	-1.461602	-1.670719	-2.699893
H	-0.661484	-2.360994	-1.273222
F	-2.926625	0.0	0.0
