15

C	0.0	0.0	0.0
C	-0.426164	0.002194	-1.483253
F	1.392238	0.0	0.0
H	0.523571	0.0022	-2.037438
H	-0.352043	0.884576	0.529623
H	-0.351996	-0.886274	0.526968
C	-1.223543	1.257578	-1.835054
H	-0.662941	2.165257	-1.5767
H	-2.14657	1.177331	-1.244966
H	-1.445128	1.2927	-2.909108
C	-1.223297	-1.251853	-1.84066
H	-0.654955	-2.161033	-1.604568
H	-1.458942	-1.271582	-2.912449
H	-2.139954	-1.183998	-1.239245
F	-2.910455	0.0	0.0
