18

C	-0.351301	-0.091096	-1.513014
C	0.0	0.0	0.0
Br	-0.127426	1.741145	-2.230819
H	1.091344	0.0	0.0
C	0.675156	-0.956084	-2.23531
H	0.607303	-0.803645	-3.315941
H	1.663435	-0.692028	-1.847397
H	0.488333	-2.006829	-2.01023
C	-1.792155	-0.497165	-1.766832
H	-2.488784	0.167858	-1.251816
H	-2.011673	-0.476145	-2.837076
H	-1.94616	-1.518382	-1.40624
N	-0.449187	-1.257939	0.670886
O	-1.30566	-1.193389	1.556841
O	0.067416	-2.307491	0.2884
C	-0.599911	1.125106	0.688893
N	-1.049639	2.051932	1.256466
F	2.519592	0.0	0.0
