18

C	-0.497766	-0.001289	-1.455209
C	0.0	0.0	0.0
Br	0.297644	1.61163	-2.275926
H	1.091256	0.0	0.0
C	0.07955	-1.208632	-2.17578
H	-0.410958	-2.120088	-1.821141
H	-0.085193	-1.124065	-3.251839
H	1.14493	-1.266327	-1.947074
C	-2.006117	0.132145	-1.594222
H	-2.498193	-0.719781	-1.116371
H	-2.360312	1.044162	-1.109762
H	-2.290034	0.16394	-2.648866
N	-0.461487	-1.274461	0.650108
O	0.296133	-2.240556	0.586184
O	-1.575752	-1.297803	1.188853
C	-0.538325	1.109302	0.768773
N	-0.940775	2.023413	1.389284
F	2.503249	0.0	0.0
