11

C	0.0	0.0	0.0
C	-0.435815	-0.264417	-1.438151
F	1.390516	0.0	0.0
H	0.081349	0.476572	-2.059207
H	-0.347626	-0.775921	0.685934
H	-0.346861	0.975105	0.350411
H	-0.030697	-1.241497	-1.724073
N	-1.846628	-0.230849	-1.749211
H	-2.387617	-0.898948	-1.212865
H	-2.271012	0.655762	-1.506921
Br	-4.778819	0.0	0.0
