11

C	0.0	0.0	0.0
C	-0.372526	0.025155	-1.47682
F	1.390515	0.0	0.0
H	0.213896	0.837837	-1.917504
H	-0.332029	0.860278	0.587828
H	-0.364689	-0.915196	0.47334
H	0.047138	-0.903276	-1.875121
N	-1.755146	0.132877	-1.899542
H	-2.38746	-0.449272	-1.354962
H	-2.099942	1.071899	-1.757354
Br	-4.593064	0.0	0.0
