11

C	0.0	0.0	0.0
C	-0.541962	0.237376	-1.400508
F	1.384441	0.0	0.0
H	-1.350725	0.973796	-1.344073
H	-0.321534	0.788344	0.684166
H	-0.342404	-0.963539	0.378563
H	0.279893	0.652117	-1.995124
N	-0.989283	-1.025408	-2.002285
H	-1.210564	-0.847873	-2.975551
H	-1.886285	-1.217528	-1.555288
Br	-3.758511	0.0	0.0
