14

C	0.0	0.0	0.0
C	-0.364855	-0.264091	-1.456818
Cl	1.750141	0.0	0.0
H	-0.416679	0.665352	-2.024227
H	-1.303795	-0.806793	-1.519042
N	-0.263593	1.619655	0.808482
O	-1.38984	1.839021	1.198335
O	0.693515	2.372845	0.876861
C	-0.457637	-1.027125	0.902989
N	-0.615564	-1.89096	1.695059
N	0.621808	-1.136285	-2.260947
O	1.079161	-0.680413	-3.310887
O	0.788329	-2.284971	-1.861291
H	-1.791105	0.0	0.0
