14

C	0.0	0.0	0.0
C	-0.344572	0.025984	-1.513653
Cl	1.797297	0.0	0.0
H	0.457868	0.528237	-2.052708
H	-1.304579	0.48994	-1.682444
N	-0.466644	1.292612	0.600804
O	-0.439997	2.270419	-0.165874
O	-0.509398	1.35715	1.832917
C	-0.552547	-1.118087	0.735479
N	-0.6093	-2.131422	1.344436
N	-0.425761	-1.358158	-2.060299
O	0.604556	-2.030924	-2.063181
O	-1.512825	-1.730486	-2.500397
H	-2.055864	0.0	0.0
