14

C	0.0	0.0	0.0
C	-0.313866	-0.061585	-1.501152
Cl	1.796678	0.0	0.0
H	0.028216	0.849698	-1.978644
H	-1.390662	-0.201581	-1.610121
N	-0.378994	1.371887	0.546601
O	-0.444637	1.468052	1.766526
O	-0.400058	2.310818	-0.247789
C	-0.640277	-1.012291	0.827557
N	-0.660781	-1.92779	1.583102
N	0.364718	-1.190102	-2.186268
O	0.880309	-0.948943	-3.280619
O	0.292448	-2.303188	-1.670665
H	-2.147781	0.0	0.0
