14

C	0.0	0.0	0.0
C	-0.32781	0.373867	-1.472748
Cl	1.798384	0.0	0.0
H	-1.320981	0.792668	-1.545379
H	0.440745	1.046747	-1.845152
N	-0.448402	1.138316	0.874807
O	-0.433832	2.25766	0.34255
O	-0.498327	0.927171	2.087436
C	-0.602954	-1.235359	0.456635
N	-0.641047	-2.361957	0.825534
N	-0.303294	-0.840089	-2.337735
O	0.793302	-1.316984	-2.62808
O	-1.386752	-1.278765	-2.723202
H	-2.063706	0.0	0.0
