14

C	0.0	0.0	0.0
C	-0.445114	0.127852	-1.446477
Br	1.982607	0.0	0.0
H	-0.042728	1.03617	-1.899389
H	-0.108988	-0.741299	-2.013938
H	-1.538704	0.169295	-1.454404
C	-0.424195	1.207939	0.825874
H	-0.069218	1.107689	1.855789
H	-0.030405	2.139636	0.412821
H	-1.518066	1.232167	0.821837
N	-0.469282	-1.260121	0.518425
H	-1.480465	-1.263699	0.355659
H	-0.33598	-1.275848	1.524576
Br	-3.922475	0.0	0.0
