17

C	-0.407649	0.003886	-1.475179
C	0.0	0.0	0.0
Br	0.244063	-1.637808	-2.284188
H	1.097476	0.0	0.0
N	-1.931775	0.102926	-1.673737
O	-2.590937	-0.893845	-1.917255
O	-2.376508	1.230273	-1.452605
N	0.114142	1.094747	-2.24023
H	1.120284	1.156942	-2.146505
H	-0.342865	1.965135	-2.007251
N	-0.377047	-1.272479	0.718619
O	0.493115	-1.743653	1.450772
O	-1.509036	-1.724133	0.567079
N	-0.643647	1.047124	0.757792
H	-0.682813	1.908001	0.230995
H	-0.104612	1.214492	1.601416
Br	2.756409	0.0	0.0
