15

C	-0.436702	-0.020347	-1.45414
C	0.0	0.0	0.0
F	0.182027	0.928649	-2.148752
H	1.09691	0.0	0.0
N	-0.149004	-1.348584	-2.138207
O	-0.780429	-1.546718	-3.172376
O	0.725628	-2.044983	-1.643014
N	-1.940919	0.183931	-1.608205
O	-2.625985	-0.660686	-1.045107
O	-2.317684	1.151856	-2.250505
C	-0.473244	-1.145582	0.769822
N	-0.805856	-2.065453	1.419567
C	-0.461165	1.253533	0.595363
N	-0.835128	2.265447	1.060091
Cl	3.093731	0.0	0.0
