15

C	-0.379983	-0.05731	-1.469503
C	0.0	0.0	0.0
F	0.089903	1.003825	-2.110863
H	1.097013	0.0	0.0
N	0.131803	-1.305583	-2.171941
O	0.52976	-2.227798	-1.478134
O	0.06169	-1.252865	-3.393695
N	-1.894163	-0.100205	-1.674655
O	-2.436818	0.945503	-1.998154
O	-2.419464	-1.185104	-1.453548
C	-0.517919	-1.101057	0.802951
N	-0.943165	-1.926991	1.521519
C	-0.465646	1.275359	0.545009
N	-0.840246	2.29491	0.992299
Cl	3.068083	0.0	0.0
