15

C	-0.37636	0.018969	-1.468721
C	0.0	0.0	0.0
F	0.021807	1.149142	-2.043229
H	1.100077	0.0	0.0
N	0.225886	-1.158074	-2.224423
O	-0.2001	-2.248403	-1.863787
O	1.025594	-0.908341	-3.107025
N	-1.877829	-0.10062	-1.743399
O	-2.636317	-0.117013	-0.783355
O	-2.176951	-0.129324	-2.931896
C	-0.472125	-1.168267	0.730374
N	-0.831054	-2.113245	1.328099
C	-0.448953	1.237453	0.632185
N	-0.802964	2.236892	1.136689
Cl	3.068813	0.0	0.0
