15

C	-0.543482	-0.015546	-1.416754
C	0.0	0.0	0.0
F	-1.864065	-0.251372	-1.462224
H	1.094505	0.0	0.0
N	-0.27229	1.31412	-2.103292
O	0.903623	1.533155	-2.344024
O	-1.241525	2.024419	-2.321907
N	0.103023	-1.077726	-2.287585
O	0.687166	-1.986739	-1.718253
O	-0.101983	-0.947587	-3.488051
C	-0.473463	-1.176865	0.729035
N	-0.859651	-2.100475	1.34274
C	-0.471331	1.213194	0.67045
N	-0.841497	2.192271	1.203393
Cl	3.088191	0.0	0.0
