15

C	-0.367432	0.05295	-1.470473
C	0.0	0.0	0.0
F	-0.048319	1.230944	-1.998582
H	1.095837	0.0	0.0
N	0.325648	-1.04716	-2.26201
O	0.029506	-2.178162	-1.898109
O	1.057163	-0.707682	-3.173117
N	-1.855188	-0.160001	-1.76359
O	-2.136637	-0.252973	-2.953062
O	-2.625661	-0.172869	-0.813128
C	-0.462334	-1.194513	0.698011
N	-0.798093	-2.129099	1.324978
C	-0.476672	1.208146	0.666412
N	-0.843618	2.184765	1.205314
Cl	3.067688	0.0	0.0
