15

C	-0.498425	-0.16153	-1.428851
C	0.0	0.0	0.0
F	-1.770476	-0.584291	-1.493782
H	1.098701	0.0	0.0
N	-0.387526	1.142763	-2.193675
O	0.704087	1.683823	-2.12499
O	-1.383914	1.509658	-2.798652
N	0.32204	-1.190045	-2.198231
O	0.571211	-2.211855	-1.576752
O	0.563838	-0.94096	-3.372169
C	-0.471342	-1.108829	0.828366
N	-0.884702	-1.960879	1.523106
C	-0.505397	1.257159	0.547797
N	-0.948298	2.256353	0.977363
Cl	3.09468	0.0	0.0
