15

C	-0.493192	0.174344	-1.429031
C	0.0	0.0	0.0
F	-1.763991	0.599317	-1.500745
H	1.108257	0.0	0.0
N	0.330129	1.207552	-2.185982
O	0.568268	0.972761	-3.363369
O	0.585156	2.220652	-1.552201
N	-0.377024	-1.130124	-2.199263
O	0.729734	-1.644109	-2.164043
O	-1.385394	-1.525934	-2.766596
C	-0.493812	-1.267343	0.535291
N	-0.90745	-2.284367	0.953583
C	-0.470847	1.098396	0.841721
N	-0.867543	1.943556	1.553301
Cl	3.07755	0.0	0.0
