15

C	-0.566843	0.100886	-1.387462
C	0.0	0.0	0.0
F	-1.890257	0.014636	-1.428308
H	1.099975	0.0	0.0
N	-0.138771	1.461245	-1.969839
O	1.04693	1.565578	-2.255011
O	-1.008335	2.310497	-2.038381
N	-0.018071	-0.939313	-2.352171
O	-0.784827	-1.287303	-3.234518
O	1.131954	-1.327984	-2.180611
C	-0.240028	-1.349636	0.535502
N	-0.031702	-2.505706	0.669258
C	-0.318847	1.068509	0.945663
N	-0.136465	1.676845	1.945296
Cl	2.917875	0.0	0.0
