15

C	-0.372093	0.014702	-1.469347
C	0.0	0.0	0.0
F	-0.054671	1.178748	-2.030252
H	1.106349	0.0	0.0
N	0.317107	-1.106107	-2.234437
O	1.044251	-0.792779	-3.158988
O	0.020821	-2.226791	-1.838652
N	-1.860912	-0.203358	-1.751322
O	-2.630676	-0.16296	-0.799715
O	-2.145247	-0.346337	-2.935401
C	-0.463225	-1.173265	0.731656
N	-0.799975	-2.086935	1.388559
C	-0.469584	1.227753	0.63563
N	-0.829491	2.222243	1.146261
Cl	3.064642	0.0	0.0
