15

C	-0.411014	0.041374	-1.460544
C	0.0	0.0	0.0
F	0.094575	1.11373	-2.056053
H	1.092503	0.0	0.0
N	0.021692	-1.184805	-2.248283
O	-0.169774	-1.088596	-3.454869
O	0.500442	-2.125348	-1.633472
N	-1.929088	0.081787	-1.62466
O	-2.49904	-0.987769	-1.441462
O	-2.428888	1.167145	-1.879167
C	-0.510426	-1.15125	0.736265
N	-0.9122	-2.040985	1.389839
C	-0.449768	1.240003	0.635014
N	-0.801891	2.234808	1.150638
Cl	3.070396	0.0	0.0
