15

C	-0.547666	0.014837	-1.415466
C	0.0	0.0	0.0
F	-1.88541	0.100576	-1.44737
H	1.094833	0.0	0.0
N	-0.020102	1.17073	-2.246931
O	-0.405751	1.162674	-3.410523
O	0.683238	2.001282	-1.69108
N	-0.134129	-1.246457	-2.161798
O	1.020254	-1.259564	-2.560639
O	-0.988957	-2.115112	-2.264467
C	-0.46462	-1.217544	0.667377
N	-0.837074	-2.195047	1.201684
C	-0.488788	1.173128	0.72463
N	-0.906929	2.095254	1.319677
Cl	3.089727	0.0	0.0
