12

C	-0.316184	0.013525	-1.494575
C	0.0	0.0	0.0
Br	-2.245942	0.310983	-1.795674
H	1.09579	0.0	0.0
H	-0.117774	-0.969128	-1.92411
H	-0.339699	0.930447	0.464396
N	0.435472	0.998602	-2.228745
H	0.299783	1.905194	-1.792478
H	1.4216	0.764204	-2.100949
C	-0.553526	-1.139695	0.713685
N	-1.002993	-2.056702	1.293225
Cl	3.335083	0.0	0.0
