18

C	-0.549256	0.048574	-1.423297
C	0.0	0.0	0.0
F	0.19974	0.940964	-2.155392
H	1.097395	0.0	0.0
N	-0.289218	-1.304901	-2.10339
O	-1.252	-2.054296	-2.28775
O	0.872571	-1.557123	-2.380769
N	-1.916985	0.363578	-1.512991
H	-2.455524	-0.420903	-1.846022
H	-2.230212	0.707328	-0.614652
C	-0.499397	-1.226469	0.745614
H	-0.077052	-2.13871	0.32135
H	-1.590917	-1.292821	0.735318
H	-0.160858	-1.173745	1.783263
N	-0.520839	1.216913	0.657708
H	-0.028059	2.005927	0.247543
H	-0.211575	1.181208	1.623313
Cl	3.53426	0.0	0.0
