18

C	-0.545633	0.032385	-1.421188
C	0.0	0.0	0.0
F	-0.109905	1.119272	-2.095039
H	1.094377	0.0	0.0
N	0.013107	-1.178055	-2.227768
O	0.991497	-1.008472	-2.938477
O	-0.599873	-2.24009	-2.086174
N	-1.973419	0.024927	-1.470507
H	-2.300183	-0.921917	-1.320999
H	-2.26092	0.324215	-2.395878
C	-0.464499	-1.224935	0.783751
H	-0.028204	-1.16344	1.783275
H	-0.135737	-2.162544	0.334737
H	-1.556207	-1.243018	0.887374
N	-0.406517	1.265602	0.607352
H	-1.269005	1.154491	1.124568
H	0.327519	1.559117	1.237562
Cl	3.44374	0.0	0.0
