18

C	-0.478036	0.027792	-1.451413
C	0.0	0.0	0.0
F	-0.044108	1.15707	-2.075241
H	1.094241	0.0	0.0
N	0.155442	-1.131798	-2.259681
O	1.166323	-0.912323	-2.908145
O	-0.436554	-2.212913	-2.180959
N	-1.898229	-0.002573	-1.573521
H	-2.150437	0.159156	-2.542429
H	-2.231448	-0.919154	-1.304793
C	-0.505599	-1.21655	0.761277
H	-1.59439	-1.185801	0.881839
H	-0.059592	-1.181163	1.755104
H	-0.221141	-2.155086	0.284593
N	-0.431109	1.221818	0.675344
H	0.218917	1.960876	0.437571
H	-1.350857	1.485219	0.338575
Cl	3.460678	0.0	0.0
