18

C	-0.584117	-0.030376	-1.397965
C	0.0	0.0	0.0
F	-1.975554	-0.078755	-1.2782
H	1.090826	0.0	0.0
N	-0.334404	1.273366	-2.151977
O	0.649717	1.928123	-1.85677
O	-1.112634	1.511388	-3.074888
N	-0.103952	-1.0382	-2.246135
H	0.145607	-1.880464	-1.755178
H	-0.746474	-1.212829	-3.006832
C	-0.424939	-1.252615	0.771136
H	-1.514366	-1.335489	0.827375
H	-0.021933	-2.17373	0.341365
H	-0.01733	-1.176633	1.781541
N	-0.487924	1.22308	0.641871
H	0.285875	1.658696	1.128217
H	-1.220352	1.007927	1.307163
Cl	3.443356	0.0	0.0
