17
Coordinates from ORCA-job run
  C   -0.35417090327221      0.02227911985217     -0.41856208251446
  C   0.78236259609035     -0.35732734023384      0.55513391046873
  F   0.17852728913809     -0.02947729366150     -1.70271406083289
  H   0.38805810561332     -0.42225497341896      1.57143103505877
  C   -0.85023715800676      1.43358374096976     -0.17940386530799
  H   -0.07120345760021      2.16018459715575     -0.41234627263372
  H   -1.16483164732737      1.57684675991487      0.85593903519467
  H   -1.69990049584944      1.62349758654796     -0.83727434051608
  C   -1.45587013409973     -1.01602501447679     -0.33109429851112
  H   -1.06919546777534     -2.01120032604983     -0.55794108875589
  H   -2.22572897368017     -0.77382884235181     -1.06580734375459
  H   -1.91163340035699     -1.02378896916518      0.66161330047610
  N   1.81132211866241      0.74452504686963      0.59585264516193
  O   2.64590437095523      0.76962319526173     -0.29971927572172
  O   1.67969132145495      1.55794349775289      1.50664866217667
  C   1.42148975341446     -1.61016694095109      0.17265247319963
  N   1.89341608263943     -2.64641384401576     -0.11240843318803
