17
Coordinates from ORCA-job run
  C   -0.39953662082419     -0.19822317369391     -0.51988287096079
  C   0.91935769274703     -0.62523416954963      0.17136249528628
  F   -0.40472427715643     -0.97558577536529     -1.68387997161790
  H   0.91231326431784     -1.71204127075775      0.27199395589518
  C   -0.41891648192685      1.25494151583260     -0.93495088119950
  H   -0.34476339657620      1.91460071203910     -0.07002254091171
  H   0.40854712853697      1.47032378876948     -1.61225374028296
  H   -1.35580222989716      1.45811450246740     -1.45687849465952
  C   -1.60064458616861     -0.60079106099203      0.30975768811729
  H   -1.53628858131128     -1.64744982281961      0.61223693935234
  H   -1.69597253711524      0.01720401287714      1.20390014826626
  H   -2.49710782779258     -0.46828024324818     -0.29842095039773
  N   0.96245265208820     -0.07867402870800      1.57379156654269
  O   0.60636659841238     -0.84808435114115      2.46118119343653
  O   1.29818940975448      1.09316711299424      1.71087304730252
  C   2.10039420346074     -0.19277574342159     -0.56364696487205
  N   3.04613558945089      0.13878799471718     -1.17516061929691
