17
Coordinates from ORCA-job run
  C   -0.60861840434265      0.00847040641399      0.16406198552925
  C   0.79434959857094     -0.55881431962922      0.47390174909103
  F   -1.23744041341008      0.09987092865347      1.40662821752484
  H   0.67741933297811     -1.50157326592038      1.01271663410240
  C   -1.37677672838972     -0.99684550098272     -0.67156403752165
  H   -1.39279389365055     -1.97253477786977     -0.18091920242833
  H   -0.94147887768344     -1.10282839651378     -1.66666062529690
  H   -2.40635912419927     -0.65008497890313     -0.77624790380476
  C   -0.58430913233451      1.38978944029773     -0.45256647718912
  H   -0.13194099474770      2.11356689382249      0.22423033329319
  H   -1.61204395805495      1.69782501008392     -0.65324542294179
  H   -0.02619719930700      1.39313894593621     -1.39052692437295
  N   1.53020942205402      0.35293280423107      1.42645871542015
  O   1.46060247345570      0.05495509788710      2.61280086240859
  O   2.09989428804301      1.32526540992832      0.94154380911391
  C   1.58052030882839     -0.74136317039602     -0.73726311442744
  N   2.17696330218969     -0.91177052703928     -1.73434859850041
