14

C	-0.471483	0.088387	-1.466585
C	0.0	0.0	0.0
Cl	0.04822	1.691889	-2.083378
H	1.093322	0.0	0.0
C	0.138322	-0.937892	-2.317355
N	0.587742	-1.730936	-3.059205
C	-1.932946	0.014301	-1.567894
N	-3.106022	-0.022777	-1.637398
N	-0.426121	-1.300228	0.621761
O	-0.845408	-2.17653	-0.132587
O	-0.27635	-1.393309	1.831958
C	-0.529569	1.090217	0.799376
N	-0.963877	1.976936	1.436781
Cl	3.063683	0.0	0.0
