14

C	-0.486675	-0.018694	-1.465497
C	0.0	0.0	0.0
Cl	0.403016	-1.233212	-2.424229
H	1.096495	0.0	0.0
C	-1.930636	-0.27038	-1.564396
N	-3.092733	-0.417073	-1.663208
C	-0.215743	1.298232	-2.055862
N	-0.042958	2.357244	-2.535893
N	-0.41744	-1.232499	0.756446
O	-0.214282	-1.198989	1.962657
O	-0.879572	-2.174933	0.120275
C	-0.523189	1.161405	0.699492
N	-0.959809	2.111647	1.236823
Cl	3.071239	0.0	0.0
