13

C	-0.612796	0.042183	-1.363282
C	0.0	0.0	0.0
F	-0.373658	-1.150493	-1.999353
H	1.087326	0.0	0.0
H	-1.687448	0.229447	-1.385948
H	-0.289368	-0.93938	0.475027
N	-0.040313	1.112339	-2.274059
O	0.887338	1.804391	-1.883734
O	-0.586723	1.178864	-3.377722
N	-0.541263	1.071193	0.826993
O	-1.063996	2.042125	0.259637
O	-0.438967	0.964481	2.048599
F	2.499258	0.0	0.0
