13

C	-0.534072	-0.008108	-1.401642
C	0.0	0.0	0.0
F	0.213829	-0.736475	-2.260666
H	1.089086	0.0	0.0
H	-1.5722	-0.33808	-1.485559
H	-0.337792	0.875688	0.550261
N	-0.555856	1.425833	-1.908223
O	-1.33606	2.173899	-1.322553
O	0.152118	1.726141	-2.858496
N	-0.48899	-1.167309	0.731908
O	-0.471409	-1.113955	1.962253
O	-0.854237	-2.159447	0.089048
F	2.497455	0.0	0.0
