13

C	-0.44026	-0.065646	-1.421242
C	0.0	0.0	0.0
F	-0.118535	1.04301	-2.131677
H	1.088496	0.0	0.0
H	0.033699	-0.93356	-1.888293
H	-0.303547	-0.902891	0.530419
N	-1.933197	-0.309983	-1.603171
O	-2.378783	-1.267265	-0.974061
O	-2.56472	0.393187	-2.377573
N	-0.590719	1.134341	0.727425
O	-1.517814	1.761977	0.202558
O	-0.133567	1.382053	1.840009
F	2.524526	0.0	0.0
