13

C	-0.366813	0.046651	-1.444361
C	0.0	0.0	0.0
F	-0.151468	1.314871	-1.921734
H	1.090955	0.0	0.0
H	0.178372	-0.666917	-2.055102
H	-0.413984	0.836558	0.556121
N	-1.838077	-0.213516	-1.718817
O	-2.651622	0.225375	-0.909326
O	-2.116044	-0.789095	-2.769591
N	-0.469034	-1.239153	0.601769
O	-0.634239	-2.212109	-0.147261
O	-0.62433	-1.274595	1.821482
F	2.509161	0.0	0.0
