13

C	-0.436262	-0.079021	-1.421392
C	0.0	0.0	0.0
F	-0.087536	0.999957	-2.160745
H	1.088498	0.0	0.0
H	0.015036	-0.971003	-1.864128
H	-0.290549	-0.909411	0.526814
N	-1.936257	-0.289484	-1.599072
O	-2.410151	-1.210533	-0.937741
O	-2.545579	0.402837	-2.400594
N	-0.605941	1.116784	0.732052
O	-0.247889	1.27549	1.897503
O	-1.444861	1.821243	0.158867
F	2.524766	0.0	0.0
