13

C	-0.415563	0.118438	-1.420879
C	0.0	0.0	0.0
F	-1.782193	0.029338	-1.61743
H	1.089674	0.0	0.0
H	-0.050497	1.022137	-1.897605
H	-0.395551	-0.898679	0.466265
N	0.171542	-1.036541	-2.187811
O	-0.132554	-2.163191	-1.806008
O	0.86751	-0.770144	-3.163897
N	-0.475386	1.153324	0.762683
O	-0.523776	2.251608	0.199343
O	-0.749961	0.97793	1.95119
F	2.500362	0.0	0.0
