13

C	-0.384239	-0.178938	-1.42885
C	0.0	0.0	0.0
F	-0.148438	0.990361	-2.107197
H	1.089718	0.0	0.0
H	0.13437	-0.995144	-1.923287
H	-0.405413	0.916638	0.419819
N	-1.86551	-0.444101	-1.640736
O	-2.657086	0.142829	-0.90679
O	-2.171542	-1.180628	-2.577089
N	-0.469944	-1.123394	0.797157
O	-0.660802	-2.199992	0.213765
O	-0.597957	-0.964943	2.00979
F	2.509111	0.0	0.0
