13

C	-0.539868	0.105314	-1.385194
C	0.0	0.0	0.0
F	-1.894753	0.337686	-1.423876
H	1.089506	0.0	0.0
H	-0.03111	0.92648	-1.893437
H	-0.316466	0.888801	0.547921
N	-0.270203	-1.102694	-2.262416
O	-1.226664	-1.734427	-2.691698
O	0.910708	-1.303764	-2.509106
N	-0.522641	-1.147066	0.742788
O	-0.760834	-0.992213	1.942562
O	-0.63826	-2.221159	0.147041
F	2.503833	0.0	0.0
