15
Coordinates from ORCA-job run
  C   -0.59777855721784      0.18709645618884      0.01597684244144
  C   0.74468263931204      0.06676249526881     -0.21511424040968
  N   -1.37853392077686      1.12199249324291     -0.55408640738638
  H   -0.98788936938798      1.70762455403760     -1.27623004054760
  H   -2.37608030266217      1.04486521480521     -0.46354014924042
  C   -1.27943195131264     -0.73657498425135      0.98790094053665
  H   -1.48099661929195     -1.69716192707177      0.51127379456246
  H   -0.66177208060499     -0.92887161954116      1.86422468558623
  H   -2.21846152045340     -0.29481996599019      1.32474208053787
  N   1.49590749981513      0.81625520312492     -1.17523998194586
  O   2.64328181764233      0.45626989159539     -1.42077743512433
  O   0.92358784140804      1.76896147085645     -1.72490484830567
  N   1.52700163463102     -0.91828926947781      0.51458386664869
  O   1.19622917600715     -2.10060494358992      0.40489388173089
  O   2.45025371289214     -0.49250506919794      1.20629701091569
