15
Coordinates from ORCA-job run
  C   -0.59758466081410      0.18896119242463     -0.01975047605055
  C   0.73987535416162      0.00462280815592     -0.24022095735583
  N   -1.34517390451612      1.10455342623978     -0.65858102063095
  H   -0.89515448672742      1.75965184528097     -1.27916203511955
  H   -2.28578371540157      1.27456488105688     -0.35016649445430
  C   -1.32229939469833     -0.68456622618819      0.96733477593882
  H   -0.99943371955144     -1.72279607139751      0.89854614913963
  H   -2.39638704827128     -0.64984739075917      0.77896395835168
  H   -1.12171474987936     -0.34514165100421      1.98454016030961
  N   1.44984918491485     -1.06976207242886      0.43535349370854
  O   1.45126172521667     -1.06264663909000      1.66809825660539
  O   1.97982693483245     -1.92012300072080     -0.27758361477394
  N   1.56529155941684      0.81369398174082     -1.08324845757332
  O   0.99616455306342      1.65126433537885     -1.79906063800608
  O   2.78126236825377      0.65657058131089     -1.02606310008914
