15
Coordinates from ORCA-job run
  C   -0.62333037162807     -0.07215499019499      0.01952967821014
  C   0.69830170397967     -0.07914484440339     -0.33058059712978
  N   -1.59470287036253     -0.67094539561080     -0.69449303267508
  H   -1.32813612634996     -1.26903188430299     -1.46191509220012
  H   -2.49917813546894     -0.78957719036868     -0.27265244452624
  C   -1.07228307378651      0.68063624583099      1.24194611030346
  H   -0.56123630364454      1.63834519380157      1.33497156626114
  H   -0.85043237294375      0.10292522149960      2.14049166535544
  H   -2.14494187455723      0.87220540072032      1.18833052459241
  N   1.66302087783597      0.68894969396472      0.44070494775125
  O   2.28063702983423      1.56665561627993     -0.15955539777910
  O   1.77409695912495      0.42205903050854      1.63888184561348
  N   1.27169735367607     -0.82138423136693     -1.41158018052453
  O   0.48931079905962     -1.37344977798439     -2.19917605053461
  O   2.49517640523102     -0.89508808837348     -1.47690354271785
