15
Coordinates from ORCA-job run
  C   -0.57830371470409      0.24151368700187      0.02472570531918
  C   0.73754805268958     -0.01419643574048     -0.24534442390607
  N   -1.29461250321087      1.21098302005680     -0.57161945630633
  H   -0.88263306431553      1.71710944317739     -1.34052009978617
  H   -2.29085059924558      1.22891880973694     -0.44315887720933
  C   -1.29940189685480     -0.56231471174581      1.07191951123496
  H   -1.60019203777562     -1.52710202747490      0.66057292430822
  H   -0.66717009400303     -0.75703350191676      1.93730049113152
  H   -2.18414858740146     -0.02232387856125      1.41259042499388
  N   1.51503527355425      0.61059888949330     -1.27125124752259
  O   1.00800278848001      1.57832383876331     -1.85757696994209
  O   2.61702392873781      0.13677205344898     -1.53121920312029
  N   1.45801382723287     -1.02256654506014      0.51557342175187
  O   2.43748659859115     -0.64185207355233      1.15418211591016
  O   1.02420202822531     -2.17583056762692      0.48282568314308
