15
Coordinates from ORCA-job run
  C   -0.60715561991455      0.12407279653140     -0.06920406146525
  C   0.76002941256283      0.07653249706997     -0.16093328346882
  N   -1.38492576881933      0.86060196578066     -0.87964208080769
  H   -0.96773204638915      1.35919377207021     -1.65011078681435
  H   -2.38178728919026      0.74173339244170     -0.84558760254321
  C   -1.32681700225699     -0.64564298614691      1.00402287403554
  H   -2.33179858506187     -0.24194765600427      1.13810848356364
  H   -1.39108049055311     -1.70013971308897      0.73509084371814
  H   -0.80706704444040     -0.58783287496146      1.95960320773872
  N   1.54268114551079     -0.66840426137022      0.81010509896512
  O   2.43369323506376     -0.05646598479285      1.39476452605944
  O   1.24505077010606     -1.85079033455163      0.99441576942345
  N   1.53793391383833      0.69757956000877     -1.19542536989727
  O   0.96765026245377      1.53158589963014     -1.91372970093252
  O   2.71032510709013      0.35892392738345     -1.32047791757493
