15
Coordinates from ORCA-job run
  C   -0.59418652301927      0.08970870056003      0.00193489117267
  C   0.76604849423142      0.12316998483539     -0.01999365799628
  N   -1.33695064712261      0.89497814554527     -0.81726793305871
  H   -2.27041255493777      0.56670638569583     -1.01114909127075
  H   -0.88341819919844      1.27452433473682     -1.63433083567025
  C   -1.39616447896114     -0.54135126069245      1.10456039814164
  H   -1.80704968280100      0.25125419428548      1.73274533969081
  H   -0.80388850475294     -1.20232383631774      1.72433324443147
  H   -2.23064997773660     -1.10619532385971      0.67996837204115
  N   1.64217334655789     -0.80421720720802      0.68333313420782
  O   1.38840282034832     -1.08645864151478      1.85090559563961
  O   2.62116529858178     -1.17535512566239      0.04379742204601
  N   1.46924971270335      0.72910802745393     -1.16691357643000
  O   2.36243485863227      1.52059414768521     -0.87194742108080
  O   1.07324603747474      0.46585747445712     -2.29997588186437
