15
Coordinates from ORCA-job run
  C   -0.59767689186176      0.19204628843144     -0.00832483529692
  C   0.75032004461895      0.05782753879140     -0.19175531550289
  N   -1.35120865838417      1.12582275979757     -0.61632479504053
  H   -0.93170826664901      1.69415344779746     -1.33620849742574
  H   -2.35187385849721      1.05175993973368     -0.56446592579831
  C   -1.31716736174515     -0.71532982025430      0.95143462045112
  H   -2.26753976723404     -0.26807629701837      1.24658149162996
  H   -0.73229951246457     -0.89336388066554      1.85307781602389
  H   -1.50206707741236     -1.68331165227203      0.48300927008784
  N   1.49911179516581     -0.92148299235649      0.58013132238359
  O   1.17390671457415     -2.10467430655169      0.46374773339897
  O   2.38965718911650     -0.48985249631643      1.31005441959620
  N   1.54284786552877      0.79126824627338     -1.13054675580567
  O   0.99696818650910      1.73700407412065     -1.71783914539174
  O   2.69872959873499      0.42520915048926     -1.32157140330977
