15
Coordinates from ORCA-job run
  C   -0.60032199595342      0.19194199062051      0.00522531159163
  C   0.72455273547920      0.00582327380277     -0.27221541121918
  N   -1.39804561971396      1.04330664871291     -0.66560343410946
  H   -0.97246723468251      1.69869327416279     -1.30341940799573
  H   -2.30543478262375      1.25351448343372     -0.28876643047789
  C   -1.26122789756326     -0.64840224508163      1.06249269875824
  H   -0.60836165720733     -0.78691198084506      1.92381320680527
  H   -1.50796966349831     -1.63298668153530      0.66364680389093
  H   -2.17928132925278     -0.16961298055266      1.40820550483373
  N   1.48090048189319      0.70303552035634     -1.26704040889700
  O   0.92430260439397      1.64505300669891     -1.84928284465754
  O   2.62282245967811      0.31765008241278     -1.49881781814302
  N   1.49875347137263     -0.96206378795528      0.49110154182223
  O   1.15520350118383     -2.14273826235889      0.42683433442435
  O   2.42657492649439     -0.51730234187194      1.16482635337345
