15
Coordinates from ORCA-job run
  C   -0.60971024683425     -0.14663321753983     -0.01222518435706
  C   0.72627983600572     -0.02304218642942     -0.27612843675325
  N   -1.44592232912736     -0.93487650542693     -0.71179664099972
  H   -2.36582196449894     -1.10808026572713     -0.34656273822411
  H   -1.05843575609394     -1.56367544150832     -1.39861526028346
  C   -1.23483327044988      0.66135451992806      1.09194322630296
  H   -2.31517080129650      0.71498955693691      0.94940210953610
  H   -0.84583041890261      1.67871518015428      1.11517868629892
  H   -1.01866497175275      0.20488128700834      2.05894422973114
  N   1.53376811003554      0.92938328063003      0.46927335808028
  O   2.09199347949128      1.81206645907523     -0.17987620550120
  O   1.58191981971277      0.79731322202827      1.69386975762452
  N   1.46194842338837     -0.79182066750219     -1.23322405368349
  O   2.68703772464970     -0.71965601201081     -1.21407534229798
  O   0.81044236567285     -1.51191920961650     -2.00410750547366
