15
Coordinates from ORCA-job run
  C   -0.59634873452581      0.19584119221580     -0.01447775760337
  C   0.73788689034394      0.00253814348979     -0.24025373000548
  N   -1.36187319752991      1.04980076745700     -0.71874690942112
  H   -0.90805914825684      1.69654983477629     -1.34573659710682
  H   -2.28566696271129      1.25810416287852     -0.38344782460874
  C   -1.30744246894397     -0.63567234241067      1.01686794088739
  H   -1.54544265019051     -1.61570273094888      0.60080748630045
  H   -2.23400451740439     -0.14534621508490      1.32054282129279
  H   -0.69610359284567     -0.79176375787421      1.90475000323259
  N   1.47985366871305     -0.95914370646352      0.55985660560541
  O   2.39845565557568     -0.51936193128611      1.24908017070060
  O   1.11863220666991     -2.13646150935614      0.50786294068481
  N   1.53020576175740      0.68640188324169     -1.21662564750842
  O   0.99299511328321      1.61925752076434     -1.83145464617213
  O   2.67691197606518      0.29395868860099     -1.40902485627797
