15
Coordinates from ORCA-job run
  C   -0.59201092628573      0.20819412747629     -0.00665714758775
  C   0.73447306175563     -0.01503728733846     -0.25047795935062
  N   -1.35074486019500      1.07024870215707     -0.70804164597461
  H   -2.26646661182378      1.29801888352063     -0.36360341625482
  H   -0.89550608122944      1.69926402113533     -1.35167413164596
  C   -1.30269321138500     -0.59285762747469      1.04911698273984
  H   -1.56253222455830     -1.57618790425920      0.65469721015581
  H   -0.68107779156710     -0.74317470717071      1.93089319787679
  H   -2.21649096567789     -0.08161866010093      1.35679321415876
  N   1.47070923910246     -0.98166452682270      0.54828843633427
  O   2.41763146164164     -0.55409649116395      1.20617045924157
  O   1.07882299411541     -2.15014648653086      0.52649143798087
  N   1.52138197615352      0.63501135457279     -1.25484863635511
  O   2.65139300300563      0.20772116904505     -1.47028803672195
  O   0.99611093694796      1.57632543295436     -1.86685996459710
