15
Coordinates from ORCA-job run
  C   -0.61359258115039      0.12784129830207     -0.08099648704483
  C   0.74995526354437      0.14334609519321     -0.11306220940570
  N   -1.39664130872274      0.86641741471739     -0.88977976390389
  H   -2.38534317211618      0.68936986726105     -0.90436258525235
  H   -0.97107481957200      1.37370711737665     -1.64995039003865
  C   -1.32415755358248     -0.76597611955615      0.89641906520449
  H   -0.75879717275786     -0.88564974869352      1.81818896627766
  H   -2.29634612560409     -0.34016627008043      1.15158744418297
  H   -1.47848121350099     -1.75286184460432      0.45238224332702
  N   1.52113245110896     -0.69947154082815      0.79154364655358
  O   1.95164175029977     -1.75523665988999      0.32826757042679
  O   1.66714843745360     -0.30526963760297      1.94908549139615
  N   1.56437017997233      0.89298065775117     -1.01306213800708
  O   0.98794762397833      1.58499991976509     -1.86440954476915
  O   2.78323824064934      0.82596945088892     -0.87185130894700
