15
Coordinates from ORCA-job run
  C   -0.59873746454300      0.22341357512238      0.00903821785092
  C   0.73641404924854      0.05896369453112     -0.20781522032714
  N   -1.36397526707696      1.13601305841113     -0.62000111212598
  H   -0.96614290948405      1.64176305868769     -1.39665714581130
  H   -2.36313726327591      1.06839909438999     -0.53893711446275
  C   -1.28197229936134     -0.65100478328186      1.02311170114077
  H   -1.52909940409607     -1.61695320976160      0.57565607064713
  H   -0.64102556916627     -0.83036589732710      1.88561969747740
  H   -2.19927755393367     -0.17834244338612      1.37698495575459
  N   1.47982702360985     -0.94191475519114      0.54754135781706
  O   2.05008683985875     -0.56225503079347      1.57036251933602
  O   1.46921476268430     -2.09220895755051      0.10883052661139
  N   1.52781887526070      0.73347933821014     -1.18190023335644
  O   0.96936142560254      1.59722813127641     -1.87308959999898
  O   2.71064475467260      0.41278512666294     -1.27674462055269
