15
Coordinates from ORCA-job run
  C   -0.59131663506324      0.21069719015522      0.00196008809677
  C   0.73087817006307     -0.01680848182266     -0.26043931327921
  N   -1.35589477322701      1.07922047610309     -0.68515821441947
  H   -0.90580296225330      1.71104002092750     -1.32971507908068
  H   -2.26490636031045      1.31092865576295     -0.32579034257133
  C   -1.29181074724558     -0.59506284427846      1.06093969855753
  H   -0.65921692808325     -0.75524027615652      1.93311316048066
  H   -2.19903394634790     -0.08205928084519      1.38472814597964
  H   -1.56180525431303     -1.57395625524262      0.66228399145601
  N   1.47279113308226     -0.99162693809623      0.52303607291793
  O   2.42615526903652     -0.57190568412813      1.17667456183464
  O   1.07811363541722     -2.15909197867943      0.49465291952962
  N   1.50885835809661      0.63834733324193     -1.26836343645730
  O   0.97861031965354      1.58342536166525     -1.87018929790939
  O   2.63638072149456      0.21109270139330     -1.49673295513542
