15
Coordinates from ORCA-job run
  C   -0.57615226860078      0.24968142386947      0.01830080426199
  C   0.70518603491230     -0.09801272692092     -0.30670546254274
  N   -1.34000491542467      1.07781080403454     -0.71818933002049
  H   -2.19956227225311      1.41769167175631     -0.32472020916939
  H   -0.90460001007461      1.59233991229921     -1.46853695085147
  C   -1.23553630329985     -0.36734055017336      1.22051333041430
  H   -0.54581511629659     -0.46105090665931      2.05834645494608
  H   -2.08173909171349      0.24342191632659      1.53986714999585
  H   -1.59381265855942     -1.36737621390891      0.97223762407050
  N   1.44919712485036     -1.01846784751798      0.53832712094059
  O   2.47860882293850     -0.58874874661246      1.05611234156418
  O   0.98412542427150     -2.14945823222390      0.69208802018030
  N   1.43461156327697      0.36810357173364     -1.44738229706703
  O   0.91562043440237      1.26677068762423     -2.12519531293166
  O   2.50987323157052     -0.16536476362714     -1.70306328379099
