15
Coordinates from ORCA-job run
  C   -0.59587496307695      0.19695639511772     -0.00237502983930
  C   0.74779817554128      0.04529871948390     -0.20557475679140
  N   -1.35017952801346      1.12374689669283     -0.62005688349695
  H   -0.93745083128083      1.66998088518610     -1.36067020064285
  H   -2.35045983148892      1.05921547594331     -0.55087827188711
  C   -1.30810166369207     -0.67755220114806      0.99261242027096
  H   -2.25111086364118     -0.21517428354243      1.28796310304225
  H   -1.50472726608486     -1.65770282392857      0.55562137130437
  H   -0.71191872598170     -0.83366322463654      1.89097573735290
  N   1.50230223766055     -0.91958281977787      0.57873276115118
  O   2.41873857767326     -0.47821789719930      1.26946500971908
  O   1.15653535374029     -2.10070671434439      0.51094205189528
  N   1.52840885561075      0.74498867517765     -1.17988112399796
  O   2.67402920372644      0.35760410250612     -1.38930221787984
  O   0.98201126930739      1.68380881446952     -1.77757397020061
