15
Coordinates from ORCA-job run
  C   -0.60913916192188      0.12890328843132     -0.07936344564445
  C   0.75280479747804      0.06446008570744     -0.17585630698472
  N   -1.39028044743529      0.82911743865442     -0.92281820262540
  H   -0.94901380823166      1.46514467729235     -1.56933395402592
  H   -2.35646344097664      0.96527001116547     -0.68385549620673
  C   -1.32381242999510     -0.67844329600862      0.96874357602513
  H   -0.78076551288412     -0.69100616482111      1.91279610366882
  H   -2.31669148145089     -0.26302082778815      1.14961524827436
  H   -1.42778464693219     -1.71077916105809      0.63156396337256
  N   1.51465617444585     -0.73923302222979      0.76672772861691
  O   1.27151030502194     -1.94688890013421      0.80806037738752
  O   2.33085223385959     -0.14648957044668      1.47019033639381
  N   1.55470511303189      0.73320280079032     -1.15584142153681
  O   2.74374499547918      0.43860493584106     -1.22861120135983
  O   0.98567731051127      1.55215770460426     -1.89201730535524
