19

C	-0.301809	0.040413	-1.483546
C	-0.011379	0.178439	0.025736
Cl	-2.035421	-0.25397	-1.808491
H	1.034485	0.500667	0.046946
N	0.063244	1.385433	-2.109179
O	-0.810012	2.210406	-2.369321
O	1.268776	1.578434	-2.250644
C	0.542675	-1.047559	-2.109978
H	0.077744	-1.99804	-1.850805
H	0.575135	-0.935723	-3.19684
H	1.532799	-1.049029	-1.632182
N	-0.108313	-1.148738	0.612814
H	-0.29791	-1.032404	1.603003
H	0.882495	-1.490663	0.516531
C	-0.911553	1.189497	0.717015
H	-0.532638	1.363287	1.728982
H	-1.928769	0.798285	0.791186
H	-0.947625	2.150561	0.199092
F	2.423905	-1.348532	0.040415
