19

C	-0.183363	0.047611	-1.475478
C	-0.024089	-0.069556	0.045449
Cl	0.313681	-1.518793	-2.206691
H	1.020925	-0.374472	0.157411
N	-1.671618	0.237637	-1.794021
O	-2.097684	1.377067	-1.608227
O	-2.358612	-0.708155	-2.158338
C	0.654159	1.147396	-2.078002
H	0.212968	2.109784	-1.817975
H	1.647062	1.074373	-1.579687
H	0.692071	1.045736	-3.165605
N	-1.041352	-0.997817	0.559948
H	-0.904444	-1.066746	1.561975
H	-0.868395	-1.921884	0.177575
C	-0.097694	1.271572	0.760864
H	0.845572	1.773418	0.537654
H	-0.983814	1.851345	0.497235
H	-0.117238	1.079598	1.840446
F	2.631958	0.887504	-0.133619
