19

C	-0.451164	-0.131601	-1.429282
C	-0.030056	-0.152943	0.037445
Cl	0.360219	-1.484094	-2.283823
H	1.057422	-0.064461	-0.042423
N	-1.950897	-0.386977	-1.613443
O	-2.66529	-0.403718	-0.609437
O	-2.374697	-0.489116	-2.760113
C	-0.109342	1.170923	-2.117269
H	0.908248	1.445777	-1.757145
H	-0.19347	1.059857	-3.19881
H	-0.808806	1.943601	-1.78179
N	-0.409184	-1.415134	0.674237
H	0.257394	-1.600288	1.412971
H	-1.322688	-1.308851	1.097244
C	-0.418101	1.129381	0.781992
H	-1.468069	1.408888	0.662788
H	-0.227978	0.964585	1.848234
H	0.278381	1.896829	0.438154
F	2.130576	1.589681	-0.502224
