19

C	-0.154681	-0.06078	-1.528037
C	0.003818	-0.113876	0.017121
Cl	0.265605	-1.670484	-2.208287
H	1.082981	-0.27162	0.132279
N	-1.632383	0.16004	-1.849323
O	-1.984697	1.306118	-2.131871
O	-2.413835	-0.781285	-1.705001
C	0.723327	0.981299	-2.169547
H	1.706222	0.898647	-1.655836
H	0.763437	0.837924	-3.252055
H	0.324908	1.972289	-1.956568
N	-0.767617	-1.137896	0.703896
H	-1.758001	-1.015411	0.519702
H	-0.515658	-2.046165	0.332836
C	-0.227874	1.265746	0.623071
H	-0.305435	1.136019	1.704668
H	0.66961	1.845827	0.408931
H	-1.134031	1.767136	0.264619
F	2.621287	0.824289	-0.157797
