19

C	-0.30135	0.090857	-1.483276
C	-0.017617	0.175822	0.031269
Cl	-2.033377	-0.196035	-1.825217
H	1.037462	0.506865	0.066895
N	0.06176	1.458178	-2.059609
O	1.266372	1.655825	-2.202277
O	-0.812538	2.293566	-2.280496
C	0.547892	-0.972375	-2.144535
H	0.583843	-0.822206	-3.226619
H	1.536527	-0.988466	-1.663921
H	0.08424	-1.932367	-1.920525
N	-0.107579	-1.171527	0.569658
H	-0.299411	-1.092512	1.563057
H	0.885024	-1.505555	0.462478
C	-0.925453	1.155889	0.756081
H	-0.969266	2.133507	0.271005
H	-0.548518	1.297777	1.773715
H	-1.939481	0.753948	0.815932
F	2.425575	-1.343972	-0.002039
