19

C	-0.222855	0.012376	-1.502618
C	0.043885	0.141064	0.017896
Cl	-1.953901	-0.36382	-1.813171
H	1.108632	0.424486	0.056524
N	0.072477	1.375433	-2.119061
O	-0.833274	2.099553	-2.523231
O	1.263723	1.679183	-2.114787
C	0.661999	-1.023002	-2.16679
H	0.729729	-0.835384	-3.241906
H	1.633035	-1.055684	-1.644295
H	0.212749	-2.003817	-2.009909
N	-0.015013	-1.12375	0.712947
H	0.913895	-1.559145	0.503866
H	-0.787883	-1.686978	0.376849
C	-0.827363	1.202641	0.678035
H	-0.762135	2.179204	0.188601
H	-1.875368	0.893694	0.690751
H	-0.492636	1.303612	1.711846
F	2.452262	-1.49785	-0.067286
