13

C	0.0	0.0	0.0
C	-0.483329	-0.384584	-1.379688
Cl	1.831577	0.0	0.0
H	-0.156476	0.327104	-2.136241
H	-0.315947	-0.744198	0.725249
H	-1.581729	-0.433371	-1.31426
N	-0.511837	1.272518	0.316493
H	-0.664228	1.426352	1.298217
H	-0.011055	2.029289	-0.121204
N	0.025351	-1.712195	-1.806725
O	0.024583	-2.614241	-0.971833
O	0.38386	-1.837307	-2.977998
Cl	-3.661882	0.0	0.0
