13

C	0.0	0.0	0.0
C	-0.501891	-0.193627	-1.412843
Cl	1.786077	0.0	0.0
H	-1.597735	-0.246026	-1.366603
H	-0.283272	-0.867243	0.600007
H	-0.16309	0.610433	-2.06161
N	-0.501118	1.266501	0.467874
H	-1.522629	1.190208	0.410169
H	-0.271254	1.359859	1.451331
N	-0.024926	-1.46471	-2.012469
O	0.291228	-1.444849	-3.202334
O	-0.009329	-2.465776	-1.3006
Cl	-3.556039	0.0	0.0
