13

C	0.0	0.0	0.0
C	-0.511977	-0.308596	-1.388799
Cl	1.831337	0.0	0.0
H	-0.226018	0.450786	-2.113924
H	-0.300201	-0.792871	0.680634
H	-1.606786	-0.377952	-1.284678
N	-0.518866	1.242601	0.403789
H	-0.711178	1.32296	1.386681
H	-0.025982	2.037877	0.031459
N	-0.003663	-1.604041	-1.903954
O	0.013098	-2.554018	-1.123793
O	0.338747	-1.656301	-3.08561
Cl	-3.711471	0.0	0.0
