13

C	0.0	0.0	0.0
C	-0.543537	-0.052868	-1.410475
Cl	1.838725	0.0	0.0
H	-1.63599	0.062267	-1.31113
H	-0.268712	-0.942941	0.473728
H	-0.284046	-0.982584	-1.909968
N	-0.515422	1.063336	0.746741
H	-0.335636	1.96537	0.337622
H	-0.285473	1.020181	1.726352
N	-0.025711	1.031961	-2.281983
O	-0.005328	2.178367	-1.831959
O	0.331947	0.726416	-3.41862
Cl	-3.778178	0.0	0.0
