18
Coordinates from ORCA-job run
  C   0.80260036127419     -0.11279812566757      0.24833115800837
  C   -0.62261477704827     -0.61650887398389     -0.02661012098762
  F   1.26558800275143     -0.87717787341950      1.28188640354433
  H   -0.51210099811297     -1.68625755147600     -0.21943868631299
  C   1.79836284497735     -0.14713321318606     -0.87992503418326
  H   1.51597104488071      0.52958010369394     -1.68168749519961
  H   2.77147869539466      0.14445429792347     -0.47905799682064
  H   1.86226211828506     -1.16117769677768     -1.27412898278503
  N   0.69808699635089      1.31313707676191      0.76673707801941
  O   0.95018367628341      1.52673254687241      1.94344318788315
  O   0.33386667257793      2.12975589593933     -0.07453530428728
  N   -1.15527303199742     -0.06337838241097     -1.32213033167623
  O   -2.01825907983971      0.80630585921042     -1.27275039197927
  O   -0.68246638492710     -0.55211575095596     -2.34707935484469
  C   -1.57350041259473     -0.35283532156467      1.12061274765856
  H   -1.76261311103636      0.71340961247668      1.23767067336462
  H   -1.14457621096679     -0.74731258425209      2.04246959971204
  H   -2.52799640625226     -0.84668001918376      0.93619285088614
