18
Coordinates from ORCA-job run
  C   0.59960209212907      0.39951455037429      0.19932780493563
  C   -0.72279459344921     -0.15661244475764     -0.32467613809287
  F   0.38131368860249      0.99050718895977      1.40673301061549
  H   -0.62697938038507     -0.30324395505626     -1.40188189987844
  C   1.70969640010695     -0.61495415763093      0.32446312989055
  H   2.62642618368945     -0.09567257433676      0.61069568372876
  H   1.87163566898117     -1.13313388425143     -0.62007152150916
  H   1.46107341175884     -1.33192089933878      1.10630027199001
  N   1.10081405886365      1.48351428658683     -0.75456058398823
  O   1.27520499639570      1.10557604445201     -1.90755718631000
  O   1.33586328581578      2.58778833388957     -0.29276175539582
  N   -1.74621756602963      0.94547091699876     -0.17014652132396
  O   -2.66520746420602      0.78074536082403      0.62401597840777
  O   -1.55737776737570      1.94372384496539     -0.86041427741132
  C   -1.17218898132985     -1.41317331507329      0.38802784563223
  H   -0.50441248639967     -2.23901042753073      0.13905543312851
  H   -1.18796159228845     -1.26764759042380      1.46798955757189
  H   -2.17848995487951     -1.68147127865102      0.06846116800895
