18
Coordinates from ORCA-job run
  C   0.60204662097277      0.41735424674252      0.14722152908183
  C   -0.73216354992657     -0.18638469044312     -0.28648904358043
  F   0.41988599446252      1.09534466125682      1.31429964237479
  H   -0.67243479496013     -0.41229997437483     -1.35251910821482
  C   1.72642269675018     -0.57606659730582      0.30787769099472
  H   2.64659730838437     -0.02950214576542      0.52361217514559
  H   1.86193282428828     -1.16065316984709     -0.60140759886500
  H   1.51219337946181     -1.23588149964633      1.14801075671775
  N   1.05775720659785      1.43112540622549     -0.90210542495301
  O   1.19716848402171      0.96946358948240     -2.02904254220359
  O   1.29352475964529      2.56962834376214     -0.53310087261688
  N   -1.76024807841528      0.91685535426160     -0.17777217011431
  O   -1.60944691954222      1.85907088042982     -0.95107772451664
  O   -2.64453333347446      0.80845025856216      0.66402750993689
  C   -1.14328828868441     -1.38930933840399      0.53373646908534
  H   -1.11958054329337     -1.16429131246231      1.59982592504169
  H   -2.15864567124378     -1.68657630956313      0.27397452649971
  H   -0.47818809504456     -2.22732770291091      0.32092826018636
