18
Coordinates from ORCA-job run
  C   0.66202634453828      0.31245816194280      0.22373815157906
  C   -0.68309512334270     -0.23133059043088     -0.24233618153330
  F   0.66775733930856      0.51871479542475      1.56630135006425
  H   -0.59767217245571     -0.54778899891906     -1.28113664165031
  C   1.82454438407796     -0.58032057574659     -0.14866560710990
  H   1.72091069780913     -1.54955954330470      0.33933466114250
  H   1.87930254683388     -0.71389917054047     -1.22904598382009
  H   2.74502715786365     -0.11283882362380      0.20603974048454
  N   0.91911124499128      1.65443452828055     -0.44984534951039
  O   1.42038931871447      2.54201667788465      0.21895371452049
  O   0.65360479239614      1.68427955091453     -1.64858512220589
  N   -1.73748731219234      0.84104512249671     -0.26199900580771
  O   -1.58802204792461      1.80945240259397      0.47771625288538
  O   -2.70074883771590      0.62378870294306     -0.98944823255538
  C   -1.19822761362699     -1.35463904233009      0.64450063839700
  H   -2.14459757904983     -1.72080385529300      0.24585109846664
  H   -1.34940388378717     -0.99228332643062      1.66155403143987
  H   -0.49141925643810     -2.18472601586181      0.66807248521323
