17

C	-0.42045	0.012317	-1.46275
C	0.0	0.0	0.0
Br	-2.650011	0.062436	-1.417933
H	1.097023	0.0	0.0
C	-0.19115	1.255053	-2.182874
N	0.0015	2.257087	-2.767588
N	0.005739	-1.095582	-2.125806
H	-0.274818	-1.201442	-3.08722
H	-0.055297	-1.918391	-1.536259
N	-0.373269	-1.306672	0.540336
H	-1.283834	-1.259467	0.983949
H	0.322722	-1.578155	1.22469
C	-0.468124	1.198988	0.805838
H	-0.195535	2.13677	0.31506
H	0.037994	1.176586	1.7742
H	-1.549801	1.184145	0.960797
Cl	3.356371	0.0	0.0
