17

C	-0.402731	0.01034	-1.465256
C	0.0	0.0	0.0
Br	-2.659842	0.066578	-1.43348
H	1.097015	0.0	0.0
C	-0.177411	1.250701	-2.187133
N	0.027594	2.254137	-2.766039
N	0.015068	-1.097899	-2.115598
H	-0.212566	-1.202104	-3.090146
H	-0.030294	-1.920463	-1.523873
N	-0.381404	-1.306622	0.531768
H	-1.307184	-1.261724	0.943115
H	0.291595	-1.571764	1.240517
C	-0.470831	1.20238	0.798177
H	-1.554364	1.195471	0.936573
H	-0.183408	2.138209	0.311599
H	0.020798	1.176037	1.77334
Cl	3.349669	0.0	0.0
