17

C	-0.536154	-0.024343	-1.436486
C	0.0	0.0	0.0
Br	0.337072	1.461156	-2.500561
H	1.093683	0.0	0.0
C	-0.164196	-1.255501	-2.137924
N	0.084392	-2.199912	-2.789819
N	-1.96132	0.100624	-1.462114
H	-2.312887	-0.020415	-2.404848
H	-2.225143	1.023405	-1.138603
N	-0.419558	-1.268093	0.587659
H	0.238225	-1.53165	1.313426
H	-1.354602	-1.198156	0.975767
C	-0.467252	1.227623	0.77872
H	0.038082	1.224622	1.74694
H	-0.206283	2.160574	0.274259
H	-1.547882	1.201114	0.964971
Cl	3.446334	0.0	0.0
