17

C	-0.303049	0.042176	-1.507316
C	0.0	0.0	0.0
Br	-0.076877	-1.869519	-2.287884
H	1.103977	0.0	0.0
C	-1.702207	0.336735	-1.821884
N	-2.819438	0.60639	-2.071115
N	0.579008	0.951204	-2.11065
H	0.524326	0.954276	-3.119405
H	1.534473	0.783614	-1.789963
N	-0.636287	-1.131351	0.658598
H	-0.545957	-0.985365	1.658387
H	-0.108037	-1.969412	0.442279
C	-0.486465	1.291115	0.646871
H	-0.139197	2.160447	0.089911
H	-0.075579	1.353451	1.658534
H	-1.578978	1.301774	0.706165
Cl	3.438404	0.0	0.0
