17

C	-0.24458	0.051469	-1.541212
C	0.0	0.0	0.0
Br	-0.049204	-1.884584	-2.307001
H	1.097787	0.0	0.0
C	-1.628313	0.360364	-1.903644
N	-2.756326	0.616211	-2.119409
N	0.671695	0.935516	-2.109347
H	0.646863	0.970855	-3.118762
H	1.616049	0.767198	-1.752799
N	-0.522346	-1.127078	0.729684
H	-0.001843	-1.958509	0.484377
H	-1.496363	-1.284386	0.496038
C	-0.508373	1.296348	0.619569
H	-0.132813	1.343458	1.64245
H	-1.603723	1.314427	0.650569
H	-0.153429	2.166753	0.06728
Cl	3.42147	0.0	0.0
