17

C	-0.397876	0.006015	-1.46631
C	0.0	0.0	0.0
Br	-2.657577	0.083676	-1.445193
H	1.097029	0.0	0.0
C	-0.165668	1.240021	-2.193387
N	0.045762	2.237474	-2.778785
N	0.01144	-1.108667	-2.112887
H	-0.222186	-1.213678	-3.086451
H	-0.042965	-1.928874	-1.52036
N	-0.383162	-1.303543	0.538081
H	0.290084	-1.566861	1.247989
H	-1.309296	-1.255238	0.948805
C	-0.469822	1.206425	0.792958
H	-1.55399	1.202904	0.92783
H	0.019313	1.181839	1.769764
H	-0.178113	2.139555	0.303961
Cl	3.338797	0.0	0.0
