17

C	-0.554652	-0.002768	-1.432122
C	0.0	0.0	0.0
Br	0.393522	1.433822	-2.507959
H	1.097323	0.0	0.0
C	-0.246491	-1.253475	-2.128971
N	-0.066192	-2.229096	-2.757683
N	-1.971487	0.18888	-1.44774
H	-2.188856	1.120686	-1.115371
H	-2.331363	0.096296	-2.390652
N	-0.418593	-1.264594	0.596149
H	0.342972	-1.641033	1.146812
H	-1.240228	-1.153669	1.176516
C	-0.45417	1.22451	0.788315
H	0.086843	1.23487	1.736445
H	-0.221544	2.155685	0.266657
H	-1.527936	1.187458	1.008575
Cl	3.418766	0.0	0.0
