17

C	-0.570949	-0.030941	-1.433859
C	0.0	0.0	0.0
Br	0.131966	1.468347	-2.48199
H	1.099425	0.0	0.0
C	-0.13357	-1.259928	-2.109511
N	0.182414	-2.271353	-2.616756
N	-2.026531	0.012351	-1.506901
H	-2.32403	0.939681	-1.221683
H	-2.332367	-0.645557	-0.79147
N	-0.527315	-1.23131	0.629145
H	-0.474349	-1.108383	1.634321
H	0.119532	-1.984577	0.41124
C	-0.486161	1.202689	0.790425
H	-0.280576	2.136147	0.267112
H	-1.556421	1.132072	1.008482
H	0.05893	1.236441	1.736561
Cl	3.440808	0.0	0.0
