17

C	-0.312149	0.042277	-1.504398
C	0.0	0.0	0.0
Br	-0.06704	-1.865426	-2.287767
H	1.104005	0.0	0.0
C	-1.716805	0.320286	-1.807547
N	-2.836321	0.592655	-2.041146
N	0.554053	0.962485	-2.112755
H	0.489628	0.967209	-3.120946
H	1.513717	0.80344	-1.801701
N	-0.632395	-1.133961	0.658935
H	-0.102772	-1.970326	0.439231
H	-0.538252	-0.989566	1.6586
C	-0.486845	1.288659	0.651498
H	-0.072017	1.348871	1.661746
H	-0.143607	2.160238	0.095586
H	-1.579122	1.296898	0.715199
Cl	3.436844	0.0	0.0
