19

C	0.0	0.0	0.0
C	-0.416058	-0.165077	-1.460323
F	1.441903	0.0	0.0
H	0.072476	-1.094421	-1.787063
N	-0.396156	1.263826	0.54617
H	0.039983	1.383449	1.454426
H	-1.403717	1.244156	0.677018
N	-0.438114	-1.110512	0.780242
H	-0.091491	-1.029136	1.728732
H	-0.104533	-1.978982	0.377775
C	0.127714	0.981352	-2.308715
H	-0.076106	0.788901	-3.366362
H	1.204367	1.100663	-2.174326
H	-0.358491	1.916699	-2.026535
C	-1.925592	-0.31298	-1.616931
H	-2.473054	0.563555	-1.267886
H	-2.33371	-1.148133	-1.050613
H	-2.179393	-0.453332	-2.672409
Cl	-5.09728	0.0	0.0
