19

C	0.0	0.0	0.0
C	-0.422271	-0.129175	-1.46129
F	1.441788	0.0	0.0
H	0.08414	-1.038578	-1.817651
N	-0.385305	1.255022	0.57656
H	-1.397779	1.253985	0.668153
H	0.008393	1.32201	1.50922
N	-0.441718	-1.124875	0.755604
H	-0.075923	-1.079266	1.699271
H	-0.134434	-1.986984	0.322075
C	0.093	1.050242	-2.280226
H	1.16411	1.198532	-2.133294
H	-0.422146	1.965538	-1.98566
H	-0.096116	0.874102	-3.343303
C	-1.929419	-0.308054	-1.618645
H	-2.17543	-0.441282	-2.676582
H	-2.500319	0.550033	-1.260858
H	-2.316961	-1.159252	-1.062775
Cl	-5.09507	0.0	0.0
