19

C	0.0	0.0	0.0
C	-0.42213	-0.190224	-1.465837
F	1.396899	0.0	0.0
H	-1.516245	-0.151397	-1.47155
N	-0.449417	1.275319	0.477481
H	-0.392596	1.230991	1.491709
H	-1.441358	1.33439	0.252967
N	-0.388587	-1.049656	0.915888
H	-1.408333	-1.062665	0.923522
H	-0.062602	-1.943225	0.568001
C	0.025747	-1.549635	-2.002326
H	1.102262	-1.686514	-1.862365
H	-0.188765	-1.619511	-3.073115
H	-0.501639	-2.373567	-1.515619
C	0.129693	0.933252	-2.344042
H	1.223127	0.915671	-2.347205
H	-0.188799	1.909106	-1.977375
H	-0.222364	0.814189	-3.37443
Cl	-3.71183	0.0	0.0
