19

C	0.0	0.0	0.0
C	-0.270208	-0.112051	-1.52765
F	1.391033	0.0	0.0
H	0.483989	0.578508	-1.92187
N	-0.418838	1.293028	0.489624
H	-0.131014	1.373941	1.461177
H	-1.438466	1.293686	0.47829
N	-0.458378	-1.159109	0.720354
H	-1.468531	-1.205797	0.579235
H	-0.31415	-1.000705	1.713469
C	-1.61265	0.3393	-2.079497
H	-1.543701	0.343175	-3.173943
H	-2.437064	-0.301682	-1.78031
H	-1.869376	1.348889	-1.757848
C	0.072224	-1.517348	-2.021316
H	1.029477	-1.856433	-1.622845
H	-0.694109	-2.232729	-1.71562
H	0.125217	-1.521149	-3.115278
Cl	-4.102414	0.0	0.0
