19

C	0.0	0.0	0.0
C	-0.364428	-0.142563	-1.489645
F	1.415684	0.0	0.0
H	0.304636	-0.930723	-1.863314
N	-0.420237	1.180723	0.694992
H	-1.428697	1.137057	0.806273
H	-0.180109	2.008181	0.165669
N	-0.476591	-1.106653	0.74825
H	-0.178648	-1.978238	0.333915
H	-0.134293	-1.035172	1.69693
C	-0.032403	1.140804	-2.248067
H	-0.066379	0.958645	-3.325142
H	-0.770988	1.917059	-2.031178
H	0.964806	1.512249	-1.998443
C	-1.81039	-0.566237	-1.719158
H	-1.992481	-1.582844	-1.372771
H	-2.045525	-0.526032	-2.788384
H	-2.540432	0.053228	-1.19404
Cl	-4.93635	0.0	0.0
