19

C	0.0	0.0	0.0
C	-0.344457	0.177655	-1.492665
F	1.415685	0.0	0.0
H	0.312626	0.988885	-1.837432
N	-0.473543	1.103789	0.761574
H	-0.27518	0.936871	1.739882
H	-0.02654	1.958249	0.453833
N	-0.470329	-1.183448	0.651775
H	-1.483021	-1.102707	0.719086
H	-0.248917	-1.99983	0.098279
C	-1.795066	0.57113	-1.74848
H	-1.962221	0.609199	-2.832558
H	-2.04225	1.544854	-1.326137
H	-2.51904	-0.121203	-1.3134
C	0.017543	-1.080779	-2.28161
H	0.001789	-0.869621	-3.353529
H	-0.720175	-1.869651	-2.101137
H	1.012498	-1.454593	-2.023725
Cl	-4.864932	0.0	0.0
