10
Coordinates from ORCA-job run
  C   0.93232164528441     -0.28292618153623     -0.39359800915174
  C   -0.33454381580771     -0.13763926388028      0.08434026804664
  H   1.32810172101227     -1.27574657374220     -0.58862064838708
  C   1.77136204003609      0.82752880882881     -0.66864255023434
  N   2.48861845898681      1.73295636053554     -0.89772266986483
  N   -1.22780460191221     -1.16860648921694      0.27412859446222
  H   -0.83142856360670     -2.09534079392176      0.30383938418554
  H   -1.94983205013257     -1.01001550847872      0.95868552746802
  C   -0.86027166942631      1.17528046738903      0.34359932487112
  N   -1.31552316443409      2.23350917402273      0.58299077860446
