10
Coordinates from ORCA-job run
  C   0.94953200679200     -0.26662157027678     -0.36287755289825
  C   -0.33221798731998     -0.14544453694034      0.08108514610510
  H   1.38265259423284     -1.25279143167874     -0.50521415126790
  C   1.75823762615752      0.85987059833732     -0.66297911685012
  N   2.45053662902309      1.77929990330380     -0.91230728319396
  N   -1.19379587485713     -1.19825579946038      0.29581487984211
  H   -0.76664502712845     -2.10809522827577      0.37663066708142
  H   -1.93681992780824     -1.03544097910956      0.95645390504984
  C   -0.90773308206222      1.15796261760103      0.27353071825266
  N   -1.40374695702942      2.20851642649943      0.45986278787911
