10
Coordinates from ORCA-job run
  C   0.67931009935061      0.42363771843043     -0.75577857964460
  C   -0.41675313280485      0.15870464784162      0.01246326854282
  H   0.61260589667056      1.11080602775785     -1.58910304887739
  C   1.91770328006744     -0.19791346602239     -0.45067784262780
  N   2.91484416220855     -0.74991235117060     -0.15131195219137
  N   -0.42758423601235     -0.60680357485280      1.15018895367991
  H   -1.30643392753638     -1.02364708201783      1.41060966685319
  H   0.38187812527324     -1.19152573102959      1.30149043686520
  C   -1.66344485454917      0.78938769425917     -0.32511441726262
  N   -2.69312541266767      1.28626611680415     -0.60176648533733
