10
Coordinates from ORCA-job run
  C   0.70709637495635      0.51254999055250     -0.66853490190341
  C   -0.42998015734623      0.11574203927424     -0.02725219340417
  H   0.65626284460132      1.21247245666131     -1.49221981245714
  C   1.96550423802065      0.01213311109008     -0.24606962647543
  N   2.98103467388882     -0.44154822679403      0.14311722552997
  N   -0.48175203843824     -0.67839022058165      1.08969761362312
  H   -1.33496922913396     -1.19065167910731      1.24432909703530
  H   0.36298111484919     -1.18305383788965      1.31727118743131
  C   -1.69294874287072      0.62334493210234     -0.48954985631892
  N   -2.73322907852718      1.01740143469215     -0.87178873306064
