10
Coordinates from ORCA-job run
  C   0.73037723536601      0.49153636346002     -0.66095863434608
  C   -0.42380253985450      0.13635169647466     -0.02585790495578
  H   0.71249668456132      1.20761826125692     -1.47209515872327
  C   1.96336094220379     -0.07553996946431     -0.24755623743153
  N   2.95439044268042     -0.58515505917136      0.13548071713523
  N   -0.51130433111206     -0.67603828664389      1.07578852999088
  H   0.30873692628068     -1.22510982710610      1.29009732111268
  H   -1.38744846701904     -1.15027588389385      1.22224044910368
  C   -1.66199457234022      0.71241187419227     -0.47338279931597
  N   -2.68381232076639      1.16320083089565     -0.84275628256984
