10
Coordinates from ORCA-job run
  C   0.94537449082458     -0.27613475953674     -0.36206777579226
  C   -0.29675849966381     -0.13735798594029      0.17858950068156
  H   1.38063747049585     -1.26570022208400     -0.47106711917988
  C   1.71841326104429      0.83565920643501     -0.78500764833200
  N   2.37817982489927      1.74048683690949     -1.14943504090678
  N   -1.04951837996514     -1.16869145062777      0.69549677277553
  H   -2.04714919197460     -1.02799114327098      0.70457425212952
  H   -0.77072448331361     -2.09775362974761      0.41990120445787
  C   -0.87542040215331      1.17056250968449      0.32620429291575
  N   -1.38203409019351      2.22592063817841      0.44381156125068
