10
Coordinates from ORCA-job run
  C   0.76398734785745      0.60966276712369     -0.50673838981742
  C   -0.42600798595132      0.12132788663298     -0.05168304892299
  H   0.78749165898837      1.43455236175497     -1.20664012628295
  C   1.97982719658118      0.04100116004157     -0.04733082540337
  N   2.95666262930165     -0.47455095046399      0.36332949707307
  N   -0.57793128317961     -0.84217840101758      0.91219443803263
  H   0.24629627167247     -1.37932251848676      1.14018758938368
  H   -1.43674423451978     -1.36766607958643      0.90019770820095
  C   -1.64388654034010      0.70261309935048     -0.54684543677217
  N   -2.64869506041030      1.15656067465106     -0.95667140549143
