10
Coordinates from ORCA-job run
  C   0.92915711083201     -0.28991124316767     -0.39230962922255
  C   -0.30033098113416     -0.13658383285119      0.17284704260764
  H   1.32163109447669     -1.28657286433919     -0.57354821560484
  C   1.74272204586931      0.81503193904732     -0.75275891820373
  N   2.43683297184527      1.71292364196493     -1.06716766892598
  N   -1.08942906055781     -1.16776800458448      0.63216039745024
  H   -2.07978000738702     -0.98655258201272      0.66775922212447
  H   -0.85354750848879     -2.08777629492471      0.29356696504213
  C   -0.82240728764830      1.18116319722399      0.41363994072615
  N   -1.28384837780720      2.24604604364373      0.60681086400647
