10
Coordinates from ORCA-job run
  C   0.66893669337573      0.43613939009477     -0.75840466074380
  C   -0.41948865793004      0.15027893523213      0.01313516248643
  H   0.58579136222972      1.11946725366253     -1.59337725231370
  C   1.92082487586352     -0.15855590299438     -0.45505391735283
  N   2.93005520285567     -0.68913649501095     -0.15761472785523
  N   -0.41206531639901     -0.61190451372540      1.15315489410647
  H   0.40949540578073     -1.17954081034831      1.30446748015722
  H   -1.28149214548634     -1.04681497037910      1.41564113582762
  C   -1.68025325378984      0.75283471771800     -0.32370743912202
  N   -2.72180416650013      1.22623239575071     -0.59724067519017
