10
Coordinates from ORCA-job run
  C   0.73422974258019      0.51085816014405     -0.64358161147649
  C   -0.42950050134994      0.10136968915749     -0.06048122433114
  H   0.72895058034098      1.29930248482164     -1.38474416741417
  C   1.95708657009165     -0.11153716631852     -0.28289097317178
  N   2.93916766620253     -0.66274174655032      0.06381678951633
  N   -0.56002276267912     -0.95232180422624      0.80712860542342
  H   0.29493583655647     -1.30621042447983      1.21170290346374
  H   -1.34938650648191     -0.93397380642305      1.43199916345189
  C   -1.65369212941840      0.75741336426244     -0.43084467496529
  N   -2.66076849584245      1.29584124961235     -0.71310481049651
