10
Coordinates from ORCA-job run
  C   0.69559965314158      0.52557625995820     -0.67298693746004
  C   -0.43148604912360      0.10901451372912     -0.02654912087751
  H   0.62854776461342      1.22373378914000     -1.49711985061939
  C   1.96344583403438      0.04357892445177     -0.25690141476567
  N   2.98524413056956     -0.39739813298614      0.13033829217438
  N   -0.46443126260892     -0.68783764139951      1.08870553711382
  H   0.39047130902837     -1.17565842981054      1.31472617124369
  H   -1.30817240397895     -1.21248876194403      1.25080109414705
  C   -1.70538060488367      0.59702737002655     -0.48003750448725
  N   -2.75583837079216      0.97445210883458     -0.85097626646907
