10
Coordinates from ORCA-job run
  C   0.75540344482620      0.61236473909338     -0.51610185756146
  C   -0.42774941037670      0.11242242309375     -0.05562115368636
  H   0.76643274059525      1.42414259988790     -1.23166772938197
  C   1.97891051167923      0.07112057325896     -0.04381781436380
  N   2.96089561636863     -0.42300171774086      0.38053947306308
  N   -0.56622855689864     -0.83704269132665      0.92456809585309
  H   -1.41676588876846     -1.37606121030983      0.91860177693537
  H   0.26550451410904     -1.36030632592977      1.15827207346313
  C   -1.65322288635949      0.66980175280109     -0.55941495174404
  N   -2.66318008517505      1.10655985717202     -0.97535791257704
