10
Coordinates from ORCA-job run
  C   1.01742548108911     -0.17529720467920     -0.19019864756033
  C   -0.30745970691993     -0.16875970012281      0.12459335573879
  H   1.56347632947299     -1.11393269998185     -0.21649759529096
  C   1.73517787753147      1.01374244847100     -0.47962582079979
  N   2.35258318385091      1.98493345088832     -0.72941236743112
  N   -1.03039121659501     -1.27568387592680      0.51057910090455
  H   -2.02363035318132     -1.23638660216214      0.34675871808012
  H   -0.61531922715613     -2.16965617740606      0.29786401301257
  C   -1.03355654752704      1.07193335611447      0.15797941919489
  N   -1.65930582056503      2.06810700480508      0.17695982415128
