10
Coordinates from ORCA-job run
  C   0.70142513668554      0.44454345523136     -0.72450190030097
  C   -0.40767508843957      0.17835331802139      0.02437547759264
  H   0.66983921177142      1.19172218151380     -1.50656922308443
  C   1.90701065705324     -0.25791213368861     -0.46775738770749
  N   2.87384108570206     -0.88103251860568     -0.21202085896521
  N   -0.45832920500220     -0.66593316401857      1.10378752909574
  H   0.32104928005877     -1.29917767700552      1.21161085938598
  H   -1.35714987667619     -1.05660608742581      1.33479985873344
  C   -1.62224244768802      0.89050053279356     -0.26500982031871
  N   -2.62776875346506      1.45454209318408     -0.49871453443100
