10
Coordinates from ORCA-job run
  C   0.73030250953716      0.52419493806741     -0.63671927171814
  C   -0.42463878708055      0.13312761078544     -0.02450201923887
  H   0.71147216661593      1.27437569191746     -1.41639176307734
  C   1.96533785115513     -0.04952920545783     -0.23882456281342
  N   2.95716202271400     -0.56734991046095      0.13089438110040
  N   -0.51229290790726     -0.72532096133048      1.04123854844123
  H   -1.38550630630455     -1.21140335472583      1.16424655754457
  H   0.31186428844284     -1.27342163610317      1.24185213928452
  C   -1.66511796968758      0.71824300934917     -0.45450046412877
  N   -2.68958286748511      1.17708381795878     -0.80629354539416
