10
Coordinates from ORCA-job run
  C   0.71859344249661      0.48164110202163     -0.68135271623747
  C   -0.43157487128344      0.09864037667083     -0.05512169728139
  H   0.69616705449024      1.23717865831986     -1.45582147449983
  C   1.94988980300792     -0.12407417803282     -0.32099310318359
  N   2.94103449021259     -0.65800600655416      0.02682640110962
  N   -0.54312421477562     -0.91761818136696      0.85881783036577
  H   -1.31324431725443     -0.86560371437662      1.50566408688470
  H   0.32127440629094     -1.26064159248022      1.25299593184591
  C   -1.66370658586746      0.74019133775576     -0.42452847555599
  N   -2.67630920731736      1.26829219804271     -0.70648678344773
