10
Coordinates from ORCA-job run
  C   1.01952175314906     -0.20014165580610     -0.15108880336729
  C   -0.32854946283112     -0.16914806703637      0.03961000500267
  H   1.55288709922734     -1.14485680893781     -0.09381123645711
  C   1.77284921765346      0.96639393586481     -0.44158723875387
  N   2.42355207258960      1.91916354698242     -0.67761143544118
  N   -1.12255543889566     -1.27937803709039      0.22353990050794
  H   -1.98763895723348     -1.12999421101474      0.71786161741985
  H   -0.64263408373090     -2.12692075434366      0.48419131738072
  C   -1.03842447805269      1.07913575196046     -0.03318068146927
  N   -1.64800772187562      2.08474629942137     -0.06792344482245
