10
Coordinates from ORCA-job run
  C   0.75587074240729      0.54630248769443     -0.58807275640391
  C   -0.40955970563067      0.17482040562222      0.01656400836848
  H   0.78320015339751      1.40298024254698     -1.24865553995927
  C   1.94206020413264     -0.19119906566891     -0.33835572231374
  N   2.89085996138882     -0.84627383226118     -0.09501216240611
  N   -0.54324039559828     -0.82310479962863      0.94744449046131
  H   -1.45507989614329     -1.24018649175838      1.04036189005041
  H   0.22986462837261     -1.46823997942540      1.02486188099966
  C   -1.60278186871442      0.92580019138557     -0.26360188098562
  N   -2.59219382361222      1.51810084149329     -0.49553420781121
