10
Coordinates from ORCA-job run
  C   1.04067489608439      0.05576673707174      0.12859480801244
  C   -0.31056099792592     -0.10813699845162      0.17353557784134
  H   1.66636995110258     -0.39122201042063      0.89595849328599
  C   1.68061493119450      0.80800713632044     -0.88989849644415
  N   2.23672161583242      1.42238592018187     -1.72659086005114
  N   -0.99298329741322     -0.74186907111507      1.18822507261132
  H   -0.44046128552232     -1.33470124853309      1.78815613179630
  H   -1.89037971326991     -1.12943776247812      0.94467584185460
  C   -1.14177438241032      0.48183431976810     -0.84048108330591
  N   -1.84822171767220      0.93837297765638     -1.66317548560081
