10
Coordinates from ORCA-job run
  C   0.73291869548740      0.47871051206926     -0.67021077703357
  C   -0.41197974275008      0.17039923924200      0.00487454088292
  H   0.73040949076526      1.24369022283612     -1.43564527268702
  C   1.93634645371080     -0.20474093804244     -0.35836818635682
  N   2.89845386124047     -0.81608849057430     -0.05957299138604
  N   -0.50637127651811     -0.70012306757972      1.06058925038745
  H   0.28005976507375     -1.31862701236367      1.19902259141826
  H   -1.40743384504735     -1.11846484260253      1.22525735886999
  C   -1.62414783359292      0.86111344408491     -0.34104061071863
  N   -2.62825556836924      1.40413093293036     -0.62490590337654
