10
Coordinates from ORCA-job run
  C   0.72512417120924      0.45438416483535     -0.69340820130189
  C   -0.41772913052882      0.15490786961037     -0.01084121017344
  H   0.70785790452014      1.16723365660132     -1.50735533578812
  C   1.94665919054967     -0.16641060279505     -0.32545569363672
  N   2.92768577086298     -0.71915334559118      0.02189506546053
  N   -0.49846833677409     -0.64801263168670      1.09774681760080
  H   0.30427927936052     -1.23065965766806      1.28722091030594
  H   -1.38932863070153     -1.07847914809315      1.28486268130662
  C   -1.64560073759233      0.78476461849451     -0.41294385520539
  N   -2.66047948090578      1.28042507629260     -0.74172117856831
