10
Coordinates from ORCA-job run
  C   0.74540438568373      0.52925531641412     -0.61451257099279
  C   -0.42861525300656      0.10084580664029     -0.06671265982999
  H   0.74303628954634      1.22783237339617     -1.44091597194776
  C   1.97789727560287      0.06753847560696     -0.08431467529571
  N   2.96793895802925     -0.35559587733901      0.39461020685931
  N   -0.54831960136147     -0.69404079066608      1.04388222434893
  H   0.28906512606685     -1.17236849916357      1.34368539133891
  H   -1.39792128730453     -1.22629550700447      1.13553910121739
  C   -1.66435549864231      0.57547084382783     -0.62702983468680
  N   -2.68313039461416      0.94635785828777     -1.08323121101149
