10
Coordinates from ORCA-job run
  C   0.77631805098090      0.56001812118982     -0.54567155623089
  C   -0.41154283300050      0.17101956070502      0.00149486199004
  H   0.86160307999691      1.51198416725944     -1.05309598698223
  C   1.90398727464957     -0.29629516517628     -0.45706796946714
  N   2.80465465293044     -1.04756775401744     -0.34310474889318
  N   -0.66593893868361     -1.04937235107006      0.57275451459076
  H   -1.41555931632998     -1.09094658560647      1.24390306388808
  H   0.14075165829073     -1.61272295161494      0.80053613093281
  C   -1.53536979339431      1.06303242528281     -0.08517500956094
  N   -2.45890383544017      1.78985053304810     -0.13457330026730
