10
Coordinates from ORCA-job run
  C   0.74020039256900      0.47727637595428     -0.66141368339493
  C   -0.42562298288413      0.12378973656432     -0.04683157599396
  H   0.75478362626116      1.27362284009202     -1.39394001352823
  C   1.93900867697708     -0.21160457336244     -0.34318132432466
  N   2.90114253755429     -0.81632864249988     -0.03139318454135
  N   -0.58649914981507     -0.93133676645395      0.81432321085039
  H   0.26061753431255     -1.33355606109546      1.18944297559097
  H   -1.35256357337769     -0.87434222234743      1.46541300354175
  C   -1.62327404278188      0.84838257235134     -0.37336096835672
  N   -2.60679301881531      1.44509674079720     -0.61905843984325
