10
Coordinates from ORCA-job run
  C   1.01902682359605     -0.15485811203729     -0.20147482289631
  C   -0.29867758534592     -0.17072647680548      0.14205080445698
  H   1.59561900368643     -1.07523978687368     -0.18075003860045
  C   1.68975101205600      1.03635164796946     -0.58116547705738
  N   2.26838290364887      2.00971601803753     -0.90428791032742
  N   -0.97659552536423     -1.27329120158928      0.61288267730544
  H   -1.97371396561641     -1.27514331737539      0.46867237969466
  H   -0.53713559081470     -2.16535389275770      0.44640655097581
  C   -1.06434398842926      1.04597815478929      0.11343614257078
  N   -1.72131308741684      2.02156696664255      0.08422969387789
