10
Coordinates from ORCA-job run
  C   1.03044549811313     -0.15870770730328     -0.11857571345658
  C   -0.31474959247124     -0.17692359496302      0.09257260002076
  H   1.58598700255612     -1.09183008461343     -0.15080885821871
  C   1.75539801983516      1.04819656697739     -0.29319781879508
  N   2.37897971103103      2.03499226413673     -0.44829082573960
  N   -1.05331083007053     -1.30730277983824      0.36503869051936
  H   -0.61355546089575     -2.18567565606923      0.13709274785036
  H   -2.03102653510204     -1.26645908186847      0.12445778615220
  C   -1.05304891022621      1.05612065480044      0.13454502095903
  N   -1.68611890276967      2.04758941874112      0.15716637070827
