10
Coordinates from ORCA-job run
  C   0.75082036345976      0.51662112842287     -0.61866124731647
  C   -0.37219795930859      0.22411836744638      0.09886110398041
  H   0.82842677134374      1.44968708781657     -1.16140411348290
  C   1.82879164267649     -0.40547878106639     -0.64320768091354
  N   2.68686597899835     -1.21302192658396     -0.63041611010061
  N   -0.54063506879345     -0.87096111851227      0.90710669614536
  H   0.12466764257445     -1.62100194236024      0.78591033140729
  H   -1.48735566135478     -1.16870815881119      1.07775496848116
  C   -1.45729869235352      1.16679078016963      0.09561014000932
  N   -2.36008501724243      1.92095456347860      0.08844591178998
