10
Coordinates from ORCA-job run
  C   0.96591036514477     -0.25444312950133     -0.32012574071366
  C   -0.30482356920363     -0.14612767128952      0.15736490293613
  H   1.41720099071521     -1.23521616135265     -0.44189839988025
  C   1.74843286710519      0.87859086765446     -0.66166728933369
  N   2.41866631267561      1.79996764678727     -0.95958234571237
  N   -1.07253981991948     -1.20140504220716      0.59862976370201
  H   -2.07069542345466     -1.06999670879139      0.55680929385294
  H   -0.76953347398471     -2.11718493671310      0.30459407042712
  C   -0.90455603256730      1.15057740618822      0.31880160320740
  N   -1.42806221651100      2.19623772922519      0.44807414151437
