10
Coordinates from ORCA-job run
  C   0.93991147096645     -0.23876504979949     -0.40133086985552
  C   -0.32841178255847     -0.15245361829315      0.08688518364531
  H   1.37844411837341     -1.21219906357973     -0.60188590202483
  C   1.72729174477952      0.90894740472038     -0.67644179901876
  N   2.40467860169908      1.84390535219192     -0.90844748208406
  N   -1.17317505200369     -1.22327057118917      0.27777335921161
  H   -0.73521948163122     -2.13126352512644      0.29980536053275
  H   -1.89539115130498     -1.10120759090009      0.96953693614166
  C   -0.91027658457861      1.13486298391675      0.35451393539970
  N   -1.40785188374150      2.17244367805902      0.59959127805214
