10
Coordinates from ORCA-job run
  C   0.90723945061449     -0.19776237874217     -0.48944867611872
  C   -0.27889409791357     -0.16975334946616      0.17913653332591
  H   1.32950184368014     -1.14835142709574     -0.80325919349424
  C   1.63833393199378      0.98086263323661     -0.78828402282789
  N   2.26038495850208      1.94473797651289     -1.05447616173494
  N   -0.98042250643534     -1.28398452820474      0.58343777114427
  H   -0.72899991823477     -2.15030599277344      0.13288751957349
  H   -1.97246864008455     -1.16168702078755      0.70971196448080
  C   -0.84060333464632      1.08606642155343      0.59662202713749
  N   -1.33407168747593      2.09917766576686      0.93467223851383
