10
Coordinates from ORCA-job run
  C   1.03891562245271     -0.14807660088938      0.02973238621290
  C   -0.32214923951573     -0.17319845611439      0.06902092043158
  H   1.60907575679144     -0.95639799220981      0.47888013659635
  C   1.76089349281061      0.89935687951850     -0.59844557226391
  N   2.38426925969741      1.75882289976303     -1.10781459027415
  N   -1.07615521864180     -1.20989240927412      0.57295016814589
  H   -1.99988431245257     -0.97000923260507      0.89594994798592
  H   -0.58900780549314     -1.85769729938057      1.17272679559229
  C   -1.07903485582035      0.89533392173824     -0.52503400866595
  N   -1.72592269982859      1.76275828945358     -0.98696618376093
