10
Coordinates from ORCA-job run
  C   0.83269826629549      0.70192332685697     -0.16440788830429
  C   -0.41204633803450      0.17007924017820      0.00734749651296
  H   0.95292925058169      1.75042743000599     -0.40355656750677
  C   1.97643439122595     -0.12361843284984     -0.01256148652606
  N   2.88566261562659     -0.86142719181588      0.11969061268098
  N   -0.68361285626219     -1.11062877646217      0.41513628699444
  H   0.08456039776866     -1.76477970335949      0.37064235029068
  H   -1.57971748431447     -1.49093116534714      0.15760945449536
  C   -1.55570292859188      1.02330920383113     -0.16712630435031
  N   -2.50120531429533      1.70564606896222     -0.32277395428699
