10
Coordinates from ORCA-job run
  C   0.90771892334337     -0.21810206306596     -0.47953684386765
  C   -0.28230530345703     -0.16285862700052      0.18009349287441
  H   1.31890593457638     -1.17910951503928     -0.77552290887974
  C   1.65710460399753      0.94497418225392     -0.79319324858320
  N   2.29572996079015      1.89464888689112     -1.07065489330979
  N   -1.00229385444992     -1.26040944223115      0.59785870586916
  H   -1.99361236535812     -1.12177371428862      0.71306159770092
  H   -0.76064028955784     -2.13704679350841      0.16208685334447
  C   -0.82944561358460      1.10751121233856      0.57298889210714
  N   -1.31116199629992      2.13216587365034      0.89281835274427
