10
Coordinates from ORCA-job run
  C   0.68784996695015      0.45460056242367     -0.73063342564262
  C   -0.42879590951788      0.12127848530249     -0.02113819010165
  H   0.61552295105468      1.09342670169972     -1.60112725036821
  C   1.95382897092087     -0.03493457735429     -0.31782682130391
  N   2.97305132241577     -0.48043804345264      0.07132085809502
  N   -0.44662793793635     -0.58939052372910      1.15161770521699
  H   -1.29864669514003     -1.07761689301118      1.37462836520266
  H   0.40136596165327     -1.08567754398788      1.38509908994387
  C   -1.70319935171921      0.61024884880780     -0.47129275266627
  N   -2.75434927868129      0.98850298330140     -0.83964757837589
