10
Coordinates from ORCA-job run
  C   0.77553702366791      0.66772291830269     -0.40875913133449
  C   -0.42320413792147      0.13537840735024     -0.03277638812759
  H   0.82581239285582      1.66233369141797     -0.83208357567974
  C   1.96184365777872     -0.09483771475586     -0.25371204889258
  N   2.91056998982533     -0.77500779533754     -0.09276400185298
  N   -0.62295077889814     -1.14542403077623      0.41421491314919
  H   0.20335755316971     -1.65487815887206      0.69278281647574
  H   -1.43451172328905     -1.30659408482710      0.98813449303773
  C   -1.60951710633116      0.93260004309518     -0.18544353251906
  N   -2.58693687085768      1.57870672440271     -0.28959354425622
