10
Coordinates from ORCA-job run
  C   0.70593467743863      0.48149317222483     -0.69487650333575
  C   -0.42403674900364      0.13570259996391     -0.01288389432786
  H   0.65797182396440      1.18876054336393     -1.51250378391464
  C   1.95333369049823     -0.08071707378035     -0.31980105840130
  N   2.95750379821678     -0.58582269659685      0.03382217742572
  N   -0.47208817370380     -0.66273899892005      1.10098885235646
  H   0.35511795725064     -1.20829227706248      1.29585810208086
  H   -1.34325458599640     -1.13187023406909      1.28771341452657
  C   -1.67766202730808      0.70795875114221     -0.42188411574713
  N   -2.71282041135679      1.15552621373394     -0.75643319066293
