17

C	0.0	0.0	0.0
C	-0.509821	-0.063637	-1.428763
Cl	1.81661	0.0	0.0
H	-1.60663	-0.063629	-1.30947
H	-0.213757	0.86197	-1.948043
C	-0.488077	1.283487	0.640254
H	-1.587504	1.235674	0.622624
H	-0.140103	2.159723	0.08445
H	-0.135384	1.3602	1.672664
C	-0.477582	-1.203367	0.786388
H	-0.139285	-2.125385	0.313592
H	-0.112537	-1.159117	1.81693
H	-1.57606	-1.157327	0.774623
N	-0.091479	-1.279216	-2.126468
H	-0.734861	-1.454548	-2.887749
H	0.831958	-1.145245	-2.519461
H	-3.421188	0.0	0.0
