14
Coordinates from ORCA-job run
  C   0.69904263792435      0.13231163474089     -0.50195129438178
  C   -0.79462218002769      0.31788834012469     -0.31794753155096
  F   0.96372523609239     -0.96847269270264     -1.24736354986359
  H   -1.21343658395613      0.42615670469520     -1.32284744047167
  H   -0.95372654633797      1.25845170506572      0.21370068605830
  C   1.35821049404820      1.29993474468945     -1.09573904174411
  N   1.85081179762978      2.23623392388706     -1.60559553735661
  N   1.32029017182728     -0.08827001072977      0.88388986647591
  O   1.74152511155898     -1.20387581941163      1.13925711895423
  O   1.27455431233958      0.88839901836751      1.62031463641726
  C   -1.43321753284921     -0.85491665682657      0.41888653934788
  H   -1.17792409001650     -1.80425916510879     -0.05322235448549
  H   -1.11741057202378     -0.89123938024863      1.46325734729655
  H   -2.51882225620929     -0.74834234654250      0.40536055530406
