14
Coordinates from ORCA-job run
  C   0.74214403030920      0.12422241787873     -0.43958348348504
  C   -0.76849705908550      0.25494635848603     -0.42278212358160
  F   1.12398142980896     -1.01770695621971     -1.06227349753235
  H   -1.08411897831678      0.26147417212945     -1.47027717592563
  H   -1.01742539319354      1.22724517251490      0.00751125562329
  C   1.41581390524759      1.27102983517536     -1.05713167430596
  N   1.92392526290350      2.18650530282531     -1.58914147000886
  N   1.22289467538014      0.03986888617019      1.01540104110835
  O   1.65829113290573     -1.03189537850683      1.40150559410982
  O   1.06133681768599      1.06650723830156      1.66211867385254
  C   -1.43549161682839     -0.88220793615242      0.34403094669420
  H   -2.51689775084021     -0.82881133677480      0.21063859095553
  H   -1.23048926550358     -0.81707516158907      1.41424172329449
  H   -1.09546719047312     -1.85410261423869     -0.01525840079877
