14
Coordinates from ORCA-job run
  C   0.70649533511270      0.08037472469786     -0.28946491968846
  C   -0.47825358732892     -0.46285603990121      0.48399996912474
  F   0.89256066890388     -0.61628347237227     -1.43753611783526
  H   -0.24967931268280     -1.51262267014645      0.69636408119954
  H   -0.53109658036894      0.07245036058105      1.43470843521852
  C   0.59263227645420      1.51014106220831     -0.59756803608136
  N   0.45053775804349      2.64468555441935     -0.86578453006040
  N   1.96215966301920     -0.10544366953316      0.57376127505631
  O   2.02496016643596      0.62995638385507      1.55011568705959
  O   2.73895858753749     -0.98579041149960      0.24325384925646
  C   -1.77727840076413     -0.33519133792988     -0.30324185256316
  H   -2.02710465237332      0.71108827835402     -0.49106764820438
  H   -1.70775862999055     -0.85344318864280     -1.26015134439763
  H   -2.59713329199826     -0.77906557409028      0.26361115191550
