14
Coordinates from ORCA-job run
  C   0.73303660106698      0.13306621014771     -0.45089738042936
  C   -0.77720054424028      0.26078615648164     -0.40151739067601
  F   1.10351957190141     -0.99833643499604     -1.09911240548236
  H   -1.11351520766023      0.28665803227574     -1.44229531449371
  H   -1.01928165659748      1.22407463742827      0.05238976053994
  C   1.39175150268452      1.29089472372953     -1.06407148977729
  N   1.88633966612556      2.21585749258036     -1.59231927473297
  N   1.24424670264537      0.02696677795038      0.99211043734218
  O   1.09721552212200      1.04395138591938      1.65722994424406
  O   1.68729914010717     -1.05039252606779      1.35297772696144
  C   -1.42731229798734     -0.89217862498480      0.35618402243423
  H   -1.09808370412794     -1.85636605728729     -0.03273399911882
  H   -1.19645504086680     -0.85116680649382      1.42239134465510
  H   -2.51156025517295     -0.83381496668326      0.25066401853359
