14
Coordinates from ORCA-job run
  C   0.71130044665328      0.11143181006302     -0.26709375043982
  C   -0.47930909072563     -0.50038525287679      0.44356838436813
  F   0.93786357373027     -0.51086223680096     -1.45012746017628
  H   -0.23394531045339     -1.55655670167678      0.59758882100987
  H   -0.56513808905561     -0.02496922523008      1.42327667352939
  C   0.57455574331087      1.55480894344651     -0.49162527360984
  N   0.41393470089600      2.70055948229792     -0.69359548362937
  N   1.95059454087079     -0.10124545411960      0.61322837000472
  O   1.97602387016243      0.57586137942705      1.63267127122013
  O   2.75261159549907     -0.94536282185991      0.24998853051769
  C   -1.76229686568969     -0.35048360340064     -0.36578010630753
  H   -2.58632425894759     -0.84048422354881      0.15506731524259
  H   -2.02770291664708      0.70018035573481     -0.49947438134583
  H   -1.66116793960371     -0.81149245145574     -1.34869291038385
