14
Coordinates from ORCA-job run
  C   0.71738022618203      0.05826345997904     -0.27056326675649
  C   -0.49297048045628     -0.41612196290633      0.50862213799409
  F   0.94914041050708     -0.74653949937661     -1.33663705055267
  H   -0.26762194371123     -1.43859537468395      0.82951318944270
  H   -0.58294770849047      0.20831098034262      1.40045944320103
  C   0.60881968468893      1.44973526052557     -0.72241164969083
  N   0.46939543176967      2.54930421179788     -1.11073569331275
  N   1.93921514781039     -0.03379627128757      0.65358770689266
  O   2.70775795330884     -0.96223670027013      0.46499311144169
  O   1.98298347860653      0.81613708191816      1.53313175145735
  C   -1.76295744514061     -0.37548758452430     -0.33328494504189
  H   -2.60085044343922     -0.76926545885041      0.24419135150215
  H   -2.01038549021253      0.64565522597135     -0.63056496904981
  H   -1.65595882142311     -0.98336336863531     -1.23230111752724
