14
Coordinates from ORCA-job run
  C   0.79528231001675      0.12391425544233     -0.33438946210547
  C   -0.68427187032080     -0.07816303132701     -0.59927825093686
  F   1.46726229058864     -1.05086481558413     -0.41187165567658
  H   -1.16112262023690      0.90418374468802     -0.61230265907806
  H   -0.75772519701556     -0.49935485883328     -1.60633083529576
  C   1.41434895919326      1.10579291097074     -1.23044739536392
  N   1.88686204547253      1.86969489232932     -1.98702191202983
  N   0.94816678733304      0.65016480875119      1.09850775818101
  O   1.43322518304824     -0.10426404658116      1.92495363271368
  O   0.50368524087335      1.77712246404157      1.27389465285612
  C   -1.33156813754130     -0.99983389151336      0.42921703238609
  H   -2.35202367990303     -1.23251115606409      0.12150867382531
  H   -1.38158781703013     -0.52887746917379      1.41278411860921
  H   -0.78153349447810     -1.93700380714635      0.52177630191504
