14
Coordinates from ORCA-job run
  C   0.69479453401721      0.14609823127236     -0.50456547618231
  C   -0.80034327570562      0.30942534605195     -0.31009837071949
  F   0.97060153449159     -0.94399894507231     -1.26104389028677
  H   -0.96826111458540      1.24190761578017      0.23284297201093
  H   -1.22712312507239      0.42306362323134     -1.31098525894773
  C   1.33403252402237      1.32870128314393     -1.09096561824544
  N   1.81010788118366      2.27760136783941     -1.59315205869720
  N   1.32659451844138     -0.07718931101908      0.87600502844302
  O   1.27097091935622      0.89245048660424      1.62091804681105
  O   1.76477147580332     -1.18882754232051      1.11982483216083
  C   -1.41918302310947     -0.87942307463205      0.41763630311750
  H   -1.16346215441154     -1.81955837288501     -0.07206868442595
  H   -2.50553364088017     -0.78091882656953      0.42080582628013
  H   -1.08896705355116     -0.92933188142491      1.45684634868143
