14
Coordinates from ORCA-job run
  C   0.85046479802811      0.11540649535865     -0.46684943988617
  C   -0.43242983149361     -0.68266009520868     -0.58319843180642
  F   1.78962069449907     -0.38590709140819     -1.31134354001254
  H   -0.75726729397664     -0.58398655335359     -1.62312349633157
  H   -0.15053416439105     -1.72758748997756     -0.42227374488683
  C   0.67470827645586      1.54793454317892     -0.72394945894201
  N   0.49396400432982      2.67504485858935     -1.00011261775756
  N   1.39125521709792     -0.05742490807719      0.95603778272686
  O   1.10068623352714      0.81606401978653      1.76461261098915
  O   2.00243081799447     -1.09463505575915      1.16329613106173
  C   -1.52558461081742     -0.23605334851548      0.38036725750984
  H   -2.43566147646596     -0.80557054391268      0.18671050211782
  H   -1.75896014052481      0.82337772647952      0.25744444989534
  H   -1.24269252426289     -0.40300255718046      1.42038199532236
