14
Coordinates from ORCA-job run
  C   0.69172928599255      0.14098199974035     -0.50856462938466
  C   -0.80276073871255      0.30646655778487     -0.31188199068407
  F   0.96513082616560     -0.95824708670398     -1.25288712079289
  H   -0.97013322541384      1.24687479934158      0.21744809887378
  H   -1.23204767353347      0.40480358958120     -1.31338853178041
  C   1.33058068353958      1.31504730149848     -1.11181119437354
  N   1.82024909017900      2.24567353519582     -1.63478253386349
  N   1.32753925889596     -0.06637080052121      0.87267738697753
  O   1.76599606715458     -1.17528050746039      1.12814522138337
  O   1.27384163217937      0.91198286761741      1.60630015785219
  C   -1.41846430934909     -0.87203646334416      0.43527326821444
  H   -2.50559787361160     -0.78138785134064      0.42945488968271
  H   -1.15298287652873     -1.81987797653466     -0.03429573904145
  H   -1.09408014695735     -0.89862996485467      1.47731271693649
