14
Coordinates from ORCA-job run
  C   0.81436139582175      0.07195818461935     -0.30004766958207
  C   -0.66088711612992     -0.05584766947815     -0.62699612924904
  F   1.42297108437307     -1.13901751700672     -0.31824054776822
  H   -1.08133838578787      0.95052496072237     -0.68163989884900
  H   -0.71335762079005     -0.49557273458237     -1.62740393268913
  C   1.52596887804857      0.99483161176954     -1.19023118145013
  N   2.07379584856007      1.71196581749069     -1.94182864207313
  N   0.93408566392425      0.62750605877718      1.12547998561669
  O   1.34418615710033     -0.12849213190754      1.99007889379094
  O   0.54331866764644      1.78034140426348      1.25398019664703
  C   -1.40297180949960     -0.91672636417824      0.38997339038002
  H   -2.42194576781307     -1.09530644112310      0.04364059205014
  H   -1.46544785009622     -0.42377015028717      1.36199672061082
  H   -0.91373914535776     -1.88239502907933      0.52223822256509
