14
Coordinates from ORCA-job run
  C   0.76707887680277      0.12787970382891     -0.39344708847254
  C   -0.73393704220956     -0.02764834376446     -0.54260651264587
  F   1.40126985514094     -1.05188395567524     -0.60018719967203
  H   -1.18491961051996      0.96290098392047     -0.45385151058552
  H   -0.90254563386025     -0.38226681708954     -1.56378604447549
  C   1.33187065464178      1.15382797600829     -1.27597630315987
  N   1.75545132609031      1.95922452829900     -2.01854786427663
  N   1.05475707430201      0.55975293588387      1.05114281339467
  O   1.60563511791054     -0.24781104685771      1.77988468827179
  O   0.64254103879722      1.67639535734861      1.33685005896961
  C   -1.31610100866600     -0.99937739774126      0.47854514850684
  H   -1.26481581220246     -0.59401845634721      1.49089340618727
  H   -2.36654134292040     -1.18458955560659      0.24955161175652
  H   -0.78974349330693     -1.95438591220713      0.46053479620126
