14
Coordinates from ORCA-job run
  C   0.86296388529956      0.09402692925788     -0.44675297971247
  C   -0.43279999396780     -0.67882267075723     -0.58729253777721
  F   1.81134491939240     -0.43398713700263     -1.26460283169468
  H   -0.17596550134069     -1.72762604675409     -0.41053132143730
  H   -0.73041838643591     -0.58309003025559     -1.63556972058626
  C   0.72385542815861      1.52760096622776     -0.71987321900316
  N   0.57473855212820      2.65588519115459     -1.01006800884935
  N   1.36651939316155     -0.07752244372980      0.98980406701172
  O   1.94810150366935     -1.12662069263164      1.22046592016407
  O   1.07897282532103      0.81079747143834      1.78322927343942
  C   -1.53933773342150     -0.20170461176467      0.34586345079775
  H   -1.28154617692430     -0.35774789246426      1.39403159873608
  H   -2.45370157551013     -0.76038309759906      0.14079376818908
  H   -1.75372713953038      0.85919406488040      0.20250254072230
