14
Coordinates from ORCA-job run
  C   0.85940828043189      0.10153006793884     -0.45383114153314
  C   -0.43501219211323     -0.67423795372204     -0.59229045876279
  F   1.80361758075193     -0.41457269995880     -1.28352728861405
  H   -0.74231000258240     -0.56704665479915     -1.63662332120291
  H   -0.17314780845830     -1.72415571725519     -0.43046678648996
  C   0.71201340189052      1.53730431039078     -0.71076819129558
  N   0.55449896908672      2.66853060724538     -0.98394122356394
  N   1.37351753085203     -0.08185098495594      0.97772101271153
  O   1.08367865547636      0.79531238134902      1.78239438038351
  O   1.96617937586419     -1.12819334606965      1.19298976291593
  C   -1.53443195973900     -0.21185812030756      0.35650573376948
  H   -1.74440525169755      0.85286145703635      0.23741259976493
  H   -2.45284707098197     -0.76108923566818      0.14475699034616
  H   -1.27175950878118     -0.39153411122386      1.39966793157083
