14
Coordinates from ORCA-job run
  C   0.85636395401261      0.13521936910098     -0.44769447514683
  C   -0.41817136437689     -0.66746378305143     -0.61113755991345
  F   1.81565231506536     -0.33809924360259     -1.28604733763231
  H   -0.72809337554384     -0.53590263094964     -1.65195576405716
  H   -0.13069408674376     -1.71512507241930     -0.48070926604922
  C   0.67735977769907      1.57297296579470     -0.67236970885305
  N   0.50265182114983      2.70532980392464     -0.93026132061775
  N   1.37041864908857     -0.07030970755581      0.98035634823752
  O   1.05877158920562      0.78068563974034      1.80478791586760
  O   1.98709947481331     -1.10710032027589      1.17322802864224
  C   -1.52935771099624     -0.26236630572513      0.35020007148531
  H   -2.43389249487685     -0.82622667669501      0.11803443699826
  H   -1.26334569577084     -0.47101268565807      1.38716634763474
  H   -1.76476285272594      0.80039864737221      0.26640228340410
