14
Coordinates from ORCA-job run
  C   0.85388587652230      0.10452041251999     -0.46347702140414
  C   -0.43741649822721     -0.67901788181066     -0.58498539229231
  F   1.79197974958276     -0.40887644310046     -1.30183900403797
  H   -0.75647157010957     -0.57842568830063     -1.62649418487078
  H   -0.16804193948196     -1.72676301442801     -0.42095832773844
  C   0.69551913080361      1.53855982564336     -0.72372964713335
  N   0.52752089911163      2.66730582299281     -1.00151193107912
  N   1.38499654931897     -0.07168915661142      0.96284684276325
  O   1.98212241833192     -1.11612570998932      1.17539807290076
  O   1.10215801368056      0.80765809198298      1.76777249989519
  C   -1.52922405213668     -0.21847878244613      0.37376201430482
  H   -1.74446333938515      0.84530730774050      0.25453060439388
  H   -2.44736105808150     -0.77206048574178      0.17191722833622
  H   -1.25520417992970     -0.39491429845122      1.41476824596199
