18

C	-0.258238	-0.007838	-1.495902
C	0.0	0.0	0.0
Cl	-2.022853	-0.212355	-1.923874
H	1.093538	0.0	0.0
C	0.197105	1.217915	-2.162228
N	0.603433	2.103794	-2.817981
C	0.545269	-1.160653	-2.105718
H	0.543522	-1.086454	-3.19403
H	0.111396	-2.118261	-1.817965
H	1.559419	-1.059811	-1.699783
C	-0.430179	-1.254676	0.733398
H	-1.496836	-1.471269	0.620195
H	0.158711	-2.097613	0.372661
H	-0.198608	-1.126872	1.788804
N	-0.539876	1.199634	0.674073
O	-0.555573	1.200056	1.90721
O	-0.926201	2.148537	-0.011935
F	2.54946	0.0	0.0
