18

C	-0.477963	-0.007145	-1.458802
C	0.0	0.0	0.0
Cl	0.269181	1.349604	-2.383923
H	1.091036	0.0	0.0
C	0.00191	-1.243556	-2.083364
N	0.324562	-2.250589	-2.595143
C	-1.990877	0.089692	-1.649684
H	-2.356817	1.03005	-1.237293
H	-2.48553	-0.736511	-1.135596
H	-2.236467	0.047712	-2.712408
C	-0.432765	-1.238289	0.763165
H	0.095814	-2.096116	0.343933
H	-0.093907	-1.128616	1.795498
H	-1.509266	-1.423334	0.774381
N	-0.545631	1.213743	0.659511
O	-1.612254	1.114655	1.284627
O	0.077346	2.266735	0.544754
F	2.535689	0.0	0.0
