18

C	-0.289072	0.074242	-1.514986
C	0.0	0.0	0.0
Cl	0.17522	-1.522205	-2.228849
H	1.090913	0.0	0.0
C	-1.712854	0.247365	-1.819763
N	-2.853301	0.395705	-2.064717
C	0.600444	1.129516	-2.165218
H	1.600634	0.958845	-1.749156
H	0.580068	1.030255	-3.250447
H	0.260628	2.13095	-1.886364
C	-0.622088	-1.168216	0.728206
H	-0.483016	-1.031732	1.801512
H	-0.100533	-2.077573	0.437346
H	-1.694209	-1.275602	0.533826
N	-0.491396	1.279331	0.595979
O	0.225278	2.277321	0.505832
O	-1.596669	1.278028	1.153049
F	2.596351	0.0	0.0
