18

C	-0.246749	-0.052809	-1.498538
C	0.0	0.0	0.0
Cl	-2.016027	-0.245621	-1.919315
H	1.093726	0.0	0.0
C	0.219578	1.138747	-2.218104
N	0.612076	1.965557	-2.95317
C	0.546215	-1.232353	-2.064784
H	0.558674	-1.191984	-3.155735
H	1.556304	-1.122445	-1.649822
H	0.107429	-2.177494	-1.749847
C	-0.439334	-1.230439	0.76543
H	-0.161372	-1.100306	1.809112
H	-1.517198	-1.412664	0.70201
H	0.104707	-2.097972	0.390769
N	-0.533546	1.224441	0.630444
O	-0.726565	1.207174	1.849644
O	-0.717613	2.221158	-0.071276
F	2.547012	0.0	0.0
