18

C	-0.240672	-0.043004	-1.503582
C	0.0	0.0	0.0
Cl	-2.012085	-0.246842	-1.916711
H	1.093654	0.0	0.0
C	0.199648	1.158319	-2.221328
N	0.586945	1.999589	-2.943966
C	0.563282	-1.208936	-2.079681
H	1.570105	-1.092351	-1.662821
H	0.128142	-2.160026	-1.77122
H	0.575129	-1.163234	-3.170028
C	-0.456218	-1.234958	0.74502
H	-0.262481	-1.092453	1.806834
H	-1.517912	-1.456767	0.612556
H	0.148776	-2.080688	0.41815
N	-0.547487	1.229207	0.608936
O	-1.222536	1.131606	1.640399
O	-0.27524	2.304776	0.074484
F	2.557478	0.0	0.0
