15

C	-0.415009	0.004571	-1.481923
C	0.0	0.0	0.0
Cl	-2.223222	0.012881	-1.652446
H	1.097592	0.0	0.0
C	0.080519	1.20876	-2.154871
N	0.464191	2.166508	-2.717441
C	0.071961	-1.18699	-2.181735
N	0.433108	-2.135448	-2.774284
C	-0.491939	-1.216311	0.63477
N	-0.896716	-2.174703	1.18118
C	-0.450999	1.249974	0.752512
H	-1.538174	1.341199	0.794869
H	-0.055352	1.196161	1.767951
H	-0.022245	2.135633	0.279453
Cl	3.19057	0.0	0.0
