15

C	0.0	0.0	0.0
C	-0.408807	-0.218695	-1.473379
Cl	1.761502	0.0	0.0
H	-1.45065	-0.527816	-1.401746
H	0.22982	-1.042324	-1.812267
N	-0.442972	1.280136	0.682807
O	-0.592285	1.219904	1.894452
O	-0.470277	2.301034	0.01078
C	-0.458229	-1.133056	0.805399
N	-0.598312	-2.142197	1.392138
C	-0.271938	0.961598	-2.424366
H	-1.05413	1.688983	-2.222533
H	-0.395912	0.590284	-3.44726
H	0.697081	1.461848	-2.35824
F	-2.419274	0.0	0.0
