15

C	0.0	0.0	0.0
C	-0.429323	0.226612	-1.451228
Cl	1.764009	0.0	0.0
H	0.198402	1.022486	-1.862033
H	-1.480115	0.505114	-1.357568
N	-0.436327	1.152642	0.91351
O	-0.726388	0.92145	2.076994
O	-0.338571	2.26445	0.402081
C	-0.465204	-1.25648	0.57227
N	-0.668692	-2.334138	0.996393
C	-0.313255	-1.064918	-2.255295
H	0.677854	-1.526519	-2.199488
H	-1.050446	-1.782574	-1.893597
H	-0.529807	-0.870597	-3.308719
F	-2.456672	0.0	0.0
