15

C	0.0	0.0	0.0
C	-0.408756	-0.096374	-1.484665
Cl	1.760979	0.0	0.0
H	-1.481403	-0.2932	-1.427351
H	0.131533	-0.978075	-1.848591
N	-0.450152	1.232434	0.760416
O	-0.505054	2.286805	0.144256
O	-0.57991	1.101992	1.968943
C	-0.468501	-1.184393	0.720003
N	-0.613786	-2.231597	1.234196
C	-0.104228	1.095443	-2.383257
H	0.906497	1.489776	-2.253599
H	-0.208885	0.772853	-3.42445
H	-0.813172	1.899187	-2.199708
F	-2.442358	0.0	0.0
