15

C	0.0	0.0	0.0
C	-0.401195	-0.237221	-1.462876
Cl	1.76681	0.0	0.0
H	-1.39218	0.196657	-1.549856
H	0.325366	0.277655	-2.096628
N	-0.407689	1.393666	0.459741
O	-0.449748	2.259041	-0.403193
O	-0.526821	1.570217	1.663657
C	-0.503562	-0.983251	0.950037
N	-0.618664	-1.836275	1.752783
C	-0.47282	-1.724118	-1.776312
H	-0.633026	-1.872823	-2.848537
H	0.433814	-2.266496	-1.49135
H	-1.325131	-2.13752	-1.236765
F	-2.393264	0.0	0.0
