15

C	0.0	0.0	0.0
C	-0.399426	0.073578	-1.478948
Cl	1.770622	0.0	0.0
H	0.245467	0.817472	-1.955059
H	-1.440032	0.392452	-1.453032
N	-0.420127	1.255994	0.746912
O	-0.506313	1.164883	1.962779
O	-0.511665	2.281946	0.089278
C	-0.499758	-1.169359	0.710362
N	-0.618173	-2.199142	1.267679
C	-0.276338	-1.282314	-2.158789
H	0.729752	-1.707992	-2.077516
H	-0.515665	-1.182331	-3.222314
H	-0.993292	-1.977239	-1.715116
F	-2.417855	0.0	0.0
