15

C	0.0	0.0	0.0
C	-0.404341	0.053908	-1.4794
Cl	1.763146	0.0	0.0
H	-1.441197	0.384483	-1.453391
H	0.247191	0.780787	-1.971241
N	-0.422324	1.26942	0.727598
O	-0.495678	2.287136	0.054786
O	-0.528453	1.199588	1.943038
C	-0.508482	-1.15755	0.72516
N	-0.620636	-2.186345	1.285725
C	-0.306427	-1.315759	-2.133659
H	-1.038762	-1.985651	-1.678035
H	0.689965	-1.761567	-2.04237
H	-0.540667	-1.231306	-3.199338
F	-2.419553	0.0	0.0
