16

C	0.0	0.0	0.0
C	-0.486096	-0.180907	-1.423567
F	1.41132	0.0	0.0
H	-1.577735	-0.246095	-1.300159
H	-0.091298	-1.132779	-1.802198
N	-0.575934	1.169226	0.560343
H	-0.388822	1.167828	1.559706
H	-1.606883	0.911703	0.438135
N	-0.323339	-1.200083	0.77213
H	0.14294	-1.095687	1.669255
H	0.125947	-1.985705	0.308242
C	-0.056805	0.963861	-2.330348
H	-0.432834	1.907687	-1.934337
H	1.034094	1.032147	-2.39522
H	-0.452551	0.828051	-3.341701
F	-2.923487	0.0	0.0
