16

C	0.0	0.0	0.0
C	-0.427721	-0.207523	-1.452104
F	1.388121	0.0	0.0
H	-1.519616	-0.18414	-1.430516
H	-0.056976	0.660645	-2.007834
N	-0.469607	1.300857	0.423111
H	-1.494444	1.157175	0.345688
H	-0.260855	1.388763	1.416049
N	-0.468797	-1.118537	0.790135
H	-0.236192	-0.922878	1.764396
H	-1.494947	-0.99175	0.687188
C	0.112918	-1.501125	-2.048576
H	-0.208248	-1.61458	-3.089684
H	1.206166	-1.516507	-2.027432
H	-0.245587	-2.358349	-1.47694
F	-2.864267	0.0	0.0
