16

C	0.0	0.0	0.0
C	-0.409887	-0.185902	-1.462925
F	1.394428	0.0	0.0
H	-1.501383	-0.128243	-1.447719
H	-0.009004	0.672109	-2.019928
N	-0.462159	1.248951	0.562508
H	-1.486944	1.110784	0.499773
H	-0.218074	1.999838	-0.079043
N	-0.494027	-1.102222	0.774492
H	-1.516517	-0.998301	0.624616
H	-0.323559	-0.850991	1.74506
C	0.092673	-1.486997	-2.076269
H	-0.305891	-2.337799	-1.522664
H	-0.218345	-1.574445	-3.123786
H	1.184042	-1.542303	-2.035847
F	-2.865577	0.0	0.0
