16

C	0.0	0.0	0.0
C	-0.388312	0.254192	-1.453529
F	1.443115	0.0	0.0
H	-1.47982	0.308045	-1.429858
H	0.016276	1.237064	-1.731228
N	-0.448105	1.024121	0.907204
H	-1.47417	0.914668	0.808287
H	-0.198107	1.931755	0.523666
N	-0.482624	-1.2802	0.414936
H	-1.507383	-1.136619	0.306242
H	-0.314784	-1.318019	1.417957
C	0.116958	-0.812258	-2.417623
H	-0.203463	-0.599807	-3.443904
H	1.207892	-0.866781	-2.400922
H	-0.271468	-1.788406	-2.126312
F	-2.848583	0.0	0.0
