16

C	0.0	0.0	0.0
C	-0.400237	-0.080368	-1.471905
F	1.41625	0.0	0.0
H	-1.493381	-0.120301	-1.451019
H	-0.010109	-1.031165	-1.858677
N	-0.486864	1.221764	0.56703
H	-1.509011	1.093214	0.442892
H	-0.313833	1.146424	1.56451
N	-0.456808	-1.127484	0.777673
H	-0.20478	-1.98055	0.287079
H	-1.481353	-1.004388	0.688032
C	0.123102	1.07565	-2.3132
H	-0.240944	2.020368	-1.911145
H	1.214575	1.103923	-2.299069
H	-0.204562	0.989943	-3.355459
F	-2.85951	0.0	0.0
