16

C	0.0	0.0	0.0
C	-0.458388	-0.229662	-1.460679
Cl	1.785822	0.0	0.0
H	0.39128	-0.594785	-2.049088
H	-0.287307	-0.922005	0.505231
C	-0.625334	1.169632	0.723765
H	-0.348589	1.135068	1.780896
H	-1.712555	1.020532	0.6147
H	-0.301802	2.120522	0.302781
N	-0.666991	1.160636	-2.162065
O	0.208705	2.014676	-2.017396
O	-1.636739	1.280634	-2.906403
N	-1.560928	-1.081757	-1.539521
H	-2.355252	-0.697363	-0.90969
H	-1.873951	-1.133073	-2.499689
F	-3.224427	0.0	0.0
