16

C	0.0	0.0	0.0
C	-0.629632	-0.133572	-1.360589
Cl	1.792594	0.0	0.0
H	-1.736403	-0.144567	-1.054811
H	-0.298495	-0.873549	0.573295
C	-0.49261	1.260577	0.684574
H	-1.585667	1.16955	0.668794
H	-0.161183	2.142674	0.13518
H	-0.111741	1.304651	1.708591
N	-0.31124	-1.507888	-1.928309
O	-0.047461	-1.590263	-3.132713
O	-0.381092	-2.477132	-1.175426
N	-0.296112	0.91949	-2.256978
H	0.655455	0.815815	-2.590096
H	-0.911349	0.892328	-3.057803
F	-2.917215	0.0	0.0
