16

C	0.0	0.0	0.0
C	-0.651479	0.099609	-1.354215
Cl	1.782231	0.0	0.0
H	-1.755978	0.0255	-1.033088
H	-0.29827	-0.958677	0.417453
C	-0.49457	1.121185	0.895595
H	-0.167993	2.086356	0.506244
H	-0.107592	0.988232	1.90975
H	-1.587042	1.032297	0.87111
N	-0.335301	-1.145422	-2.157495
O	-0.066117	-1.013712	-3.35664
O	-0.406461	-2.234002	-1.589492
N	-0.357293	1.301388	-2.060704
H	-1.047759	1.434869	-2.789115
H	0.552917	1.242837	-2.505493
F	-2.935315	0.0	0.0
