16

C	0.0	0.0	0.0
C	-0.41949	-0.511297	-1.427089
Cl	1.792592	0.0	0.0
H	0.398891	-1.131792	-1.79301
H	-0.304263	-0.792051	0.685719
C	-0.627781	1.311121	0.398867
H	-0.369938	1.569188	1.430928
H	-0.294103	2.121139	-0.256221
H	-1.715715	1.141799	0.315692
N	-0.391849	0.705741	-2.352815
O	-1.456374	1.161731	-2.751744
O	0.71641	1.18593	-2.607384
N	-1.659169	-1.164446	-1.580764
H	-1.55033	-2.132683	-1.31366
H	-2.413532	-0.701225	-0.969093
F	-3.22819	0.0	0.0
