16

C	0.0	0.0	0.0
C	-0.463375	-0.271416	-1.455605
Cl	1.785979	0.0	0.0
H	0.386312	-0.639564	-2.039336
H	-0.291552	-0.902774	0.535691
C	-0.617586	1.201793	0.675292
H	-0.285742	2.132172	0.214468
H	-0.343764	1.21279	1.733153
H	-1.705697	1.056674	0.570375
N	-0.694051	1.106632	-2.166536
O	0.240434	1.910335	-2.149328
O	-1.755313	1.283854	-2.756122
N	-1.55874	-1.138045	-1.50051
H	-2.358138	-0.73059	-0.891333
H	-1.870485	-1.242576	-2.457929
F	-3.219374	0.0	0.0
