16

C	0.0	0.0	0.0
C	-0.552274	0.007623	-1.403154
Cl	1.79456	0.0	0.0
H	-1.661791	-0.039903	-1.176043
H	-0.323696	-0.920512	0.476159
C	-0.475883	1.208962	0.780635
H	-0.10791	1.15416	1.809064
H	-0.105726	2.123074	0.314382
H	-1.570064	1.143402	0.739883
N	-0.146794	-1.303542	-2.073572
O	0.356744	-1.251137	-3.200595
O	-0.36211	-2.349653	-1.466289
N	-0.145379	1.142937	-2.156984
H	-0.628716	1.161626	-3.043894
H	0.849287	1.093607	-2.347314
F	-2.848211	0.0	0.0
