16

C	0.0	0.0	0.0
C	-0.373084	-0.394745	-1.456939
Cl	1.792075	0.0	0.0
H	0.339599	-1.162164	-1.766669
H	-0.292811	-0.867671	0.595564
C	-0.642572	1.232248	0.575288
H	-0.348535	2.136757	0.042214
H	-0.36732	1.330375	1.630916
H	-1.728573	1.06081	0.486346
N	-0.021554	0.771821	-2.381155
O	0.9175	0.625553	-3.172464
O	-0.734163	1.774407	-2.319969
N	-1.700614	-0.78815	-1.741327
H	-2.437117	-0.398883	-1.046843
H	-1.736652	-1.7993	-1.716994
F	-3.31209	0.0	0.0
