16

C	0.0	0.0	0.0
C	-0.448172	-0.117723	-1.481806
Cl	1.788306	0.0	0.0
H	0.39426	-0.465712	-2.087806
H	-0.297026	-0.947902	0.447427
C	-0.62417	1.143461	0.762703
H	-0.352934	1.080843	1.819792
H	-1.71236	1.007302	0.644749
H	-0.293676	2.107873	0.372528
N	-0.594559	1.344455	-2.033991
O	0.441566	2.006385	-2.130264
O	-1.707101	1.739173	-2.363936
N	-1.586171	-0.912263	-1.624093
H	-1.888816	-0.912974	-2.590123
H	-2.383902	-0.564981	-0.967792
F	-3.252431	0.0	0.0
