15

C	0.0	0.0	0.0
C	-0.443879	0.180688	-1.480105
Cl	1.783081	0.0	0.0
H	0.441191	0.307937	-2.109231
H	-0.268643	-1.009341	0.304093
N	-0.518585	1.029462	0.85384
H	-1.54066	0.8734	0.735171
H	-0.293533	0.752468	1.805307
N	-1.373725	1.204534	-1.7202
H	-1.601876	1.210284	-2.705586
H	-2.205599	0.932159	-1.15203
N	-0.936082	-1.218101	-1.999796
O	-1.722727	-1.201675	-2.94232
O	-0.427064	-2.239217	-1.54239
F	-2.819283	0.0	0.0
