15

C	0.0	0.0	0.0
C	-0.503744	0.001743	-1.449761
Cl	1.821362	0.0	0.0
H	-1.601815	0.075249	-1.273299
H	-0.287166	-0.988299	0.354688
N	-0.537286	0.974155	0.882618
H	-0.423438	1.88774	0.456503
H	-1.558094	0.732956	0.796362
N	-0.131376	-1.180396	-2.148084
H	0.856735	-1.160304	-2.367664
H	-0.646441	-1.245444	-3.015324
N	-0.045991	1.26135	-2.165427
O	0.680881	1.145111	-3.156725
O	-0.423236	2.345863	-1.718269
F	-2.795401	0.0	0.0
