15

C	0.0	0.0	0.0
C	-0.411271	0.230273	-1.483516
Cl	1.857377	0.0	0.0
H	0.468111	0.343076	-2.123287
H	-0.273505	-1.008007	0.288888
N	-0.508791	0.918854	0.951089
H	-1.520172	0.672044	0.924251
H	-0.43367	1.848682	0.551273
N	-1.292693	1.322638	-1.627324
H	-2.12881	1.027622	-1.070303
H	-1.537807	1.425731	-2.603109
N	-1.000248	-1.096688	-2.040665
O	-0.561949	-2.16279	-1.616314
O	-1.79289	-0.992592	-2.9723
F	-2.78332	0.0	0.0
