15

C	0.0	0.0	0.0
C	-0.40991	0.193346	-1.489178
Cl	1.858366	0.0	0.0
H	0.471136	0.288828	-2.129926
H	-0.27543	-0.999845	0.315151
N	-0.506443	0.943731	0.928147
H	-1.517994	0.696417	0.90811
H	-0.432751	1.862964	0.503017
N	-1.289342	1.284664	-1.660426
H	-1.541708	1.357887	-2.637363
H	-2.124185	1.003444	-1.094464
N	-0.999218	-1.144868	-2.016174
O	-0.549901	-2.200511	-1.577373
O	-1.801336	-1.062008	-2.942066
F	-2.777002	0.0	0.0
