15

C	0.0	0.0	0.0
C	-0.439646	0.089468	-1.495163
Cl	1.786405	0.0	0.0
H	0.432133	0.13146	-2.154354
H	-0.301261	-0.969218	0.382599
N	-0.51868	1.008062	0.865947
H	-1.529532	0.767496	0.852884
H	-0.434997	1.896504	0.381625
N	-1.314857	1.170418	-1.734824
H	-2.146887	0.92857	-1.146256
H	-1.570835	1.175986	-2.713366
N	-1.042759	-1.2797	-1.916989
O	-0.584406	-2.302604	-1.414374
O	-1.861967	-1.260438	-2.831067
F	-2.801536	0.0	0.0
