15

C	0.0	0.0	0.0
C	-0.425861	0.099417	-1.506118
Cl	1.841868	0.0	0.0
H	0.486636	0.189712	-2.103669
H	-0.257072	-0.97833	0.401542
N	-0.509557	1.120372	0.726914
H	-1.534864	0.904202	0.656872
H	-0.233238	1.007421	1.697459
N	-1.355655	1.114131	-1.880636
H	-0.968693	1.983335	-1.527137
H	-2.183438	0.886314	-1.29923
N	-0.9607	-1.255661	-1.930975
O	-0.322224	-2.232608	-1.532967
O	-1.914255	-1.31256	-2.691863
F	-2.749823	0.0	0.0
