15

C	0.0	0.0	0.0
C	-0.436827	0.258425	-1.490543
Cl	1.789091	0.0	0.0
H	0.473791	0.43138	-2.072528
H	-0.28709	-1.007941	0.295478
N	-0.522844	1.044585	0.832941
H	-0.236797	0.849556	1.787041
H	-1.545314	0.831738	0.750096
N	-1.386178	1.287457	-1.755803
H	-2.209708	0.989616	-1.196216
H	-1.012551	2.123167	-1.317961
N	-0.941577	-1.054008	-2.058201
O	-0.260406	-2.046249	-1.791165
O	-1.920193	-1.05887	-2.788532
F	-2.77743	0.0	0.0
