15

C	0.0	0.0	0.0
C	-0.42753	-0.212738	-1.47868
Cl	1.829662	0.0	0.0
H	0.464509	-0.256174	-2.109248
H	-0.249127	-0.897701	0.56123
N	-0.508574	1.215968	0.555322
H	-0.272849	1.200391	1.543987
H	-1.532483	1.031519	0.48616
N	-1.352899	0.714423	-1.983104
H	-2.187249	0.602169	-1.368567
H	-1.576983	0.464462	-2.937047
N	-0.921494	-1.695304	-1.609895
O	-0.381371	-2.562044	-0.926418
O	-1.745996	-1.924519	-2.489249
F	-2.79739	0.0	0.0
