15

C	0.0	0.0	0.0
C	-0.500441	-0.019519	-1.460052
Cl	1.844001	0.0	0.0
H	-1.573056	0.2027	-1.313063
H	-0.293786	-0.966086	0.408082
N	-0.511647	1.024527	0.840247
H	-1.535977	0.803837	0.767593
H	-0.365346	1.912451	0.371035
N	-0.338742	-1.252842	-2.170376
H	0.579137	-1.648714	-2.002482
H	-1.047656	-1.884575	-1.81841
N	0.142165	1.089809	-2.227763
O	0.967959	0.819384	-3.096115
O	-0.167413	2.239417	-1.899469
F	-2.763417	0.0	0.0
