15

C	0.0	0.0	0.0
C	-0.416571	0.302672	-1.496
Cl	1.796742	0.0	0.0
H	0.48828	0.539771	-2.064917
H	-0.310654	-1.008069	0.254353
N	-0.521951	0.885376	0.988203
H	-1.542748	0.689024	0.893285
H	-0.348537	1.844398	0.704931
N	-1.411196	1.288967	-1.740632
H	-1.036483	2.195551	-1.491072
H	-2.196757	1.012233	-1.111019
N	-0.865001	-1.013082	-2.120595
O	-0.207434	-2.009504	-1.811501
O	-1.783651	-1.009953	-2.926925
F	-2.787623	0.0	0.0
