16

C	0.0	0.0	0.0
C	-0.359127	-0.203864	-1.46459
Br	1.948677	0.0	0.0
H	0.351163	0.312828	-2.109794
H	-0.372598	-0.831721	0.58519
C	-0.41658	1.344288	0.579539
H	-0.036628	2.167208	-0.028384
H	-0.003838	1.431603	1.588183
H	-1.508355	1.30783	0.588671
N	-1.691084	0.29612	-1.996731
O	-1.762368	1.517348	-2.044994
O	-2.409441	-0.497058	-2.58346
N	-0.234287	-1.645821	-1.862884
O	0.123327	-1.84398	-3.024397
O	-0.493914	-2.515225	-1.03944
F	-2.570142	0.0	0.0
