16

C	0.0	0.0	0.0
C	-0.637402	0.003321	-1.363675
Br	1.945359	0.0	0.0
H	-1.765309	0.134342	-1.053644
H	-0.315071	-0.930251	0.465536
C	-0.450865	1.187293	0.842389
H	-0.071632	1.069116	1.859904
H	-0.070417	2.124181	0.434076
H	-1.542606	1.156507	0.823825
N	-0.522177	-1.287553	-2.093169
O	-0.016797	-2.253312	-1.522997
O	-1.015855	-1.31162	-3.21846
N	-0.063876	1.057856	-2.238763
O	-0.456539	2.206539	-2.035836
O	0.800745	0.743314	-3.056154
F	-2.81074	0.0	0.0
