16

C	0.0	0.0	0.0
C	-0.378293	-0.034798	-1.472529
Br	1.963992	0.0	0.0
H	0.357167	0.495147	-2.077047
H	-0.359944	-0.898557	0.485685
C	-0.401166	1.258668	0.757215
H	-0.013919	2.153348	0.267997
H	-1.492704	1.235084	0.768544
H	0.014307	1.200744	1.7671
N	-1.68054	0.600039	-1.925906
O	-1.690911	1.818449	-1.797716
O	-2.433633	-0.063339	-2.619277
N	-0.347203	-1.436531	-2.012391
O	-0.025646	-1.536606	-3.196841
O	-0.634017	-2.370145	-1.272694
F	-2.554901	0.0	0.0
