16

C	0.0	0.0	0.0
C	-0.320065	-0.03349	-1.496927
Br	1.951767	0.0	0.0
H	0.250547	-0.84206	-1.949441
H	-0.338633	-0.950909	0.404235
C	-0.445636	1.16148	0.869932
H	0.037022	2.090959	0.574158
H	-0.16642	0.930621	1.902351
H	-1.535564	1.176711	0.758742
N	0.148301	1.183838	-2.237876
O	0.775956	0.966559	-3.276611
O	-0.126733	2.292788	-1.795931
N	-1.734324	-0.327452	-1.989543
O	-2.342448	0.568212	-2.554322
O	-1.993571	-1.522212	-2.019322
F	-2.602731	0.0	0.0
