16

C	0.0	0.0	0.0
C	-0.442403	0.097028	-1.454056
Br	1.954415	0.0	0.0
H	0.321838	-0.330979	-2.102945
H	-0.316563	-0.983689	0.33711
C	-0.429	1.077493	0.983248
H	-0.00278	2.047879	0.723312
H	-1.521412	1.073117	0.936859
H	-0.065285	0.795892	1.975443
N	-0.60671	1.484348	-1.991292
O	0.025898	1.718116	-3.027218
O	-1.332561	2.280225	-1.412597
N	-1.655225	-0.728453	-1.820841
O	-2.417689	-0.256552	-2.651154
O	-1.555138	-1.909543	-1.514273
F	-2.601351	0.0	0.0
