15

C	0.0	0.0	0.0
C	-0.503732	-0.522337	-1.329455
F	1.400485	0.0	0.0
H	-0.254393	0.232682	-2.090947
H	-1.5933	-0.570163	-1.239231
C	-0.504533	1.39345	0.299324
H	-1.597308	1.363792	0.335522
H	-0.172091	2.072908	-0.490237
H	-0.106991	1.736603	1.256994
C	-0.359615	-0.935274	1.088615
N	-0.584187	-1.666321	1.978167
N	0.046517	-1.844446	-1.597719
H	0.984976	-1.764155	-1.966256
H	-0.53005	-2.324181	-2.274849
Cl	-3.818822	0.0	0.0
