15

C	0.0	0.0	0.0
C	-0.475586	0.180718	-1.442479
Br	2.011017	0.0	0.0
H	-1.570804	0.192545	-1.407494
H	-0.096457	-0.623244	-2.071986
N	-0.469536	1.073107	0.801903
H	-0.21391	0.922623	1.771454
H	-1.494597	1.053529	0.720364
N	-0.45849	-1.282663	0.406952
H	-0.011913	-2.043984	-0.085057
H	-0.393831	-1.410926	1.406766
N	-0.020797	1.450044	-2.062019
O	0.967905	1.404196	-2.799777
O	-0.673223	2.463186	-1.818208
Br	-3.820003	0.0	0.0
