15

C	0.0	0.0	0.0
C	-0.45811	-0.151135	-1.455447
Br	1.973456	0.0	0.0
H	0.016085	0.614536	-2.062124
H	-1.549529	-0.074884	-1.466391
N	-0.41755	1.333551	0.387259
H	-1.440567	1.301531	0.428486
H	-0.069865	1.52902	1.319947
N	-0.447092	-1.122944	0.770373
H	-1.461681	-1.172604	0.64088
H	-0.267235	-0.939838	1.751304
N	-0.106228	-1.464887	-2.051657
O	0.905666	-1.515556	-2.755655
O	-0.85236	-2.41348	-1.823784
Br	-3.730874	0.0	0.0
