15

C	0.0	0.0	0.0
C	-0.427946	0.214055	-1.450807
Br	2.048237	0.0	0.0
H	-1.522022	0.333694	-1.417195
H	-0.138403	-0.635514	-2.064583
N	-0.480161	0.995035	0.837775
H	-0.298835	1.934528	0.523912
H	-0.259989	0.825671	1.806696
N	-0.43588	-1.257949	0.514339
H	-0.14164	-2.018031	-0.086207
H	-1.461267	-1.202089	0.540517
N	0.145374	1.41064	-2.121399
O	0.584753	1.263283	-3.260764
O	0.118928	2.484036	-1.519123
Br	-3.769152	0.0	0.0
