15

C	0.0	0.0	0.0
C	-0.479387	-0.204863	-1.438692
Br	1.971766	0.0	0.0
H	-1.573323	-0.238745	-1.410018
H	-0.111448	0.606291	-2.058992
N	-0.429651	1.337541	0.353281
H	-0.127453	1.536901	1.301351
H	-1.454159	1.302374	0.355734
N	-0.416524	-1.106993	0.815136
H	-1.434468	-1.166502	0.732482
H	-0.187055	-0.910655	1.783566
N	-0.012742	-1.473069	-2.051979
O	0.935177	-1.40542	-2.840025
O	-0.611535	-2.505607	-1.757633
Br	-3.722339	0.0	0.0
