10
Coordinates from ORCA-job run
  C   0.14038545951326     -0.14500139151467     -0.48787802948180
  C   -1.08749094671189     -0.01525107911437      0.37942744633465
  F   0.46317911115267     -1.52273074110369     -0.55374957796076
  H   -0.86064960342853     -0.35522216574444      1.39296972424436
  H   -0.05944383028688      0.14820485619155     -1.52097222107410
  H   -1.41296924032697      1.02436316503314      0.41834154921212
  H   -1.89347942755711     -0.63451313688261     -0.01435505291161
  N   1.22043908148268      0.62949348381959      0.00580692481218
  H   1.44911447712735      0.35644274115385      0.95330663843597
  H   2.04191491903541      0.51421426816165     -0.57289740161101
