10
Coordinates from ORCA-job run
  C   0.15499069370947     -0.21397560406280     -0.48875727254920
  C   -1.03992812369374     -0.08304263541762      0.42458106151487
  F   0.33475957490402     -1.56541071627348     -0.78399472236937
  H   -0.80934226400588     -0.56016480255616      1.37831429951091
  H   -0.03982702760739      0.25326653997437     -1.46331395800904
  H   -1.29144501260935      0.96630529792530      0.59597955376603
  H   -1.90254699974856     -0.57964113972535     -0.01938311816551
  N   1.34449120618969      0.25546784522426      0.15516318497921
  H   1.16838299851545      1.07991246137737      0.71006036516967
  H   2.08046495434630      0.44828275353411     -0.50964939384756
