17

C	-0.007023	0.000738	0.01118
C	-0.571189	0.06533	-1.419837
F	1.389901	0.09198	-0.024505
H	-1.684743	0.066545	-1.234349
N	-0.531519	1.143501	0.693036
H	-1.559363	1.029107	0.577282
H	-0.308853	1.04654	1.678831
C	-0.372641	-1.335487	0.631631
H	0.064925	-2.176271	0.088079
H	-1.463266	-1.377333	0.625609
H	0.001221	-1.350946	1.660063
C	-0.103547	-1.027244	-2.255151
N	0.229039	-1.939351	-2.916856
N	-0.174514	1.360137	-2.064246
O	-1.00336	2.263965	-2.064704
O	0.957884	1.432791	-2.542408
F	-2.880598	0.123436	-0.094133
