17

C	-0.008234	-0.000981	0.011322
C	-0.576106	0.006014	-1.419578
F	1.388961	0.084329	-0.031527
H	-1.689206	0.018988	-1.230907
N	-0.527253	1.170887	0.646515
H	-0.302423	1.113704	1.634945
H	-1.555731	1.055347	0.538319
C	-0.375727	-1.309181	0.687758
H	0.058967	-2.172761	0.178723
H	-1.466415	-1.348982	0.686219
H	0.000926	-1.282664	1.714952
C	-0.1149	-1.122044	-2.210042
N	0.213059	-2.060797	-2.835818
N	-0.176874	1.271407	-2.118416
O	0.954874	1.320808	-2.601005
O	-1.003304	2.176746	-2.155587
F	-2.88154	0.125978	-0.091949
