16

C	0.0	0.0	0.0
C	-0.416741	-0.15109	-1.479862
F	1.384976	0.0	0.0
H	-0.11925	0.760353	-2.004217
C	-0.444689	1.31746	0.476004
N	-0.588152	2.41837	0.860045
C	-0.376194	-1.1289	0.949776
H	-1.456876	-1.211564	0.982994
H	0.034238	-0.877154	1.931087
H	0.094254	-2.046465	0.59799
C	-1.817629	-0.476471	-1.813384
N	-2.55236	-0.826909	-2.675987
N	0.471603	-1.21445	-2.097343
O	0.261004	-2.382681	-1.784914
O	1.35096	-0.830383	-2.865962
F	-2.522075	0.0	0.0
