16

C	0.0	0.0	0.0
C	-0.453774	-0.050181	-1.477634
F	1.379895	0.0	0.0
H	0.37548	0.36867	-2.056403
C	-0.433912	1.273492	0.594506
N	-0.543824	2.32286	1.113073
C	-0.380624	-1.199595	0.860802
H	-0.007523	-1.013534	1.870741
H	0.132882	-2.079045	0.464769
H	-1.462322	-1.293005	0.847634
C	-1.691987	0.644788	-1.840038
N	-2.33843	1.312228	-2.566695
N	-0.496261	-1.492012	-1.923108
O	-1.575916	-2.03575	-2.103875
O	0.606033	-2.027714	-2.050894
F	-2.497268	0.0	0.0
