16

C	0.0	0.0	0.0
C	-0.281171	-0.309264	-1.499291
F	1.389316	0.0	0.0
H	-0.022278	-1.360963	-1.643085
C	-0.471209	1.326237	0.407707
N	-0.575416	2.43196	0.794233
C	-0.401527	-1.124789	0.936348
H	0.174628	-2.013211	0.658361
H	-1.479528	-1.247137	0.839353
H	-0.131451	-0.837018	1.955296
C	0.601395	0.505884	-2.346732
N	1.308597	1.157507	-3.02054
N	-1.671397	-0.171452	-2.08203
O	-2.230656	-1.226805	-2.352091
O	-2.01343	0.950123	-2.424158
F	-2.489808	0.0	0.0
