16

C	0.0	0.0	0.0
C	-0.437516	-0.021088	-1.48449
F	1.383891	0.0	0.0
H	-0.210146	0.959522	-1.906802
C	-0.432206	1.287151	0.566423
N	-0.764216	2.356111	0.933496
C	-0.347487	-1.195349	0.878974
H	-1.422235	-1.302121	0.975832
H	0.10823	-2.078531	0.430245
H	0.122875	-1.017331	1.850371
C	-1.823674	-0.385352	-1.828751
N	-2.608852	-0.70719	-2.657793
N	0.497596	-0.951867	-2.230661
O	1.301475	-0.443503	-3.012683
O	0.391284	-2.15357	-1.996905
F	-2.502829	0.0	0.0
