16

C	0.0	0.0	0.0
C	-0.284656	-0.178392	-1.520067
F	1.389275	0.0	0.0
H	-0.036335	-1.215773	-1.752167
C	-0.471748	1.284507	0.520994
N	-0.57313	2.351784	1.005041
C	-0.397697	-1.195848	0.843878
H	-1.483777	-1.270663	0.793439
H	0.119894	-2.076287	0.448335
H	-0.052116	-1.019023	1.865973
C	0.606411	0.695621	-2.294335
N	1.335688	1.388801	-2.899729
N	-1.671309	0.024027	-2.09024
O	-2.239156	-0.995555	-2.459289
O	-2.008843	1.17428	-2.321367
F	-2.494412	0.0	0.0
