13
Coordinates from ORCA-job run
  C   -0.63323534350723      0.09619925294270     -0.33355567712319
  C   0.54444307536597     -0.81074915145369      0.05264258024508
  Br  -1.83040360843250     -1.09197480666033     -1.50249098906119
  H   0.13556832451972     -1.62272266531109      0.66148690758181
  H   0.92833320013092     -1.25829949250456     -0.87194690071563
  N   -1.29418184512756      0.64067060092141      0.77324775564305
  H   -1.50871654449272     -0.05011599925315      1.47887010620821
  H   -2.10985239263394      1.18594281400498      0.53137699573203
  C   -0.18881686573759      1.15887554986813     -1.23584458678558
  N   0.22594003736451      2.00776330547795     -1.93467033563490
  N   1.51568882734970     -0.06782335301991      0.83588392834247
  H   2.07966055596402      0.52084575391462      0.23506571646825
  H   2.13657257923669     -0.70961180892706      1.31093449909958
