13
Coordinates from ORCA-job run
  C   -0.56751332454478      0.23288780324727     -0.18729572728893
  C   0.58866985275950     -0.43392077419384      0.55863766805086
  Br  -1.04721026881886     -1.01481466873484     -1.73220400443416
  H   0.83429004857773      0.24532470332961      1.38016869403611
  H   0.19576809686067     -1.36506004190621      0.99523774430256
  N   -1.65573951542606      0.46947837000066      0.67991967134447
  H   -2.42445287736318      0.94091180161983      0.22100816383754
  H   -1.98545308674534     -0.38892603988077      1.10357629120554
  C   -0.14323237266039      1.47619588425690     -0.82571892555916
  N   0.19967008071944      2.49765035872157     -1.29331110036974
  N   1.74637548999849     -0.58873015509588     -0.29370599318288
  H   2.58935670298242     -0.65080749670100      0.25946787479128
  H   1.66947117366037     -1.41918974466331     -0.86478035673350
