13
Coordinates from ORCA-job run
  C   -0.72989736953248      0.04133376526077     -0.41835685189197
  C   0.49858178358616     -0.80224463543151     -0.03068923808278
  Br  -1.93962250970232     -1.10149569547285     -1.45186437664311
  H   0.94777327066234     -1.23209008833104     -0.93446621906049
  H   0.13829210993140     -1.62356844009856      0.59446438301473
  N   -1.46436440020433      0.59927703175707      0.69268892579972
  H   -1.90002746797687     -0.15624118779352      1.21141460352703
  H   -0.77607023229662      1.04497602281546      1.29526884738080
  C   -0.28068028715343      1.13150883891312     -1.29248836557879
  N   0.16568492893346      1.98817901542391     -1.96127605854493
  N   1.38470839466113      0.05215492326292      0.74902790324682
  H   1.93105805940197     -0.49242962802842      1.40204791433978
  H   2.02456371968959      0.55164007772267      0.14422853249320
