13
Coordinates from ORCA-job run
  C   -0.52017125991009      0.26369949071238     -0.38901020257191
  C   0.93072938624868     -0.12942844773373     -0.08785179938384
  Br  -1.40227662394486     -1.43491927103089     -1.16279599112360
  H   1.44098720658025      0.79705443346060      0.19148607952529
  H   1.38718660565024     -0.51904254967487     -1.00350592004556
  N   -1.13905309821687      0.74126423072512      0.76812542356328
  H   -2.12448450773956      0.93595779423302      0.66014196833781
  H   -0.94733507259115      0.11022730510431      1.53872846172412
  C   -0.59685582450213      1.22267858236764     -1.48682332200333
  N   -0.61723433593077      2.01540641215231     -2.35399064834561
  N   0.94480262121685     -1.03721283311056      1.04793599370067
  H   0.81768654234208     -1.99159166845721      0.73721301379518
  H   1.82501836079733     -0.97409347874813      1.54034694282750
