13
Coordinates from ORCA-job run
  C   -0.52715487708775      0.27910666452963     -0.36630540133930
  C   0.91003759304872     -0.20781240847426     -0.14781950803287
  Br  -1.58973873800094     -1.38998229014967     -0.95796441932772
  H   1.26305338707950     -0.68670683419164     -1.06684183979997
  H   1.50702578175552      0.69129398673159      0.03108497740867
  N   -1.01634293777118      0.87316835566481      0.79853195696969
  H   -0.81359830445912      0.27686736697072      1.59352972773459
  H   -1.98923467126428      1.14096101172524      0.74984239516213
  C   -0.62068777548999      1.17263365075235     -1.51677800344348
  N   -0.66070233085227      1.91421347982271     -2.42743096099596
  N   0.94657221155719     -1.04331998837907      1.04141460108859
  H   0.72525585063682     -2.00187196164822      0.80548219385658
  H   1.86451481084780     -1.01955103335420      1.46325428071903
