13
Coordinates from ORCA-job run
  C   -0.61248189346291      0.18925869341006     -0.18065517967612
  C   0.59065727857002     -0.45550648631087      0.52620689009688
  Br  -1.27930509296639     -1.14122920884307     -1.54611559000422
  H   0.22963156909584     -1.37693513898984      0.99388645920883
  H   0.86236075178289      0.24199377942522      1.32735030204511
  N   -1.60216923934500      0.56659760588294      0.76143230669419
  H   -1.92995135942695     -0.23845340134009      1.28186231789217
  H   -2.39250078676337      1.02250758619027      0.32325713404050
  C   -0.17875907563938      1.35354719706287     -0.95106021015778
  N   0.19776831425922      2.30434484834964     -1.52911470162380
  N   1.67101949713106     -0.71413560580551     -0.39713690242857
  H   1.99691800245432     -1.66647757517596     -0.35456893327670
  H   2.44681203431065     -0.08551229385563     -0.25634389281046
