13
Coordinates from ORCA-job run
  C   -0.72342544986489     -0.07809271727509     -0.36384201307116
  C   0.56480768300661     -0.84217587486826     -0.03508382803720
  Br  -1.88941553902373     -1.26057438395419     -1.41440284339370
  H   1.01279167462246     -1.20174716724973     -0.96815090594955
  H   0.26497338295163     -1.70413794387639      0.56429509625305
  N   -1.37840945932017      0.27530322728830      0.85944769324184
  H   -0.67458648066553      0.69562605136836      1.46045619604699
  H   -2.13739320548866      0.92701213578310      0.70336391226982
  C   -0.39632353318741      1.06498610562183     -1.23401766187625
  N   -0.08270497077173      2.00107793988825     -1.87339254815701
  N   1.41819381138913      0.03336701350646      0.75950338645212
  H   2.00931711035713     -0.50598420641989      1.37686445627374
  H   2.01317497599515      0.59433982018724      0.16295905994729
