13
Coordinates from ORCA-job run
  C   -0.53524184958769      0.21781741568504     -0.39452342695049
  C   0.94321093564931     -0.00404915876380     -0.05669784519842
  Br  -1.16249697575305     -1.52907669376947     -1.29835429360357
  H   1.31913878617071      0.96086237673948      0.29596124080997
  H   1.47783753394895     -0.27563438234454     -0.97270998682148
  N   -1.24929179446247      0.54156813851805      0.76073156646609
  H   -1.00262884342558     -0.10306278331948      1.50382477853866
  H   -2.24720628768372      0.61832544902021      0.62390541206173
  C   -0.70028069221424      1.22527395298441     -1.43831522742696
  N   -0.80710571186014      2.06306993243093     -2.25531426542512
  N   1.03694686173049     -0.97041745956915      1.02626437232536
  H   1.89052392986448     -0.83231108425171      1.54945332173577
  H   1.03559410762293     -1.91236570335996      0.65677435348846
