13
Coordinates from ORCA-job run
  C   -0.62034345374100      0.14880971173294     -0.32406481578768
  C   0.53071697491367     -0.40960904632413      0.52348878206922
  Br  -0.98802516449176     -1.17277871274677     -1.75090076929497
  H   0.69208235776389      0.31954727893189      1.32558444354629
  H   0.16046417780998     -1.33857297083748      0.98473743389049
  N   -1.85463857135656      0.36898820915824      0.38409189351399
  H   -2.10190380980132     -0.45077130233768      0.92634126088900
  H   -1.77042889222737      1.17360694030870      0.99542334780939
  C   -0.20959586109850      1.39635082754413     -0.96991019608842
  N   0.11158927121692      2.43315851613459     -1.41842811112626
  N   1.74992356956558     -0.53569050716602     -0.24495071595877
  H   2.55840287494940     -0.54905343064451      0.36117060761281
  H   1.74275652649704     -1.38498551375389     -0.79358316107505
