13
Coordinates from ORCA-job run
  C   -0.70179299452062     -0.09604924491403     -0.39624536796109
  C   0.57511688420469     -0.83956605658165      0.01239230211539
  Br  -1.80782387088041     -1.31347571435380     -1.46996739944319
  H   0.25348150721814     -1.68685940269405      0.62130642066233
  H   1.06912047843663     -1.22151664952069     -0.88808982049705
  N   -1.41754558503645      0.28066488931790      0.78655589247489
  H   -2.17694450211530      0.91652094766537      0.57611445876962
  H   -0.74731392036831      0.72823010557583      1.40603879215045
  C   -0.34620729045289      1.03127049779081     -1.27542125492019
  N   -0.03195569109752      1.96939587103321     -1.91144978770366
  N   1.38331508214996      0.06449620055512      0.82179670936510
  H   1.95215756055675     -0.45218863229225      1.47812350411731
  H   1.99739234190534      0.61907718841823      0.23884555087010
