13
Coordinates from ORCA-job run
  C   -0.52059911552941      0.29417967662238     -0.36261187519102
  C   0.90504520592413     -0.22712572421613     -0.15147409370552
  Br  -1.62355196184189     -1.34754704536676     -0.96057966368316
  H   1.24474171393463     -0.70889362661349     -1.07401084191641
  H   1.52398537021070      0.65635660474920      0.03090367981305
  N   -0.99302681106706      0.89252674258644      0.80689114585636
  H   -1.96004341988225      1.18164897244766      0.76218226749889
  H   -0.80173380093394      0.28725477137914      1.59798086686414
  C   -0.59847568914428      1.19552510863256     -1.50813730435418
  N   -0.62580802218730      1.94196893022893     -2.41532699731036
  N   0.92549722477800     -1.07032436720803      1.03314595974915
  H   0.67859809001671     -2.02130555169229      0.79167824841836
  H   1.84637121572197     -1.07326449154958      1.44935860796066
