13
Coordinates from ORCA-job run
  C   -0.60217294339613      0.06760225859103     -0.23591173325042
  C   0.60361567484215     -0.47423628508924      0.53121131170096
  Br  -1.03330424327598     -1.17967951406554     -1.69405444312151
  H   0.77808609285394      0.21839186444402      1.36325654760986
  H   0.29202146808107     -1.43791730050293      0.95366229716819
  N   -1.74963910791035      0.11436400869190      0.64022154605203
  H   -1.56487479776047      0.77264253508025      1.39154197575773
  H   -2.56938210009256      0.43265282097452      0.13578725882875
  C   -0.27505568617241      1.35435026461665     -0.86831444643434
  N   -0.08663052779825      2.43625394157002     -1.28809760370141
  N   1.78467943056277     -0.49469220219449     -0.30779018398987
  H   2.62319623619590     -0.47916468585596      0.25582803117474
  H   1.80046050387036     -1.32956770626021     -0.87834055779471
