13
Coordinates from ORCA-job run
  C   -0.63271057869473      0.10800585148758     -0.33082874158483
  C   0.54567271564221     -0.80885140869061      0.03397479276237
  Br  -1.81106005818156     -1.03293001065950     -1.56434913167660
  H   0.91607426741977     -1.25545476959384     -0.89584804269413
  H   0.13956610019501     -1.62048884447239      0.64527145214837
  N   -1.31415059452417      0.59950889482430      0.78911017726318
  H   -2.11104857372327      1.17578566159925      0.55624463999625
  H   -1.57134094521183     -0.13158827281576      1.43796542882248
  C   -0.17744350859317      1.20965036273658     -1.17820769762864
  N   0.24338079562259      2.08708920932535     -1.83678834695633
  N   1.53204997458453     -0.06904053000287      0.79964688180846
  H   2.15557635494779      0.43730447149113      0.18394599294237
  H   2.08843405051684     -0.69999061522923      1.35986259479704
