13
Coordinates from ORCA-job run
  C   -0.58625958353813      0.03979971260261     -0.33370728187689
  C   0.57279154907506     -0.92742221410822     -0.01824366281515
  Br  -1.90892982655494     -0.98798455368912     -1.47172644229733
  H   0.15692090360482     -1.73666602686340      0.59183720823314
  H   0.92385320791824     -1.37154678702145     -0.95072117155757
  N   -1.14988350210440      0.54658080067271      0.86387597065168
  H   -1.53964635678718     -0.20259907362521      1.42404337280538
  H   -1.86106393023010      1.24679026730418      0.69507861736306
  C   -0.11882255569985      1.14207329375226     -1.17247165026689
  N   0.30285207899831      2.02213702458336     -1.82703066376279
  N   1.68044754131730     -0.30986900295726      0.67221878377367
  H   2.18159769221882      0.32064473323800      0.05901840986463
  H   1.34714278178202      0.21906182611154      1.46782850988505
