13
Coordinates from ORCA-job run
  C   -0.58943128317157      0.06956388783525     -0.26258843138453
  C   0.61068838155184     -0.52517673645541      0.47358854749772
  Br  -0.81847311040037     -0.88398762591569     -1.96797125257135
  H   0.35965463377473     -1.57485148862120      0.67268101648379
  H   0.67178628047772     -0.00416383448712      1.43660581840931
  N   -1.78742906341947     -0.14980954030700      0.51377369994920
  H   -1.70796543987469      0.35272191003910      1.39304158644144
  H   -2.60015063394416      0.20271581632935      0.02083806829200
  C   -0.34079040062383      1.47844345424280     -0.60226148295971
  N   -0.22785857093009      2.63336026562778     -0.79112675401989
  N   1.83815253015910     -0.28597864008935     -0.25765057278479
  H   2.63648827033896     -0.33691370757204      0.35974439775487
  H   1.95632840606184     -0.97592376062648     -0.98767464110806
