13
Coordinates from ORCA-job run
  C   -0.47615016211622      0.09432173269772     -0.36954674923339
  C   1.03063050730077     -0.11018640241615     -0.09256711333703
  Br  -1.24199273251803     -1.55918853855655     -1.09441268914446
  H   1.53423007852331     -0.32224528985200     -1.03796292095154
  H   1.40404244131547      0.85877598639652      0.26404683628415
  N   -1.15228879874576      0.37861123121239      0.87823439227116
  H   -2.15412576997199      0.44486596424235      0.73861962124665
  H   -0.82191566411769      1.27076957564127      1.23584629316790
  C   -0.65747507981470      1.12648251172032     -1.39941272113614
  N   -0.75406889689594      2.00492803249960     -2.17591570502313
  N   1.35464075867704     -1.12802420801546      0.87462024847637
  H   0.76621118246599     -1.01537667987975      1.69123541341171
  H   1.16926213589773     -2.04473391569025      0.48821509396778
