13
Coordinates from ORCA-job run
  C   -0.44092461797922      0.26690532172809     -0.38385985821067
  C   0.98693856259596     -0.28943946120027     -0.18231277425782
  Br  -1.57887105233229     -1.29470184927157     -1.05364345206602
  H   1.30363429979984     -0.75175897250840     -1.11880730620776
  H   1.62353957979526      0.58166096279669      0.00035869205228
  N   -0.94201258483722      0.84245355008440      0.80081184432712
  H   -1.85813523636907      1.25456206855590      0.68052888216097
  H   -0.97056310714546      0.16145934918082      1.54857015584212
  C   -0.46310053743833      1.23555422606581     -1.47546283874381
  N   -0.43057043949065      2.02484113123699     -2.34566580823070
  N   1.15971306720500     -1.22271826601377      0.90020182829867
  H   0.54110337537776     -2.01820126413332      0.82057019286465
  H   1.06924869081841     -0.78961679652139      1.80771044217098
