13
Coordinates from ORCA-job run
  C   -0.53320673700972      0.18584860148236     -0.43234075198414
  C   0.93428684463105     -0.24307867421774     -0.16073440240557
  Br  -1.50469134297679     -1.40625644617270     -1.08912753254383
  H   1.36068538053991     -0.62713901763285     -1.09065523679883
  H   1.47502271021979      0.67549659512242      0.09607816480278
  N   -1.26858322327365      0.70224224710147      0.69323566464419
  H   -0.89931020866293      1.60541954333470      0.97096397864690
  H   -1.21856297380506      0.05456435442343      1.47039848732745
  C   -0.54339284085687      1.17855234630676     -1.50664094561950
  N   -0.46963641390792      2.00009641905448     -2.34375121823424
  N   1.14284838910635     -1.20721934811845      0.88950281209294
  H   0.87894973866536     -0.85054246882710      1.79726774954200
  H   0.64659067733047     -2.06898415185675      0.70580323052985
