13
Coordinates from ORCA-job run
  C   -0.59381479949351      0.14255772890104     -0.28299750149462
  C   0.53469617849691     -0.61161635992174      0.46386019392525
  Br  -0.77536840319750     -0.67559463926150     -2.07401286798593
  H   0.54964429655034     -0.19063333744992      1.47657597704580
  H   0.21455189495772     -1.65554213065107      0.54549341411587
  N   -1.88570809563883      0.10149467115498      0.34975536782191
  H   -2.12250361618214     -0.85286474799293      0.59708563709950
  H   -1.88875667792728      0.67906039120834      1.18343282799424
  C   -0.19035812788122      1.53563176144581     -0.48081064843935
  N   0.18663129235825      2.64519656803887     -0.56871183261061
  N   1.86653679160065     -0.55992477260787     -0.08001147962784
  H   1.89118751235119     -0.94954571224964     -1.01307732018793
  H   2.21226175400542      0.39078057938563     -0.11558176765628
