18

C	0.0	0.0	0.0
C	-0.392498	-0.012687	-1.593098
Br	1.942265	0.0	0.0
H	-1.537835	-0.199313	-1.621044
C	-0.379294	1.25719	0.944393
H	-1.485474	1.358078	1.019266
H	-0.064378	1.02794	1.939006
H	-0.048265	2.160283	0.481284
N	-0.360504	-1.406131	0.719743
O	-1.112423	-2.195564	0.151725
O	0.057205	-1.512213	1.866867
C	0.076491	-1.153299	-2.278236
N	0.297256	-2.136662	-2.875372
C	-0.218875	1.323859	-2.211817
H	-0.611201	1.245417	-3.226453
H	0.835212	1.568596	-2.217289
H	-0.787386	2.111369	-1.693987
Cl	-2.103448	0.0	0.0
