16

C	0.0	0.0	0.0
C	-0.500412	0.069568	-1.444073
Cl	1.797948	0.0	0.0
H	-0.242204	-0.846378	-1.974269
H	-1.599862	0.185828	-1.336846
C	-0.443109	1.188226	0.83449
H	-0.013764	2.117789	0.466876
H	-1.537523	1.220387	0.77993
H	-0.127649	1.010422	1.864215
N	-0.530013	-1.18754	0.613727
H	-1.559182	-1.019924	0.601672
H	-0.351362	-1.987108	0.010932
N	0.044299	1.169623	-2.269858
O	0.709632	0.861701	-3.265269
O	-0.205243	2.329651	-1.938182
H	-3.092464	0.0	0.0
