16

C	0.0	0.0	0.0
C	-0.591767	0.002037	-1.393695
Cl	1.841649	0.0	0.0
H	-0.375432	-0.929316	-1.913268
H	-1.701634	0.098077	-1.186945
C	-0.493007	1.134062	0.865518
H	-1.592633	1.056741	0.838444
H	-0.16398	2.096796	0.483377
H	-0.121582	1.001862	1.88643
N	-0.429359	-1.24512	0.556172
H	0.119926	-2.017686	0.206771
H	-0.405041	-1.228832	1.56508
N	-0.121103	1.077575	-2.281627
O	-0.200753	2.244514	-1.892441
O	0.292524	0.751734	-3.400651
H	-3.248064	0.0	0.0
