16

C	0.0	0.0	0.0
C	-0.588504	0.019155	-1.397552
Cl	1.842299	0.0	0.0
H	-1.6957	0.12915	-1.196433
H	-0.377452	-0.909767	-1.923691
C	-0.493269	1.132737	0.8641
H	-1.590667	1.056294	0.829769
H	-0.163984	2.093937	0.483723
H	-0.125248	1.002148	1.885811
N	-0.435731	-1.244316	0.548153
H	0.067162	-2.026204	0.15054
H	-0.360357	-1.254502	1.55505
N	-0.09129	1.100411	-2.264315
O	0.453623	0.777333	-3.327253
O	-0.261867	2.267564	-1.902132
H	-3.27106	0.0	0.0
