16

C	0.0	0.0	0.0
C	-0.497213	0.049323	-1.447335
Cl	1.798556	0.0	0.0
H	-1.597769	0.145863	-1.344887
H	-0.211215	-0.861737	-1.971993
C	-0.445956	1.206715	0.805404
H	-0.133648	1.055278	1.84011
H	-0.016806	2.128276	0.417088
H	-1.540327	1.236682	0.745707
N	-0.533087	-1.174962	0.633484
H	-0.354515	-1.984787	0.044713
H	-1.561814	-1.004027	0.616483
N	0.027653	1.163849	-2.266856
O	0.796592	0.883712	-3.192452
O	-0.337944	2.308728	-1.994927
H	-3.092637	0.0	0.0
