16

C	0.0	0.0	0.0
C	-0.518185	0.104912	-1.43049
Cl	1.792719	0.0	0.0
H	-1.620071	0.181595	-1.318447
H	-0.213317	-0.776286	-1.989319
C	-0.42584	1.179824	0.866425
H	-0.002986	2.123808	0.524122
H	-0.096578	0.994507	1.893808
H	-1.520866	1.208939	0.828127
N	-0.532983	-1.259396	0.45939
H	-1.563159	-1.110947	0.383746
H	-0.333472	-1.333852	1.452585
N	-0.024136	1.278079	-2.180022
O	0.749691	1.073679	-3.120157
O	-0.431468	2.394132	-1.850161
H	-3.095979	0.0	0.0
