14

C	0.0	0.0	0.0
C	-0.402805	-0.125094	-1.454583
F	1.352087	0.0	0.0
H	0.012845	0.730205	-1.989329
H	-0.388656	-0.772047	0.647397
N	-0.397068	1.331765	0.562499
O	-0.378142	2.294795	-0.20245
O	-0.568434	1.380674	1.775261
C	-1.830473	-0.302291	-1.787905
N	-2.568642	-0.521805	-2.690297
N	0.349209	-1.320664	-1.988791
O	0.273049	-2.363555	-1.344649
O	0.965443	-1.173433	-3.041242
F	-2.36273	0.0	0.0
