14

C	0.0	0.0	0.0
C	-0.429354	0.020558	-1.455021
F	1.351818	0.0	0.0
H	0.044012	0.873605	-1.941188
H	-0.391297	-0.830247	0.569191
N	-0.400771	1.26478	0.695652
O	-0.608167	1.187279	1.902132
O	-0.365936	2.301514	0.03494
C	-1.877951	-0.00265	-1.771132
N	-2.625601	0.013798	-2.691639
N	0.199717	-1.189556	-2.100154
O	0.760001	-1.024491	-3.180496
O	0.089113	-2.263172	-1.512353
F	-2.396674	0.0	0.0
