13

C	0.0	0.0	0.0
C	-0.501446	-0.117255	-1.443456
Cl	1.787653	0.0	0.0
H	-0.167251	-1.065058	-1.873212
H	-1.60239	-0.117937	-1.397807
N	-0.49634	1.209374	0.576861
H	-1.522944	1.160964	0.521589
H	-0.228877	1.259616	1.554277
C	-0.356466	-1.239301	0.729223
N	-0.58474	-2.229818	1.319605
C	-0.026845	0.983145	-2.274578
N	0.333283	1.836271	-2.995309
Br	-3.665217	0.0	0.0
