13

C	0.0	0.0	0.0
C	-0.502224	-0.150744	-1.439953
Cl	1.787672	0.0	0.0
H	-0.175376	-1.111169	-1.84642
H	-1.603016	-0.141772	-1.39262
N	-0.494	1.224613	0.548205
H	-1.520034	1.176139	0.494703
H	-0.227373	1.297653	1.523802
C	-0.357903	-1.221687	0.759366
N	-0.586334	-2.198362	1.372073
C	-0.018788	0.925158	-2.297688
N	0.349336	1.75899	-3.037223
Br	-3.663624	0.0	0.0
