13

C	0.0	0.0	0.0
C	-0.193668	-0.322653	-1.522164
Cl	1.846191	0.0	0.0
H	0.460795	-1.166027	-1.755642
H	0.227827	0.541982	-2.046905
N	-0.518256	1.210347	0.511723
H	-1.534154	1.059803	0.622914
H	-0.386652	1.949768	-0.173097
C	-0.382326	-1.139889	0.839827
N	-0.562811	-2.08947	1.506863
C	-1.470114	-0.634129	-2.171622
N	-2.218866	-0.95876	-3.01901
Br	-3.549672	0.0	0.0
