13

C	0.0	0.0	0.0
C	-0.475316	0.185065	-1.457383
Cl	1.793783	0.0	0.0
H	-1.574415	0.123747	-1.420719
H	-0.082148	-0.608775	-2.097772
N	-0.486883	0.965228	0.938881
H	-0.273502	1.89543	0.591016
H	-1.508424	0.853767	0.960747
C	-0.385598	-1.352984	0.443849
N	-0.625296	-2.438377	0.822207
C	-0.067034	1.484017	-1.976297
N	0.245401	2.538236	-2.387943
Br	-3.641978	0.0	0.0
