13

C	0.0	0.0	0.0
C	-0.215125	-0.077533	-1.553635
Cl	1.846357	0.0	0.0
H	0.537709	-0.763956	-1.946243
H	0.047866	0.916423	-1.933627
N	-0.516171	1.107862	0.709392
H	-1.53513	0.952995	0.774291
H	-0.360724	1.953435	0.171392
C	-0.375916	-1.265065	0.642255
N	-0.551657	-2.314705	1.139198
C	-1.460087	-0.504127	-2.200674
N	-2.18059	-0.91204	-3.036844
Br	-3.543049	0.0	0.0
