13

C	0.0	0.0	0.0
C	-0.501442	-0.116895	-1.443511
Cl	1.787538	0.0	0.0
H	-0.167173	-1.064556	-1.873508
H	-1.602378	-0.117671	-1.397839
N	-0.496441	1.209195	0.577143
H	-0.228997	1.259181	1.554573
H	-1.523039	1.160797	0.521831
C	-0.356507	-1.239532	0.728826
N	-0.58454	-2.230371	1.318747
C	-0.026916	0.983745	-2.274349
N	0.333497	1.836878	-2.994934
Br	-3.665225	0.0	0.0
