16
Coordinates from ORCA-job run
  C   -0.73608847943236     -0.20078818935664     -0.56302640934001
  C   0.42850022202270     -0.01447841910373      0.43285460421295
  Br  -0.11573786509831     -0.12404004768964     -2.41594793627911
  H   -0.08137047327253      0.06310964960315      1.41168884242383
  C   -1.30025347050602     -1.54806068879468     -0.37379807840361
  N   -1.77561808720982     -2.59510238763138     -0.12542597773440
  N   -1.70655987383143      0.85836653420864     -0.38328186132373
  H   -2.11149088856781      0.78532923986178      0.54560195255991
  H   -2.45337259033523      0.77048960373717     -1.06311280301587
  C   1.19361813015565      1.27467323317712      0.18778265772770
  H   1.84090350750613      1.16035395158929     -0.68293748094539
  H   1.81617750642178      1.50134027103478      1.05772661445417
  H   0.50959955415948      2.10524084416356      0.01853810464166
  N   1.32085398566286     -1.15630013646158      0.35143091527182
  H   0.94938376931348     -1.95504426617240      0.85115735925572
  H   2.22045505301142     -0.92408919216545      0.75174949649436
