16
Coordinates from ORCA-job run
  C   -0.79484737739158     -0.08182312152572     -0.50879628508490
  C   0.47863509124641     -0.10647639759618      0.36237911522507
  Br  -0.40655700372145      0.50578944799184     -2.33338919054879
  H   0.09081429026069     -0.31122998145026      1.37807123422297
  C   -1.31023172747348     -1.45718001308198     -0.62232176171664
  N   -1.74754972836024     -2.54927199822451     -0.61087611190165
  N   -1.75411971189412      0.84507193967326      0.05358927586411
  H   -2.04098892427720      0.51251221740993      0.96966910782999
  H   -2.57687622635254      0.90043409447915     -0.53599589711376
  C   1.18777498947860      1.23656681058768      0.38270233619965
  H   0.47560728639346      2.04911878963833      0.52004660847869
  H   1.90934079152084      1.25659613434468      1.20413413877400
  H   1.72468255191184      1.38558225927449     -0.55523491387327
  N   1.37215004381348     -1.14433201559021     -0.11866107689899
  H   2.31151711966054     -0.97964850934816      0.21865212316824
  H   1.07964853518475     -2.06170965658231      0.19503129737531
