16
Coordinates from ORCA-job run
  C   -0.82413342541358     -0.36899597714647     -0.28583374002277
  C   0.63954880761915     -0.16880668930897      0.14736978499086
  Br  -1.65467358624851     -1.78705377774961      0.90413766866126
  H   1.12468798638316     -1.15033531279362      0.00004936293072
  C   -1.61414051659044      0.84051408695049     -0.06141640477617
  N   -2.26836699331416      1.79781778139139      0.12674965028652
  N   -0.87655783675428     -0.74395056818783     -1.65597787129028
  H   -1.82596421536793     -0.77149825985246     -2.00664180917874
  H   -0.44783664037347     -1.65306363032485     -1.78829192861583
  C   0.80073239625116      0.25839425586997      1.59608727077769
  H   0.43227673767063     -0.49567408649178      2.28930588605691
  H   0.27579998092535      1.20049188176898      1.76750710304072
  H   1.86161818306401      0.41973220594576      1.80623308628659
  N   1.15149064564956      0.88960425099777     -0.70909048151085
  H   2.10212510475005      1.12112447688512     -0.45027454723232
  H   1.12439337174930      0.61069936204611     -1.68091303040431
