16
Coordinates from ORCA-job run
  C   -0.80597663088507     -0.11073997769860     -0.48679149683647
  C   0.45563418800487     -0.18314560905565      0.39182354295945
  Br  -0.31537452452687      0.29810960276231     -2.35039132119463
  H   0.06842685377182     -0.44363152256651      1.38808451258293
  C   -1.45542137895726     -1.43152832065874     -0.52214312005147
  N   -2.07894060494509     -2.42771593298606     -0.48088771298049
  N   -1.68019009125621      0.94753660195261     -0.03414901779509
  H   -1.98029964454794      0.73932829785722      0.91447099497116
  H   -2.50598506997716      0.99551107473788     -0.62081368313622
  C   1.18857563085011      1.15078600228316      0.48590512714930
  H   1.63363351873317      1.40812462206961     -0.47756709535497
  H   0.52214018019926      1.96100457192640      0.78265032249905
  H   1.99345689858097      1.06336059361205      1.22041585486621
  N   1.25701374404447     -1.31248988997824     -0.05029884528187
  H   1.88109473205691     -1.60965807775724      0.68870305353346
  H   1.82221219885401     -1.04485203650022     -0.84801111593037
