16
Coordinates from ORCA-job run
  C   -0.70105708630641     -0.28952608819633     -0.56837401600331
  C   0.31606422015767      0.02586715651870      0.54263293719858
  Br  0.21830494815688     -1.03771016420488     -2.14213851182512
  H   -0.30491695249745      0.40143072141921      1.36947537313615
  C   -1.62394380764773     -1.33899861168585     -0.10557995257593
  N   -2.46075854614498     -2.08063318188954      0.25854144794457
  N   -1.37175513888024      0.91590043780491     -0.99979416896116
  H   -1.88619085276851      1.30249989606655     -0.21292780120619
  H   -2.03667273716602      0.70359384148025     -1.73545737906510
  C   1.30952411935977      1.11197935140092      0.14447789741660
  H   1.91848789672526      1.37347190759489      1.01383132660788
  H   1.97577913454141      0.74786009118496     -0.64044395239526
  H   0.80763671268289      2.00818092033234     -0.22107297955675
  N   0.89930838867619     -1.22557383387261      0.99769868964224
  H   1.28819496707841     -1.11349599660735      1.92517562915189
  H   1.64999473403284     -1.50384644734615      0.37595546049090
