16
Coordinates from ORCA-job run
  C   -0.82586316386217     -0.38537076820508     -0.25956414099943
  C   0.64287107836016     -0.15787019168770      0.14276314231539
  Br  -1.62446112359541     -1.76946709420913      0.98906560217657
  H   1.13504854233821     -1.13926032563917      0.01931201626753
  C   -1.62166370983633      0.82512732986325     -0.06370684543089
  N   -2.27908048848776      1.78453487833546      0.10181521422334
  N   -0.89622534510481     -0.80617357916909     -1.61569977612368
  H   -0.45793845424191     -1.71399810770046     -1.72512263814587
  H   -1.85141536358978     -0.85737738678496     -1.94845711182292
  C   0.82326104538756      0.31757314035188      1.57416665488065
  H   1.88598779118427      0.49499796956508      1.76146560350888
  H   0.47327876807671     -0.41710334589865      2.29732968817373
  H   0.29242889001470      1.26026476401206      1.72331844512111
  N   1.13094152541407      0.87670078149285     -0.75582303251129
  H   1.08680407516860      0.56748009686815     -1.71777407738799
  H   2.08502593277388      1.12194183880550     -0.52308874424512
