16
Coordinates from ORCA-job run
  C   -0.86440199382009     -0.40841330689760     -0.29242060973133
  C   0.54989403434173     -0.32689477291769      0.31836259036299
  Br  -1.03041387365383     -2.33375489319191     -1.04682257908711
  H   0.65016176313643     -1.18104563120864      0.99997312729344
  C   -1.90595810852140     -0.36858463972267      0.72928638734250
  N   -2.72178613227977     -0.30687313080949      1.57316157555037
  N   -1.04088392545174      0.58280471002759     -1.25724056427816
  H   -0.24250687156929      0.59584937541161     -1.88281741397434
  H   -1.92444871296349      0.53867713838889     -1.74491777374725
  C   0.71498973483829      0.96987392090316      1.10082598315119
  H   0.63545427379319      1.82750474717495      0.43223747068204
  H   -0.04018124062102      1.06159990438954      1.88282036134673
  H   1.69696779650711      0.98152391556867      1.58216838610240
  N   1.49550864242542     -0.35377571912491     -0.79166060438106
  H   1.64432078400659     -1.30548062370408     -1.10463264557416
  H   2.38528382983185      0.02798900571256     -0.49732369105825
