16
Coordinates from ORCA-job run
  C   -0.90498832780031     -0.20091686929006     -0.43422852809443
  C   0.41956964162987     -0.18269621577566      0.36500241533299
  Br  -0.47985980858770     -0.13283467266993     -2.36736080173638
  H   0.08941457491422     -0.29702612053716      1.40731164293429
  C   -1.58427095307115     -1.47741424443735     -0.19025072101029
  N   -2.17520039134738     -2.45728779793138      0.07549289869560
  N   -1.84066084270103      0.86354891093483     -0.17486503117394
  H   -1.41184368109941      1.76811802540549     -0.32224247579843
  H   -2.19613549458510      0.79594445898566      0.77271130597733
  C   1.18346066943172      1.13345885326443      0.24324764086393
  H   2.07625415506586      1.08231572508729      0.87088580893425
  H   0.59994877318357      1.99489598876146      0.57752833255090
  H   1.50236305697710      1.30387293045732     -0.78721268348307
  N   1.18194907334133     -1.37375382150826      0.03249684339864
  H   1.85039082231923     -1.58111166795831      0.76315103888573
  H   1.68960873232920     -1.23711348278840     -0.83366768627712
