16
Coordinates from ORCA-job run
  C   -0.79392987439247     -0.26578351726697     -0.46714578129892
  C   0.42388389552517     -0.06058780550978      0.46437920186763
  Br  -0.19833465809107     -0.18810057627403     -2.39198452704440
  H   -0.03481179017012     -0.09812827646519      1.46562274229654
  C   -1.29566194276743     -1.62973801345864     -0.28753514656049
  N   -1.70696359733284     -2.71295656363112     -0.09166839006745
  N   -1.83326135757103      0.65820719842907     -0.17209938964027
  H   -2.67879990703493      0.43893519676739     -0.68426682919540
  H   -1.55124150203737      1.60226977187999     -0.40382638104363
  C   1.08482752098113      1.29613837415277      0.28595879762465
  H   1.54736736758824      1.36790744985404     -0.69905951936082
  H   0.38133882696811      2.11968165738344      0.41896960956210
  H   1.86185107274675      1.41800346298540      1.04541199183299
  N   1.39120702034770     -1.11691806116597      0.23239163160661
  H   2.29576509119967     -0.85259080916588      0.59955542573352
  H   1.10776383404048     -1.97733948851452      0.68529656368734
