16
Coordinates from ORCA-job run
  C   -0.82116072597926     -0.48040315745582     -0.30805688444883
  C   0.56699265796212     -0.27737904592359      0.33376189483643
  Br  -0.81026354025547     -2.41831338015049     -1.04714952850958
  H   0.72122348443540     -1.11455635314579      1.02631220032549
  C   -1.88490708390400     -0.51924204320704      0.69049006921139
  N   -2.72088641517894     -0.51880901629968      1.51674666030535
  N   -1.05663504343372      0.48560411055679     -1.28604425577098
  H   -0.24818068966047      0.56007773867074     -1.89417900989643
  H   -1.92180301516009      0.36394263586055     -1.79325002615772
  C   0.60668911521921      1.03528296851305      1.10606061485036
  H   0.47233111660871      1.87754073654646      0.42682430866947
  H   1.57303191616597      1.13212353000745      1.60898465569941
  H   -0.17122399275081      1.07109793915883      1.87014044294796
  N   1.53759623825345     -0.23575145573221     -0.75430758522252
  H   1.76860875846324     -1.17506921916158     -1.05478155470003
  H   2.38758721921466      0.21585401176234     -0.44155200213979
