16
Coordinates from ORCA-job run
  C   -0.77891229990389     -0.40908037272066     -0.27794473113412
  C   0.69147559217282     -0.21452750587286      0.18219668246454
  Br  -1.71340295012102     -1.67370254647341      0.99840476271440
  H   1.15031666948783     -1.21013132612557      0.10974305541683
  C   -1.50855853367539      0.85429554020140     -0.18809505127776
  N   -2.04532904584037      1.89736333920374     -0.11522187319656
  N   -0.80926986974802     -0.89434853707508     -1.61400125940379
  H   -1.75241241137508     -0.95382993190524     -1.97801917536745
  H   -0.37548367588403     -1.80945579793406     -1.66626016368474
  C   0.82548134758428      0.29960990200908      1.60517541655840
  H   0.42884233686190     -0.40058421090998      2.33759816492835
  H   0.30375699777105      1.25477314198618      1.72052694258842
  H   1.88469622106131      0.46417468387002      1.80822890009484
  N   1.39841207112784      0.68294960526201     -0.71247528151493
  H   1.12550504524643      1.64288607826191     -0.53220257374730
  H   1.17588250523435      0.46760793822250     -1.67665381543912
