16
Coordinates from ORCA-job run
  C   -0.82840342099289     -0.44808777952398     -0.33579645398199
  C   0.55492571622143     -0.30388759665263      0.33180814893821
  Br  -0.85688461731586     -2.35878254454109     -1.14211103155171
  H   0.67704722027569     -1.16828804653010      0.99672115668945
  C   -1.90799557840487     -0.49273430742826      0.64537075955987
  N   -2.75564645614999     -0.49854808193371      1.45952355269810
  N   -1.02452683021076      0.55679433468815     -1.28292024627862
  H   -1.88526885099522      0.47502799339010     -1.80541732732062
  H   -0.20575660076685      0.63033362849738     -1.87706709395877
  C   0.61676356482017      0.97957829214020      1.15033916577052
  H   1.57759132165410      1.03335504950997      1.67005480182540
  H   -0.17146070094741      1.00930354480215      1.90403934357083
  H   0.51457782686651      1.84835771266178      0.49943226513587
  N   1.54205249881341     -0.24983661477689     -0.74040142905001
  H   1.75562642418545     -1.18352864426843     -1.06979274988673
  H   2.39735848294711      0.17194305996536     -0.40178286215981
