16
Coordinates from ORCA-job run
  C   -0.86715611759655     -0.41071938853867     -0.28065364804249
  C   0.55238116379088     -0.32371646876805      0.31688392884998
  Br  -1.04124914214848     -2.34405040153299     -1.01238694249975
  H   0.65857313656319     -1.17081690242680      1.00642143213539
  C   -1.90003750264835     -0.35844647227702      0.74926397648339
  N   -2.70867837301686     -0.28676004523550      1.59926512449095
  N   -1.05123982105606      0.57034479538870     -1.25461277132880
  H   -0.25865125128362      0.57545862878098     -1.88770916113886
  H   -1.93916226788121      0.52121440997422     -1.73381191794885
  C   0.72502337509472      0.98094451149035      1.08454107964664
  H   1.71273044593827      0.99828835819214      1.55400155848598
  H   0.63683235501106      1.83184415616451      0.40849715542965
  H   -0.02104143008101      1.07876022303085      1.87451499089163
  N   1.48806792209687     -0.36314945405457     -0.80143548316666
  H   1.63243571861058     -1.31860343621233     -1.10532728869614
  H   2.38117178860662      0.01940748602407     -0.51845203359211
