16
Coordinates from ORCA-job run
  C   -0.92400845043014     -0.50897152694606     -0.20949218542528
  C   0.57178997354419     -0.21299822770712      0.07783222097786
  Br  -1.56869918106415     -1.90883766043885      1.00357879366974
  H   1.09356853845440     -1.15573660892193     -0.12437024852301
  C   -1.69524679058767      0.71065593441099      0.06048935685596
  N   -2.23133591800249      1.73510479083101      0.27086392241888
  N   -1.19785467398385     -0.94833492165629     -1.55994376457829
  H   -0.66947663397688     -0.32533472054865     -2.16709778841612
  H   -0.83719740809734     -1.88940886575698     -1.67773463234387
  C   0.86570403434158      0.25390960906093      1.49798938377529
  H   1.93336397979762      0.46771719442580      1.59204303801023
  H   0.59931231943240     -0.49360243780024      2.24528069376745
  H   0.31621574545459      1.17391117720314      1.71848971802685
  N   0.97335500258723      0.74855052391637     -0.95235275748861
  H   1.96209071786108      0.66041344170681     -1.14939081586405
  H   0.80841874466943      1.69496229822107     -0.62618493486304
