16
Coordinates from ORCA-job run
  C   -0.86527684174240     -0.43202232862740     -0.25675058451463
  C   0.56571931810669     -0.30840901314612      0.30727506618423
  Br  -1.01341452987313     -2.37627110667266     -0.96420031861433
  H   0.70424695001867     -1.14470420028725      1.00419136120280
  C   -1.87332949521370     -0.39218627873405      0.79788823425232
  N   -2.66040985939131     -0.33084182422698      1.66866655186931
  N   -1.09256885262145      0.53432497212830     -1.23584440604638
  H   -1.98989472683817      0.46162925731964     -1.69404613913582
  H   -0.31466266204060      0.54838446761021     -1.88668255911683
  C   0.72815486665774      1.00874604152362      1.05563402593232
  H   1.72400102721329      1.05012631597338      1.50587976378642
  H   0.61122242945091      1.84936071015689      0.37110913463983
  H   -0.00458379698475      1.10331457284244      1.85832987664754
  N   1.47672741268096     -0.34139124114377     -0.83088691084255
  H   1.63797945352434     -1.29671393019122     -1.12608642458959
  H   2.36608930705291      0.06765358547500     -0.57447667165465
