16
Coordinates from ORCA-job run
  C   -0.70619539962206     -0.55399554072227     -0.33285319238478
  C   0.64472615773377     -0.33493324918124      0.40651001943817
  Br  -0.72510916480484     -2.34777040980517     -1.13382541448715
  H   0.70622324485945     -1.10975642777928      1.17769066257291
  C   -1.82588109388651     -0.53220961447696      0.61891604860268
  N   -2.70996070913741     -0.44201085187975      1.39013310871279
  N   -0.83699272198099      0.40154729888733     -1.41476601954998
  H   -1.00371541720505      1.32401097712685     -1.02435024751557
  H   -1.62928741538624      0.16466633102726     -2.00126777209867
  C   0.65497282333851      1.03837427907578      1.07450234446634
  H   -0.22306075846675      1.20877373733289      1.70152268808991
  H   1.54785929410059      1.10884723769282      1.69600825640516
  H   0.72277979162762      1.83183571521165      0.32484281905070
  N   1.80417342693236     -0.45265171308961     -0.44989756157178
  H   1.92381668451051     -1.41245319917478     -0.74954663684526
  H   1.65365125738702      0.10872542975449     -1.28161910288547
