16
Coordinates from ORCA-job run
  C   -0.81830869100331     -0.53275116918077     -0.21884619451084
  C   0.64926760263686     -0.20809102167192      0.19603535191321
  Br  -1.52453900508882     -1.93186964607796      0.99169393170746
  H   1.18569605550048     -1.16258506187450      0.11590567515790
  C   -1.64229060240085      0.66555610491755     -0.05047626129278
  N   -2.22607646311277      1.67889553995811      0.06738711656203
  N   -0.99367245014049     -1.02747033658909     -1.55984679348047
  H   -0.90413129565321     -0.28718425131379     -2.24393153449160
  H   -0.34142504187954     -1.77796996694385     -1.75575183636753
  C   0.78039330311809      0.33314419346041      1.61108922109257
  H   1.83411259848173      0.53638872070164      1.80584134077526
  H   0.40940198911487     -0.36872946997784      2.35566748471183
  H   0.22834482067564      1.27205036501698      1.71657599654809
  N   1.27427235507111      0.73289115618134     -0.71491437583448
  H   0.85394706458210      1.65223933964326     -0.63991299830851
  H   1.23500776009812      0.42348550375044     -1.67651612418214
