16
Coordinates from ORCA-job run
  C   -0.85772242625999     -0.54998919279433     -0.20535986175460
  C   0.62343357307021     -0.26346235745277      0.12792678573360
  Br  -1.59938489204980     -1.86670270854562      1.05649349963943
  H   1.12315038467775     -1.22995880945661      0.00722341257068
  C   -1.63954464206022      0.68527086204538     -0.02464226210135
  N   -2.21622553997196      1.70735896771533      0.05877339890405
  N   -0.93114953706268     -1.10805766078343     -1.52415952619066
  H   -1.88854697841099     -1.16412768284335     -1.84965076924131
  H   -0.38338829718722     -0.50331647954583     -2.13004154447899
  C   0.85046514170415      0.28527246517990      1.53006062008361
  H   1.91737113107971      0.47567368986736      1.66924504826333
  H   0.52273023008182     -0.40709176821267      2.30541065167231
  H   0.31783682579125      1.23168934547445      1.66377780548761
  N   1.10387197029791      0.62530233614974     -0.93464781231583
  H   0.96019272270383      1.59383512342802     -0.66914372447003
  H   2.09591033359623      0.48930386977443     -1.08126572180186
