16
Coordinates from ORCA-job run
  C   -0.85893503514253     -0.44203400786037     -0.25892940328035
  C   0.55999269784744     -0.29726525149728      0.32875253869717
  Br  -0.99214887439755     -2.40888098914014     -0.90410402847769
  H   0.68619770059386     -1.10969870076166      1.05557005707500
  C   -1.88920266240122     -0.36706730725984      0.77225297381940
  N   -2.69555872127154     -0.27538364818965      1.62248773625791
  N   -1.06782292465046      0.49047669449998     -1.27465208652215
  H   -0.27738808904267      0.48499969271836     -1.91041749580049
  H   -1.95573183792535      0.39996159595943     -1.74797334460639
  C   0.70610560717260      1.04430111888480      1.03594907997989
  H   1.69232233952751      1.10226565540374      1.50512720200738
  H   -0.04313646249730      1.16473409213559      1.81975120685222
  H   0.60256740456540      1.86141711734777      0.32146054448043
  N   1.49368057172508     -0.36637311671317     -0.78959639967293
  H   1.65987326769960     -1.33093883415990     -1.05031147395866
  H   2.37818501819714      0.04948588863235     -0.52736710685072
