16
Coordinates from ORCA-job run
  C   -0.74399217474411     -0.25262048208009     -0.44469994864389
  C   0.43342185802667     -0.08056189683329      0.55811191884484
  Br  0.01648332483516     -0.18004660327904     -2.34338525228859
  H   -0.05463847599042     -0.22331345230679      1.53050614508949
  C   -1.27632496176580     -1.61050014434894     -0.33600843750710
  N   -1.71710546036079     -2.69208863324194     -0.20434875216798
  N   -1.77466507765191      0.68537305806019     -0.22773245236820
  H   -2.59212917949145      0.50439014478440     -0.79644850864565
  H   -1.45623358972934      1.63278538614945     -0.38189268154833
  C   1.03197581005986      1.31757313843991      0.51744194275730
  H   1.45318609191805      1.53765043724096     -0.46598377582009
  H   0.30334409426019      2.08891019417679      0.77466761302173
  H   1.83652650987092      1.35865312935626      1.25207886684925
  N   1.48272801375892     -1.06754759400756      0.45022728849147
  H   1.12324546415849     -2.00664664821975      0.57279161202085
  H   1.93317775284556     -1.01201003389056     -0.45532557808511
