16
Coordinates from ORCA-job run
  C   -0.83967793913941     -0.17249252896737     -0.43349583157093
  C   0.47048874255346     -0.15624191054649      0.38910792654593
  Br  -0.45625404743953      0.37445848064359     -2.33544366390398
  H   0.12301336725788     -0.44762308543341      1.39346955531269
  C   -1.31145913851612     -1.55515923474061     -0.53095899925998
  N   -1.66389753944579     -2.67600730049832     -0.55373827214996
  N   -1.84491051509426      0.62510618409268      0.17921852855575
  H   -1.59259214388991      1.60490976837005      0.15059090175744
  H   -2.73934895968089      0.50908143103970     -0.28107766622327
  C   1.09707020862176      1.22557887880296      0.47634014502808
  H   1.44082077956409      1.55141432863480     -0.50609621313909
  H   0.40845134435687      1.96615291677117      0.88646175346052
  H   1.95713102872540      1.18616773683868      1.15031530610889
  N   1.41544427719567     -1.09260227004567     -0.18979875398162
  H   2.35094816007367     -0.89835586675893      0.14189974475199
  H   1.18477237485709     -2.04638752820283      0.06120553870754
