16
Coordinates from ORCA-job run
  C   -0.78406929482298     -0.26807765047559     -0.49646975735017
  C   0.41591471925087     -0.03684221231211      0.47676377906256
  Br  -0.09884466331357     -0.43026828679164     -2.34340771248315
  H   -0.07318130305948      0.02864038366231      1.46005108078058
  C   -1.39147671909422     -1.55972700351531     -0.15908175962564
  N   -1.84761247100160     -2.58116694973870      0.20161022182236
  N   -1.82144872664166      0.73302695735689     -0.51064861976373
  H   -2.28012701473004      0.77225774793971      0.39373757946989
  H   -1.43627265902085      1.64123273560400     -0.73725330273113
  C   1.14718501125956      1.27130060314742      0.21655936677538
  H   0.47961193799665      2.13464069009568      0.22917367415051
  H   1.89152758867482      1.40424390815449      1.00212690243256
  H   1.66516258901314      1.24593961967765     -0.74423186448078
  N   1.37438255174825     -1.11796263866568      0.54899538127104
  H   1.82900188087450     -1.24528157732656     -0.34761667584874
  H   0.93124657286663     -1.99095632681256      0.80969170651846
