16
Coordinates from ORCA-job run
  C   -0.86623388187486     -0.35071599460472     -0.32769847190875
  C   0.61359054535531     -0.30939687667293      0.11745654697740
  Br  -1.73341749880487     -1.87210528691433      0.74185724249537
  H   0.95602421591649     -1.34997733306288      0.09219799734716
  C   -1.60819591694615      0.83770380533014      0.10153869253633
  N   -2.16521756021522      1.82112709785297      0.42486105171173
  N   -0.99014993045131     -0.51082830433395     -1.71535588925280
  H   -0.29577477478206     -1.13568055796622     -2.10015691606788
  H   -1.92733731754032     -0.73952499873049     -2.01649648747536
  C   0.78012368256678      0.23447914168045      1.53367707972351
  H   1.82995090207043      0.15014915827192      1.82635698439902
  H   0.50096774067254      1.29037161158112      1.57333032804979
  H   0.18220381715112     -0.31446865635929      2.26294605313479
  N   1.37600758996122      0.40781739676505     -0.90555134858188
  H   2.33629795769255      0.49334947895481     -0.59021543254784
  H   1.01016042922834      1.34770031820834     -1.01974743054060
