16
Coordinates from ORCA-job run
  C   -0.80331483641098     -0.42064585092269     -0.28845969269301
  C   0.59101256676493     -0.36292901501948      0.39912316483487
  Br  -1.00382435153158     -2.32882220744890     -1.01660320788583
  H   0.62388258289894     -1.21323416664500      1.08647071248717
  C   -1.88460529943182     -0.30399049713829      0.68507196016658
  N   -2.73184920840328     -0.18883847940979      1.49168754733842
  N   -0.93342094618050      0.55768876052616     -1.29276454211087
  H   -0.22577085626543      0.43861930683345     -2.00610716394303
  H   -1.85131233447153      0.56663033236771     -1.71808348940144
  C   0.72905408054036      0.93204443557752      1.19090808233096
  H   1.70842151955725      0.93931870318886      1.67152529829616
  H   0.65056091555527      1.79741155652000      0.52942606903490
  H   -0.03943908681287      1.01887944139884      1.96006944403035
  N   1.70449471923086     -0.48534570873151     -0.51398415379878
  H   1.62639004827306     -1.29814831598177     -1.11147349279916
  H   1.83772048668733      0.35136170488487     -1.06680653588730
