16
Coordinates from ORCA-job run
  C   -0.77896137987495     -0.39285415317443     -0.29870493409050
  C   0.68689096925313     -0.22721662562687      0.18528588892421
  Br  -1.74247863423128     -1.68314940451235      0.93145228698608
  H   1.13532230780715     -1.22599504899132      0.09414693140533
  C   -1.49753585171769      0.87476454626068     -0.18215440625154
  N   -2.02677989527072      1.91992628562641     -0.08736253487446
  N   -0.79795340794131     -0.84115199317387     -1.64760203781527
  H   -1.73719283068447     -0.88011798299756     -2.02455659064214
  H   -0.37366864225443     -1.75934573992773     -1.71935527078034
  C   0.80757542753414      0.24975836472515      1.62231184525647
  H   0.39369404276785     -0.46409555244851      2.33157155870996
  H   1.86558421815992      0.39745291987138      1.84341436253053
  H   0.29462706140846      1.20733545982516      1.75486535827479
  N   1.41594017243611      0.68398562941897     -0.67728898472819
  H   1.20211949009727      0.49719170981614     -1.64937405114668
  H   1.15381695251083      1.64251158530874     -0.47464942175825
