16
Coordinates from ORCA-job run
  C   -0.85946224830304     -0.52209638719026     -0.26080917498869
  C   0.61192952504829     -0.28237071415190      0.14376336003959
  Br  -1.68157739550381     -1.86540601722943      0.92174718989157
  H   1.09575046394069     -1.25491995459511      0.00765895592341
  C   -1.62175160464640      0.72304509277014     -0.06752672988108
  N   -2.18355259312415      1.75273403771742      0.02369315284180
  N   -0.88999175604259     -1.03104088643298     -1.60079222613023
  H   -0.30061782461080     -0.42073695285034     -2.16030360567216
  H   -1.83329271980533     -1.04948244449150     -1.96883330062721
  C   0.79210951919335      0.20941796970400      1.57356435827884
  H   1.85591854168542      0.37303372798128      1.76184380659140
  H   0.42078841247925     -0.50459471346959      2.30858790867390
  H   0.27190326373568      1.16053690127583      1.72206217156541
  N   1.15603334749088      0.63267585197805     -0.86481968542606
  H   1.01355970301116      1.59421713565935     -0.57385725388405
  H   2.15225336545140      0.48598735332504     -0.96597892719642
