16
Coordinates from ORCA-job run
  C   -0.81137331359102     -0.28745668556799     -0.42936639629139
  C   0.42836423991528     -0.16067742339241      0.47304192682962
  Br  -0.19724469430695     -0.09199389047530     -2.37351842396792
  H   0.03648816523456     -0.40749937772825      1.46755606037546
  C   -1.35028973547969     -1.64484324488309     -0.35917438825897
  N   -1.84770231841630     -2.70529607956144     -0.26957291029781
  N   -1.81680906625236      0.64526141495855     -0.08797773611783
  H   -1.51319287264411      1.59659398673651     -0.25044702851969
  H   -2.67775203804268      0.47717477413702     -0.59322635049684
  C   0.99276335757286      1.25744545525836      0.51204937460169
  H   1.29814629859582      1.58354991547175     -0.48496889879018
  H   0.28254909348701      1.97804168974583      0.92564847711351
  H   1.87431223634729      1.26727120934542      1.15709379196612
  N   1.37349101111112     -1.20298592425527      0.11504253030506
  H   1.92360946860712     -0.92457140178299     -0.68889406511123
  H   2.00364016786205     -1.38001441800669      0.88671403666039
