16
Coordinates from ORCA-job run
  C   -0.85691826776716     -0.36590873612581     -0.42411175511035
  C   0.37849310665441     -0.03203347842744      0.44511193050711
  Br  -0.23490849622222     -0.95648870989424     -2.20948195079050
  H   -0.05760427881651      0.21088567027615      1.42455482372025
  C   -1.56388081329220     -1.50042109245017      0.17906636766955
  N   -2.18318169640108     -2.34692207559385      0.70789349131175
  N   -1.80863777297761      0.69321309109847     -0.64291928127955
  H   -1.36186727245629      1.50513994365564     -1.04896877879814
  H   -2.26228572909461      0.94396149314785      0.22888004719410
  C   1.15874419377296      1.18312468784435     -0.04999054565600
  H   1.98039984776342      1.38043024834614      0.64251478762481
  H   1.58518570756532      0.99497071421095     -1.03755829904605
  H   0.54897178160708      2.08879958374382     -0.09718075958446
  N   1.16443896558161     -1.24087806331067      0.62359668728230
  H   1.75668172763099     -1.15959127419163      1.44022621785612
  H   1.75636899645190     -1.39828200232956     -0.18363298290093
