16
Coordinates from ORCA-job run
  C   -0.75256759276515     -0.17348851319835     -0.54841376699096
  C   0.45635016252073     -0.04485486426482      0.40218081344469
  Br  -0.26383536770626      0.24902432169078     -2.39436581896281
  H   0.00742870050767     -0.16713905231066      1.40592394211214
  C   -1.19602802770279     -1.57832880421429     -0.55328942648503
  N   -1.58323485802463     -2.68511261113134     -0.45867838225834
  N   -1.78990292610137      0.75355394188409     -0.14826892447889
  H   -2.12510760555550      0.49952348840496      0.77652042930467
  H   -2.57092002722877      0.70703228649854     -0.79284453605108
  C   1.10067836299087      1.32877798410715      0.33038042719838
  H   1.76142394962186      1.46809534061125      1.19047555433997
  H   0.34443951872723      2.11262427941660      0.33704261308092
  H   1.69442871008570      1.41166644731501     -0.58110097925576
  N   1.42743303625811     -1.07742133163979      0.08996113724960
  H   2.33257766463096     -0.83097839881973      0.46849256750079
  H   1.15583629974135     -1.97297451434941      0.47698435025171
