16
Coordinates from ORCA-job run
  C   -0.77629399694267     -0.57072705398683     -0.34493949848884
  C   0.58665733357986     -0.43132673259362      0.35881021835688
  Br  -0.96384229905456     -2.36665384351436     -1.09756584656123
  H   0.62229106165831     -1.20749315929329      1.13131471209136
  C   -1.86675502556422     -0.42757294836749      0.63218508022575
  N   -2.72881531814677     -0.23911172319578      1.40993056301975
  N   -0.86346526028162      0.38068781059214     -1.44291729617205
  H   -1.05580672582511      1.30483321498637     -1.06837748270695
  H   -1.62937162445951      0.13175507219699     -2.05820948184769
  C   0.69777038661499      0.94327951189050      1.03016916043922
  H   0.72711273870112      1.73860006472775      0.28042446414149
  H   1.63761970772838      0.98914113399042      1.58588445036097
  H   -0.11400686499749      1.14078220778087      1.73532542128334
  N   1.62902383432679     -0.71451211588237     -0.61022482766542
  H   1.56262264886510     -0.04857685939739     -1.37123405002124
  H   2.53725940379739     -0.62110457993390     -0.17257558645533
