16
Coordinates from ORCA-job run
  C   -0.92262826781915     -0.47192842695937     -0.28798752825223
  C   0.56062675246149     -0.23290367811732      0.10097740108772
  Br  -1.67591727012177     -1.90591177219940      0.81787736722130
  H   1.06840729575564     -1.18009904565923     -0.11565478296005
  C   -1.67593262522288      0.75633976629153     -0.00620336157264
  N   -2.19494909816945      1.78606186946223      0.22091997365152
  N   -1.12563370953828     -0.84088129662011     -1.67146039737526
  H   -0.54366545718545     -0.20805691738972     -2.21636296741657
  H   -0.78651128135117     -1.78677145080560     -1.81170780829290
  C   0.78074738326988      0.15814109561801      1.55679815887942
  H   0.45683461610115     -0.61856227669387      2.24955919631587
  H   0.23774678306797      1.07832469498075      1.79160966291219
  H   1.84514503555547      0.34290675489557      1.72209294527742
  N   1.04809226108035      0.76296368069325     -0.85660829677101
  H   2.04566960508051      0.66044704345637     -0.99373110715803
  H   0.88196797703568      1.69792995904693     -0.49911845554676
