16
Coordinates from ORCA-job run
  C   -0.80185966291407     -0.25077445753360     -0.46542650109621
  C   0.46001833132636     -0.10446782452238      0.41774614518766
  Br  -0.36328735112034      0.25104490180896     -2.36792920309740
  H   0.08367719916198     -0.38189127528876      1.41564312888440
  C   -1.16399746483654     -1.66808342024402     -0.52785118254232
  N   -1.42899281703731     -2.81301129736023     -0.52177614201958
  N   -1.89276336694644      0.49087194497105      0.06472856796819
  H   -1.71167787405451      1.48515162476952      0.00920507216435
  H   -2.75171857469346      0.29099505564628     -0.43282444832659
  C   0.97966346459871      1.32250633744357      0.47581085813478
  H   0.21859720126911      2.02630437507241      0.81678701321976
  H   1.35182515614147      1.63234280438491     -0.50131598406524
  H   1.80255360608173      1.37452328232513      1.19384792485433
  N   1.49973799812880     -0.98837607347644     -0.07508131934348
  H   1.32138507884978     -1.94797393234221      0.19579884482103
  H   2.39783907604474     -0.71816204565419      0.30363722525634
