16
Coordinates from ORCA-job run
  C   -0.92522553594658     -0.49057723631724     -0.24628800013629
  C   0.56669643371104     -0.22254681682286      0.08629517513284
  Br  -1.61756167984418     -1.91295113779775      0.91307550063886
  H   1.08116024499685     -1.16682537468434     -0.12725411642225
  C   -1.68667227090566      0.73201611698034      0.03744326571313
  N   -2.21390495572355      1.75793787973564      0.26319764382940
  N   -1.17031336075252     -0.89061490943273     -1.61434359454012
  H   -0.82121850025625     -1.83409408898886     -1.74720438624259
  H   -0.61698402104848     -0.26060707108973     -2.19141846463153
  C   0.83051771638049      0.20343514997724      1.52503098905030
  H   0.28518553795442      1.12304663647479      1.75697628882064
  H   0.53845797779264     -0.56052278730526      2.24561933043405
  H   1.89770720387560      0.40292804015323      1.65009232916360
  N   1.00704575648543      0.75954489774441     -0.90801619353422
  H   1.99916494360226      0.66222166430002     -1.08282760072133
  H   0.84694450967851      1.69960903707310     -0.56137816655451
