16
Coordinates from ORCA-job run
  C   -0.81909166452871     -0.51451552381467     -0.25901940577479
  C   0.63967954852251     -0.22245221247791      0.20864454510682
  Br  -1.57740882186875     -1.94113109480028      0.88412946338244
  H   1.16537202553889     -1.18184642522661      0.11793929424576
  C   -1.63138783924464      0.68992579443641     -0.07642800282747
  N   -2.20355722025755      1.70788992887014      0.05766313702772
  N   -0.96234075178431     -0.96519349417500     -1.61979953109237
  H   -0.32246655522222     -1.72690741947249     -1.81501440163644
  H   -0.82625343266048     -0.20746527736714     -2.27709459011444
  C   0.73446239402426      0.27741912537594      1.64165656195517
  H   0.19770298319379      1.22425859047657      1.75493384693674
  H   0.32523599158071     -0.43662315852172      2.35401567998767
  H   1.78496433601241      0.45371929586042      1.87632006068109
  N   1.30527606116580      0.73447353266359     -0.65556752642979
  H   1.29468079636728      0.45234037900508     -1.62601417258253
  H   0.89513214916101      1.65710795916765     -0.56836495886557
