16

C	-0.510323	-0.022725	-1.454347
C	0.0	0.0	0.0
Cl	0.04632	-1.495514	-2.333951
H	1.099415	0.0	0.0
C	-1.978612	-0.023974	-1.470728
N	-3.15295	-0.073606	-1.446893
C	-0.035211	1.151993	-2.194952
N	0.293648	2.078234	-2.838208
C	-0.497251	-1.176717	0.815009
H	-1.583527	-1.146546	0.969072
H	-0.231983	-2.129907	0.35456
H	0.000413	-1.132645	1.787676
N	-0.419279	1.293031	0.530123
H	-1.089827	1.191338	1.280952
H	0.408125	1.763376	0.883269
H	2.775485	0.0	0.0
