16

C	-0.45834	0.006167	-1.454241
C	0.0	0.0	0.0
Cl	-2.290668	0.009999	-1.582057
H	1.09675	0.0	0.0
C	-0.00103	1.214476	-2.143934
N	0.346689	2.183726	-2.708999
C	-0.002356	-1.179385	-2.185592
N	0.354093	-2.130124	-2.777497
C	-0.44726	-1.239042	0.751612
H	-1.528951	-1.252407	0.925447
H	-0.162509	-2.155217	0.227369
H	0.070935	-1.242278	1.714315
N	-0.39733	1.25923	0.605869
H	-1.12836	1.12704	1.292681
H	0.423149	1.643986	1.063828
H	2.728299	0.0	0.0
