16

C	-0.456669	-0.007472	-1.452814
C	0.0	0.0	0.0
Cl	-2.289645	-0.007115	-1.583657
H	1.10188	0.0	0.0
C	0.000258	1.194324	-2.155119
N	0.333659	2.142213	-2.763606
C	0.000392	-1.200074	-2.171851
N	0.354437	-2.166197	-2.739952
C	-0.448534	-1.230269	0.764475
H	0.068395	-1.222691	1.727799
H	-0.163749	-2.15245	0.250877
H	-1.530601	-1.241512	0.937367
N	-0.393391	1.267799	0.591031
H	-1.135367	1.146099	1.269375
H	0.424968	1.644909	1.059797
H	2.723012	0.0	0.0
