16

C	-0.50798	0.028407	-1.454557
C	0.0	0.0	0.0
Cl	0.038976	-1.419176	-2.382716
H	1.099403	0.0	0.0
C	-1.976718	0.038378	-1.473406
N	-3.151719	-0.003865	-1.451518
C	-0.022434	1.223159	-2.155881
N	0.316381	2.166465	-2.76911
C	-0.49909	-1.202967	0.77462
H	-0.234552	-2.140525	0.282759
H	-0.001765	-1.191862	1.748164
H	-1.585244	-1.177085	0.929045
N	-0.416536	1.27589	0.572246
H	0.410727	1.726273	0.952046
H	-1.09753	1.151783	1.310505
H	2.774577	0.0	0.0
