15

C	0.0	0.0	0.0
C	-0.510579	0.239586	-1.412535
F	1.351756	0.0	0.0
H	-1.578697	0.470739	-1.34985
H	-0.392859	-0.898257	0.462489
N	-0.376328	1.141916	0.916512
O	-0.374298	0.871431	2.113112
O	-0.541938	2.258184	0.432686
N	-0.45407	-1.083909	-2.158003
O	-0.94836	-1.0921	-3.276034
O	0.089541	-2.047304	-1.61306
N	0.22081	1.201685	-2.179533
H	1.173646	1.26839	-1.847098
H	-0.221667	2.102373	-2.078177
Br	-3.522813	0.0	0.0
