15

C	0.0	0.0	0.0
C	-0.501885	0.377156	-1.402942
F	1.347093	0.0	0.0
H	0.218998	-0.100597	-2.076136
H	-0.377497	-1.004105	0.210181
N	-0.387879	0.804619	1.18285
O	-0.243091	2.184514	0.863721
O	-1.576283	1.536277	0.886811
N	-0.219532	1.877235	-1.727149
O	0.964915	2.18994	-1.829167
O	-1.174101	2.614139	-1.931435
N	-1.79241	-0.085857	-1.644047
H	-2.533879	0.184687	-0.992212
H	-2.108275	0.074281	-2.587528
Br	-4.661278	0.0	0.0
