15

C	0.0	0.0	0.0
C	-0.48578	0.140825	-1.431588
F	1.362071	0.0	0.0
H	-1.583718	0.180305	-1.399122
H	-0.385047	-0.880546	0.49918
N	-0.381428	1.167555	0.880623
O	-0.478611	0.902583	2.074667
O	-0.453059	2.290813	0.389312
N	-0.161195	-1.194892	-2.118003
O	-0.10417	-2.19669	-1.404812
O	-0.030076	-1.193328	-3.334096
N	0.077225	1.202706	-2.191704
H	-0.503036	2.021788	-2.092954
H	1.00806	1.425059	-1.864636
Br	-3.519027	0.0	0.0
