15

C	0.0	0.0	0.0
C	-0.622929	0.090412	-1.373349
Br	1.95702	0.0	0.0
H	-1.726453	0.076438	-1.045104
H	-0.285807	0.919761	0.508815
C	-0.490073	-1.212049	0.76956
H	-1.584241	-1.113982	0.746628
H	-0.16191	-2.138677	0.290281
H	-0.111391	-1.196719	1.794818
C	-0.327472	-1.087596	-2.195687
N	-0.12901	-2.011262	-2.897567
N	-0.295694	1.352463	-2.033155
H	0.626584	1.295478	-2.452875
H	-0.965734	1.51436	-2.775412
F	-2.912718	0.0	0.0
