15

C	0.0	0.0	0.0
C	-0.667345	-0.119806	-1.361081
Br	1.94521	0.0	0.0
H	-1.71588	-0.390593	-1.037434
H	-0.29639	0.971506	0.393043
C	-0.473471	-1.103309	0.93365
H	-0.04581	-0.980799	1.931415
H	-1.564947	-1.000972	0.949487
H	-0.176821	-2.08456	0.550444
C	-0.082021	-1.145616	-2.208628
N	0.346607	-1.98713	-2.909491
N	-0.724364	1.198211	-2.026391
H	-1.62327	1.566982	-1.726651
H	-0.78393	1.068246	-3.029223
F	-2.928781	0.0	0.0
