15

C	0.0	0.0	0.0
C	-0.588548	-0.054578	-1.41062
Br	1.958809	0.0	0.0
H	-1.684654	-0.098887	-1.125376
H	-0.303581	0.95386	0.430233
C	-0.483816	-1.145776	0.868248
H	-0.136446	-2.103159	0.470071
H	-0.117073	-1.039923	1.892687
H	-1.578821	-1.05944	0.823856
C	-0.186517	-1.278288	-2.10507
N	0.134743	-2.262634	-2.661744
N	-0.325529	1.10448	-2.247681
H	0.650561	1.367507	-2.16918
H	-0.889439	1.86509	-1.894751
F	-2.873234	0.0	0.0
