16

C	0.0	0.0	0.0
C	-0.618674	0.016476	-1.38288
Br	1.920897	0.0	0.0
H	-1.694274	-0.103475	-1.175818
H	-0.330861	0.858464	0.582813
N	-0.421003	-1.192122	0.831864
O	-0.76503	-2.213925	0.246868
O	-0.350272	-1.050633	2.047775
N	-0.06243	-1.018592	-2.253794
H	-0.437113	-0.865467	-3.182768
H	-0.416384	-1.91343	-1.936018
C	-0.406535	1.381533	-2.017256
H	-0.960708	1.429158	-2.95914
H	-0.796902	2.17102	-1.373206
H	0.65104	1.558425	-2.225923
Br	-3.907945	0.0	0.0
