16

C	0.0	0.0	0.0
C	-0.620827	-0.049358	-1.381275
Br	1.929142	0.0	0.0
H	-1.676391	-0.277929	-1.173167
H	-0.340743	0.869254	0.558291
N	-0.394428	-1.17979	0.859242
O	-0.521634	-0.96203	2.057981
O	-0.511946	-2.272517	0.311637
N	0.034012	-1.021151	-2.258905
H	-0.105305	-1.941567	-1.857132
H	-0.475702	-1.010094	-3.135834
C	-0.562254	1.333162	-2.009874
H	-1.121978	2.045973	-1.401814
H	0.470755	1.666476	-2.137617
H	-1.039387	1.303442	-2.993363
Br	-3.858456	0.0	0.0
