19

C	-0.055661	-0.067484	-1.529868
C	0.0	0.0	0.0
Br	-1.749924	-0.92719	-2.295966
H	1.099274	0.0	0.0
N	-0.187622	1.382338	-2.153958
O	0.779787	1.779635	-2.801807
O	-1.205565	2.033891	-1.943539
N	1.062301	-0.733367	-1.983064
H	1.890699	-0.506091	-1.360886
H	1.233715	-0.611815	-2.970403
C	-0.45053	-1.313849	0.621676
H	-0.079043	-1.360429	1.649318
H	-0.03024	-2.157192	0.073692
H	-1.540637	-1.410189	0.636925
C	-0.60956	1.201557	0.689042
H	-1.687444	1.27687	0.518343
H	-0.434914	1.098261	1.764739
H	-0.144334	2.136958	0.373579
F	2.733321	0.0	0.0
