19

C	-0.482607	0.02038	-1.435163
C	0.0	0.0	0.0
Br	0.38353	1.433936	-2.491026
H	1.092982	0.0	0.0
N	0.012433	-1.30387	-2.11031
O	1.210255	-1.492769	-2.219094
O	-0.874594	-2.102621	-2.434935
N	-1.883698	0.174159	-1.592206
H	-2.345148	-0.538685	-1.039083
H	-2.147468	0.038643	-2.560863
C	-0.440347	-1.281806	0.706404
H	-1.52927	-1.37627	0.836036
H	0.01389	-1.276798	1.700458
H	-0.068453	-2.175531	0.200103
C	-0.481071	1.232659	0.751326
H	-1.573101	1.29102	0.832372
H	-0.050821	1.2098	1.756827
H	-0.122068	2.142058	0.265664
F	2.624234	0.0	0.0
