19

C	-0.546906	0.014042	-1.418459
C	0.0	0.0	0.0
Br	0.378403	1.372304	-2.484343
H	1.094244	0.0	0.0
N	-0.238117	-1.350391	-2.043482
O	-1.159042	-2.169315	-1.990091
O	0.888449	-1.577221	-2.454345
N	-1.961852	0.231399	-1.627758
H	-2.467441	-0.459873	-1.083742
H	-2.182222	1.152879	-1.269249
C	-0.406051	-1.266695	0.751807
H	-0.039131	-1.167526	1.77692
H	0.08207	-2.147277	0.329602
H	-1.489936	-1.447783	0.792623
C	-0.458447	1.237343	0.761643
H	-1.528785	1.223662	1.015698
H	-0.237198	2.153603	0.208309
H	0.112371	1.283995	1.692906
F	2.618824	0.0	0.0
