19

C	0.01144	0.035687	-1.530703
C	0.0	0.0	0.0
Br	-0.476575	-2.037028	-2.385402
H	1.099269	0.0	0.0
N	-1.165849	0.689431	-2.239425
O	-2.261272	0.619433	-1.689961
O	-0.94091	1.273227	-3.298813
N	1.192523	0.468737	-1.96736
H	2.03808	0.276954	-1.292471
H	1.297925	0.642247	-2.955232
C	-0.635345	-1.174366	0.707537
H	-1.696777	-1.265197	0.462062
H	-0.538011	-1.023294	1.788147
H	-0.137607	-2.106551	0.44667
C	-0.468831	1.345973	0.550821
H	-1.558883	1.433705	0.561531
H	-0.050777	2.172275	-0.031204
H	-0.096487	1.448203	1.574669
F	2.790625	0.0	0.0
