19

C	-0.483275	-0.007868	-1.427727
C	0.0	0.0	0.0
Br	0.373401	-1.409999	-2.490439
H	1.095496	0.0	0.0
N	-2.023978	-0.380776	-1.414573
O	-2.385265	-1.549123	-1.345237
O	-2.7874	0.590345	-1.358509
N	-0.290921	1.215613	-2.107909
H	-0.768247	1.957658	-1.615474
H	-0.641195	1.161365	-3.055116
C	-0.424133	-1.223873	0.801222
H	-0.233118	-2.148174	0.25431
H	-1.481261	-1.213352	1.096567
H	0.191784	-1.246941	1.703441
C	-0.39023	1.287466	0.724492
H	0.131071	2.144325	0.29081
H	-1.471438	1.479981	0.75106
H	-0.031899	1.203505	1.753548
F	2.601715	0.0	0.0
