14
Coordinates from ORCA-job run
  C   -0.61760686135462      0.54309201975497     -0.21057041950999
  C   0.43450275247105     -0.01518584155837      0.74971906745180
  Br  -1.42523302522380      2.09734107146730      0.62210850847212
  H   -0.04651285729812     -0.27809426287165      1.69501700852475
  N   -1.74719657629773     -0.49537777317016     -0.37305809310058
  O   -1.96352023255838     -1.18901994341577      0.60834360065025
  O   -2.33907931165606     -0.48656894425405     -1.43689489908981
  C   -0.07831242874726      0.90272837237170     -1.50738249876032
  N   0.39249899847812      1.23872346525757     -2.53174791389056
  C   1.52974191742333      0.91954664153323      0.95719768970267
  N   2.41660824162812      1.67297169915536      1.12066675817524
  N   1.01428139368564     -1.32615050100763      0.21834745485465
  O   0.58428886838986     -1.73197359738416     -0.85381580518808
  O   1.84553912105986     -1.85103240587836      0.94106954170786
