17

C	-0.412103	0.09414	-1.46407
C	0.0	0.0	0.0
Br	-2.293575	0.663814	-1.642209
H	1.094635	0.0	0.0
H	-0.30051	0.950542	0.453668
C	0.465718	1.059549	-2.228344
H	0.324329	2.057632	-1.811175
H	0.209935	1.074624	-3.289682
H	1.509247	0.770605	-2.087366
N	-0.325527	-1.295677	-2.091287
O	0.712815	-1.553884	-2.690561
O	-1.245479	-2.084122	-1.899581
C	-0.554939	-1.168135	0.79782
H	-1.644938	-1.222145	0.748841
H	-0.145781	-2.116704	0.447649
H	-0.253806	-1.050624	1.84119
Br	3.62512	0.0	0.0
