17

C	-0.592242	0.010867	-1.399262
C	0.0	0.0	0.0
Br	0.291228	-1.30751	-2.544075
H	1.090609	0.0	0.0
H	-0.321606	0.935143	0.478751
C	-2.08461	-0.23413	-1.448863
H	-2.462001	-0.141197	-2.464651
H	-2.595094	0.497482	-0.815863
H	-2.294869	-1.23688	-1.079342
N	-0.28619	1.367852	-2.038141
O	-1.205848	1.935728	-2.631518
O	0.848119	1.801599	-1.904551
C	-0.456598	-1.191561	0.838868
H	-1.520679	-1.163125	1.088029
H	0.113643	-1.19437	1.769638
H	-0.238943	-2.131563	0.326173
Br	3.692044	0.0	0.0
