17

C	-0.348591	0.122612	-1.466351
C	0.0	0.0	0.0
Br	-2.312445	0.202694	-1.765544
H	1.096413	0.0	0.0
H	-0.36179	-0.955557	0.378834
C	0.310574	1.295908	-2.148447
H	1.389139	1.221024	-1.971846
H	-0.063592	2.221089	-1.708802
H	0.107985	1.301061	-3.217164
N	0.056955	-1.181842	-2.170256
O	0.590603	-1.09431	-3.272203
O	-0.205846	-2.229298	-1.594346
C	-0.476055	1.156738	0.868437
H	-0.162337	0.970298	1.897969
H	-1.563303	1.26837	0.853398
H	-0.018307	2.100052	0.565286
Br	3.584172	0.0	0.0
