17

C	-0.437175	-0.02405	-1.45522
C	0.0	0.0	0.0
Br	0.145936	1.572919	-2.399677
H	1.093639	0.0	0.0
H	-0.321074	-0.960131	0.420995
C	0.109621	-1.237507	-2.181962
H	1.199272	-1.195056	-2.119409
H	-0.203561	-1.24604	-3.22819
H	-0.244575	-2.143295	-1.688389
N	-1.969564	-0.068811	-1.466201
O	-2.446747	-1.148777	-1.11548
O	-2.626077	0.931215	-1.730587
C	-0.548306	1.146972	0.834627
H	-0.256827	2.110843	0.415229
H	-0.12767	1.083571	1.840573
H	-1.639426	1.1193	0.918065
Br	3.618063	0.0	0.0
