17

C	-0.563552	0.000608	-1.409697
C	0.0	0.0	0.0
Br	0.289328	-1.408813	-2.461454
H	1.09069	0.0	0.0
H	-0.313363	-0.945411	0.456767
C	-2.062955	-0.186688	-1.491764
H	-2.321013	-1.121794	-0.993691
H	-2.397878	-0.226562	-2.525958
H	-2.573413	0.640728	-0.997133
N	-0.189425	1.31197	-2.09922
O	0.963818	1.694437	-1.977986
O	-1.080205	1.900702	-2.715404
C	-0.4926	1.181044	0.8367
H	-0.023585	1.126224	1.820934
H	-0.181979	2.129636	0.393174
H	-1.577176	1.193192	0.976005
Br	3.735995	0.0	0.0
