17

C	-0.483206	0.000556	-1.433975
C	0.0	0.0	0.0
Cl	-2.283843	-0.030529	-1.579441
H	1.094736	0.0	0.0
N	0.024001	1.271922	-2.123033
O	-0.631254	2.295221	-1.977625
O	1.103445	1.17022	-2.688899
C	0.021982	-1.147308	-2.181881
N	0.366014	-2.063716	-2.829901
N	-0.362429	-1.293039	0.56398
H	-1.13984	-1.208521	1.204847
H	0.451009	-1.635496	1.065061
C	-0.450605	1.199806	0.811494
H	-0.038831	1.076988	1.817029
H	-0.054774	2.134917	0.411946
H	-1.541233	1.278994	0.876059
H	2.710286	0.0	0.0
