17

C	-0.467125	-0.025145	-1.444194
C	0.0	0.0	0.0
Cl	-2.260485	-0.117277	-1.605512
H	1.094701	0.0	0.0
N	0.010462	1.254438	-2.141529
O	1.123754	1.193883	-2.646117
O	-0.701509	2.245835	-2.062922
C	0.08725	-1.161836	-2.175117
N	0.461594	-2.070736	-2.816909
N	-0.371474	-1.280235	0.581564
H	0.42902	-1.614246	1.107967
H	-1.166015	-1.188167	1.200213
C	-0.460337	1.21812	0.77704
H	-0.059213	2.143982	0.361165
H	-1.551803	1.298983	0.826452
H	-0.061036	1.119779	1.790339
H	2.717356	0.0	0.0
