17

C	-0.478937	-0.012498	-1.45265
C	0.0	0.0	0.0
Cl	0.275238	1.287055	-2.417665
H	1.093431	0.0	0.0
N	-0.070651	-1.334061	-2.126424
O	1.041017	-1.757047	-1.868362
O	-0.883004	-1.82521	-2.907607
C	-1.931243	0.101112	-1.571922
N	-3.095869	0.262941	-1.580059
N	-0.465634	-1.260978	0.570607
H	-1.131614	-1.104849	1.316391
H	0.344613	-1.743559	0.946979
C	-0.494118	1.22547	0.740882
H	-1.58795	1.239739	0.827204
H	-0.164819	2.145889	0.25534
H	-0.056686	1.20685	1.742534
H	2.809008	0.0	0.0
