17

C	-0.567058	-0.012108	-1.408401
C	0.0	0.0	0.0
Cl	0.124774	1.279255	-2.429959
H	1.094668	0.0	0.0
N	-0.233719	-1.330259	-2.12366
O	0.766372	-1.924952	-1.76361
O	-0.984511	-1.644199	-3.044702
C	-2.024475	0.11587	-1.413343
N	-3.183706	0.296589	-1.335772
N	-0.488143	-1.229652	0.627905
H	0.327704	-1.777356	0.886361
H	-1.010591	-1.016067	1.467945
C	-0.426328	1.24604	0.757406
H	-1.506254	1.268072	0.948486
H	-0.141386	2.155737	0.226007
H	0.109675	1.244972	1.710545
H	2.795751	0.0	0.0
