15
Coordinates from ORCA-job run
  C   -0.61461128712695     -0.01049867528392      0.61381015670843
  C   0.81112070291147     -0.55314099934616      0.45506186735514
  Br  -1.42331193246810     -0.89126958897970      2.18273507204057
  H   1.34575348398823     -0.38757096988609      1.39425765806273
  H   0.73308994972171     -1.63615497876837      0.31718818285970
  C   -1.50522170601910     -0.28397964746122     -0.59402088745629
  H   -2.52712370710570      0.04348004774395     -0.40139966193167
  H   -1.51156173982562     -1.35469120727060     -0.80805263635903
  H   -1.12689303600398      0.25539205228216     -1.46515164504085
  C   -0.58118147969369      1.42171148734312      0.90470443440665
  N   -0.52451740641816      2.58148076183842      1.08849008943110
  C   1.57421262317713      0.08568042117501     -0.70313855725439
  H   1.60946922050038      1.17339167677679     -0.60657790702412
  H   1.13450673749109     -0.16273047675399     -1.67054868936882
  H   2.60326957687129     -0.28009990340940     -0.70735747642915
