15
Coordinates from ORCA-job run
  C   -0.55110524192484      0.14618139816193      0.57187229023766
  C   0.90271806218057      0.43349711147001      0.16956212756467
  Br  -0.59088089301562     -1.29499527338114      1.92128390552256
  H   1.46251107458727      0.68002917921933      1.07586808046493
  H   0.87759874379730      1.34204016668336     -0.44493714617550
  C   -1.43837404384423     -0.26691598147601     -0.59770989251188
  H   -2.47179539859920     -0.38801480998137     -0.27207996084588
  H   -1.09452261787458     -1.21040381780130     -1.02056488730189
  H   -1.39928790387493      0.50835159320810     -1.36883998682707
  C   -1.10548542574972      1.33135677930242      1.22433196888104
  N   -1.53787392917549      2.31421588723348      1.70264490407880
  C   1.59384994830154     -0.68932074800688     -0.59429942117983
  H   2.63873028057436     -0.42201560529994     -0.76568924280803
  H   1.13605077698512     -0.86105375934008     -1.57003799854872
  H   1.57586656763245     -1.62395211999191     -0.03140474055086
