15
Coordinates from ORCA-job run
  C   -0.57916104474989      0.13546560931682      0.54592128204842
  C   0.90253138431049      0.40021606438227      0.24156976406450
  Br  -0.73382190907478     -1.36392803461259      1.82157950019598
  H   0.93719160122018      1.33659299709622     -0.32886557464196
  H   1.41443575333759      0.58830266517555      1.18920931734926
  C   -1.40674302814254     -0.19876613671468     -0.69058892710194
  H   -2.46033748534140     -0.30463934648339     -0.43082220006929
  H   -1.06324119097115     -1.13197215738774     -1.13629989408752
  H   -1.30235649156845      0.60865444173011     -1.42175901082085
  C   -1.14073420962557      1.30444435736361      1.22090390371671
  N   -1.58200772967218      2.27461895846457      1.71672435558979
  C   1.60799505233810     -0.70519142406342     -0.53429805944206
  H   2.66796485530739     -0.46121379609165     -0.63195674587111
  H   1.20454467002617     -0.81755548919445     -1.54202353765904
  H   1.53173977260605     -1.66402870898122     -0.01929417327087
