14
Coordinates from ORCA-job run
  C   -1.02958553123114      0.16759256624433     -0.27570928719145
  C   0.49703734871829      0.44427084834017     -0.35685451005083
  Cl  -1.92595844286638      1.55537990514534     -0.96232444455389
  H   0.71440672125517      0.63271412947689     -1.41438969582113
  C   -1.43662581777000     -0.02946630214135      1.11700177761143
  N   -1.72567209478709     -0.19564440061660      2.24420519004695
  C   -1.34646435253992     -1.02818613034469     -1.06075710295316
  N   -1.55851640771806     -1.98687268729588     -1.70692318144304
  C   1.32054677492675     -0.74129978014482      0.15359857250147
  H   1.10502827227816     -0.94106461411377      1.20490929368275
  H   1.11133382890352     -1.63644968461570     -0.43446296317642
  H   2.38231230170412     -0.50832503576874      0.06087420103453
  C   0.80567748141639      1.65758268603111      0.40080553591811
  N   1.08447991771019      2.60976849980370      1.02902661439467
