14
Coordinates from ORCA-job run
  C   -0.98518940267383      0.06717046074710      0.15428852651778
  C   0.49246296134664      0.19385387208461     -0.31752814052298
  Cl  -1.11841351082768      0.40706677454701      1.90586839245793
  H   0.47231060746715      0.01742694804689     -1.40070111667865
  C   -1.45822678003990     -1.29546492945336     -0.10320957830397
  N   -1.80620041020262     -2.39566713480548     -0.32724383100339
  C   -1.82342180227920      1.02110707999536     -0.57592780268156
  N   -2.47236913479882      1.78837986754255     -1.18582506187460
  C   1.42390504356755     -0.82084723273499      0.34665906113031
  H   2.42776344227502     -0.70626661380635     -0.06450987389770
  H   1.47175960450653     -0.66050443729796      1.42333665984727
  H   1.08368812335053     -1.83841663369067      0.14752456397218
  C   0.94850902998656      1.56665988451586     -0.09609080617596
  N   1.34342222832206      2.65650209430944      0.09135900721335
