14
Coordinates from ORCA-job run
  C   -0.96794543942541     -0.20457051959549      0.15369697108039
  C   0.44264290819745      0.42717536433448     -0.02904787181802
  Cl  -0.94190794778331     -1.43997490106413      1.44792232357218
  H   0.32206211644806      1.19986671113782     -0.79914101132822
  C   -1.37652590798668     -0.83989202279726     -1.10180781196207
  N   -1.66862232978956     -1.33561308966195     -2.12675207474256
  C   -1.93455797984928      0.83562711159754      0.51353176019596
  N   -2.68816903282753      1.69509348256573      0.78763227908631
  C   1.49903829290354     -0.58186011184437     -0.48103001925759
  H   1.20589072439324     -1.04481941901258     -1.42485113125615
  H   2.44653793295639     -0.06254823933448     -0.63148007050824
  H   1.64569860825097     -1.35655145689469      0.27107027809060
  C   0.83433357170239      1.09193840117159      1.21434586277798
  N   1.18252448280972      1.61612868939779      2.20591051606943
