14
Coordinates from ORCA-job run
  C   -1.04610669262784      0.08874284058586     -0.24998856013398
  C   0.45041245604371      0.49145495532939     -0.35624491775461
  Cl  -2.06826585668790      1.41278520066600     -0.88439918213477
  H   0.62769867759911      0.71903569940961     -1.41360191567387
  C   -1.40440023070774     -0.17268369702895      1.14548614013864
  N   -1.65361416020674     -0.38945727744597      2.27361640935056
  C   -1.28174436025385     -1.11199242629571     -1.05597178527719
  N   -1.42997676661848     -2.07290691301228     -1.71644550295047
  C   1.37940885028788     -0.63290667779515      0.10966866298401
  H   1.23327898815800     -1.52849129716150     -0.49653064843001
  H   1.20241681560918     -0.87418803814437      1.15946936153688
  H   2.41613687286098     -0.31022118179141      0.00338305146281
  C   0.67744624582233      1.71035200293651      0.42103556126151
  N   0.89730916072134      2.67047680974802      1.06052332562048
