14
Coordinates from ORCA-job run
  C   -1.01422875184737      0.21642694629851     -0.30157451590084
  C   0.53030006602150      0.32738795014462     -0.42699400645577
  Cl  -1.78561278993424      1.54473716393810     -1.21800327334355
  H   0.74816744541835      0.30793949733074     -1.50105856323898
  C   -1.41735923703648      0.29893987463708      1.10371501839113
  N   -1.70611646318869      0.34853412877408      2.24208921158126
  C   -1.45327725168145     -1.06111508421558     -0.86891186345286
  N   -1.76363280868774     -2.09381980369432     -1.33654128528381
  C   1.24578414593671     -0.82506458700822      0.28293876177205
  H   0.94792054364752     -1.78399815136042     -0.14424758556375
  H   1.02446478705534     -0.82127952355106      1.35183918764932
  H   2.32340803630753     -0.71143778530351      0.15686969619342
  C   0.96607003782600      1.61862530242285      0.10663717537960
  N   1.35411224016303      2.63312407158712      0.55324204227279
