14
Coordinates from ORCA-job run
  C   -0.95443131273307     -0.32080338259180     -0.25119309043898
  C   0.53773076158599      0.08152965573006     -0.43388909836453
  Cl  -1.15509751684267     -2.04240712350466     -0.71052801442925
  H   0.78145907475173     -0.13676019727135     -1.48004024632785
  C   -1.80663902452722      0.48626770004747     -1.12700340119272
  N   -2.46719165817161      1.13684790643663     -1.84965225630121
  C   -1.36062239053241     -0.15067771296835      1.14510497722957
  N   -1.64589569430176     -0.01695516513014      2.27750676901672
  C   1.48121100493605     -0.67586215817346      0.50168868419363
  H   2.50772821851697     -0.36725891197796      0.29926588233749
  H   1.25464544941650     -0.45074827570014      1.54506549472315
  H   1.40449630031163     -1.75044035140017      0.33939564643287
  C   0.65390064434745      1.52638107563366     -0.22387001301242
  N   0.76770614324241      2.67988694087021     -0.03285133386648
