18

C	-0.360893	0.007693	-1.504597
C	0.0	0.0	0.0
F	-0.042012	-1.265478	-1.992648
H	1.092364	0.0	0.0
C	-1.832344	0.220292	-1.796501
H	-2.432133	-0.546315	-1.301082
H	-2.160747	1.199385	-1.442538
H	-1.998139	0.155707	-2.875621
C	0.573234	0.99698	-2.17463
H	1.582145	0.787105	-1.804597
H	0.301577	2.023179	-1.91218
H	0.51103	0.878051	-3.26006
N	-0.574796	-1.203737	0.657309
O	0.087634	-2.234691	0.610718
O	-1.6943	-1.108825	1.177611
C	-0.5064	1.19901	0.638523
N	-0.87166	2.212778	1.109464
F	2.541712	0.0	0.0
