18

C	-0.232329	-0.031749	-1.513069
C	0.0	0.0	0.0
F	-1.60727	-0.144355	-1.807373
H	1.107467	0.0	0.0
C	0.27316	1.29893	-2.049135
H	-0.332147	2.12832	-1.681856
H	1.305284	1.414435	-1.70983
H	0.235929	1.291595	-3.140945
C	0.521948	-1.165201	-2.186564
H	0.046989	-2.123086	-1.996928
H	1.532371	-1.163876	-1.770736
H	0.554792	-0.98248	-3.264361
N	-0.467204	-1.185414	0.759865
O	-0.920413	-0.998357	1.890647
O	-0.319697	-2.297243	0.257212
C	-0.536251	1.19451	0.623207
N	-0.931399	2.205246	1.075263
F	2.519471	0.0	0.0
