18

C	-0.222401	-0.032391	-1.515624
C	0.0	0.0	0.0
F	-1.599049	-0.086548	-1.817306
H	1.108447	0.0	0.0
C	0.353244	1.263651	-2.061721
H	-0.21296	2.125606	-1.705172
H	0.322993	1.249125	-3.154009
H	1.386497	1.327902	-1.711248
C	0.470681	-1.217142	-2.160264
H	-0.035068	-2.150494	-1.922688
H	1.490064	-1.243571	-1.769007
H	0.476761	-1.077708	-3.245197
N	-0.503906	-1.198155	0.715801
O	-1.342329	-1.044783	1.608355
O	-0.025598	-2.286746	0.399873
C	-0.554778	1.191695	0.611804
N	-0.948473	2.201646	1.066565
F	2.529518	0.0	0.0
