18

C	-0.376081	0.24978	-1.475988
C	0.0	0.0	0.0
F	-0.002137	-0.893201	-2.190584
H	1.106987	0.0	0.0
C	-1.861185	0.436177	-1.71796
H	-2.042128	0.570346	-2.787601
H	-2.413189	-0.443849	-1.379146
H	-2.23503	1.308652	-1.178334
C	0.497592	1.388096	-1.965945
H	0.182762	2.339452	-1.529304
H	0.424717	1.454142	-3.055201
H	1.521467	1.164259	-1.649964
N	-0.566712	-1.289943	0.468911
O	-1.627333	-1.273014	1.107273
O	0.044215	-2.309819	0.164105
C	-0.496592	1.084662	0.821444
N	-0.848733	2.014025	1.449136
F	2.524495	0.0	0.0
