15

C	-0.53308	0.007304	-1.42216
C	0.0	0.0	0.0
Cl	0.122857	-1.410562	-2.266964
H	1.092914	0.0	0.0
C	-1.991651	-0.021969	-1.506654
N	-3.163266	-0.118126	-1.539078
N	-0.037778	1.23261	-2.224843
O	-0.738536	1.537954	-3.183352
O	1.016015	1.733616	-1.884022
C	-0.433503	-1.192432	0.697074
N	-0.761655	-2.178091	1.249217
N	-0.478665	1.188512	0.742634
O	-0.996653	2.099573	0.090638
O	-0.28713	1.20466	1.952059
F	2.402587	0.0	0.0
