15

C	-0.511393	0.01561	-1.431732
C	0.0	0.0	0.0
Cl	0.135223	-1.41423	-2.264047
H	1.092859	0.0	0.0
C	-1.967125	0.017442	-1.556918
N	-3.138969	-0.043172	-1.631753
N	0.023591	1.240711	-2.217107
O	1.10992	1.677002	-1.894724
O	-0.689766	1.616564	-3.139428
C	-0.506215	-1.145605	0.717787
N	-0.916987	-2.081829	1.299061
N	-0.427342	1.232683	0.710157
O	-0.955471	2.127149	0.041022
O	-0.179364	1.29574	1.908618
F	2.404903	0.0	0.0
