15

C	-0.47519	-0.006225	-1.45345
C	0.0	0.0	0.0
Cl	-2.202295	-0.206485	-1.672638
H	1.089623	0.0	0.0
C	-0.025393	1.201499	-2.135478
N	0.321647	2.172207	-2.701229
N	0.236549	-1.174174	-2.270674
O	1.348007	-1.496633	-1.870119
O	-0.448149	-1.758774	-3.10732
C	-0.530384	-1.125169	0.739349
N	-0.930403	-2.056945	1.334868
N	-0.437089	1.301301	0.644254
O	-1.620841	1.403786	0.9709
O	0.452492	2.116781	0.857374
F	2.488149	0.0	0.0
