15

C	-0.476272	0.006699	-1.452471
C	0.0	0.0	0.0
Cl	-2.252948	0.00815	-1.626066
H	1.115499	0.0	0.0
C	-0.009808	1.324598	-2.091095
N	-0.3764	2.399295	-1.899216
N	0.11147	-1.128287	-2.29539
O	1.352007	-1.312794	-2.112421
O	-0.444784	-1.299535	-3.41487
C	-0.303634	-1.226672	0.863174
N	0.134722	-1.536567	1.857865
N	-0.505718	1.099583	0.87302
O	-1.752158	1.103389	1.110107
O	0.336434	1.471211	1.750896
F	2.485964	0.0	0.0
