15

C	-0.486858	0.049362	-1.435733
C	0.0	0.0	0.0
Cl	0.233267	-1.31702	-2.309516
H	1.109455	0.0	0.0
C	-1.936894	-0.00503	-1.597729
N	-3.100961	-0.124927	-1.719722
N	0.016818	1.322431	-2.163484
O	-0.578774	1.588772	-3.200992
O	0.971123	1.903061	-1.682894
C	-0.435123	-1.214876	0.652627
N	-0.76551	-2.215798	1.175087
N	-0.495825	1.163009	0.766984
O	-1.109051	2.042192	0.152326
O	-0.224882	1.190348	1.963211
F	2.40327	0.0	0.0
