15

C	-0.570013	-0.004691	-1.409062
C	0.0	0.0	0.0
Cl	0.001565	-1.466314	-2.240526
H	1.094744	0.0	0.0
C	-2.030465	0.021711	-1.436029
N	-3.205586	-0.003849	-1.396703
N	-0.05683	1.180251	-2.258584
O	1.098406	1.513939	-2.08918
O	-0.853701	1.622444	-3.076437
C	-0.439853	-1.16995	0.729089
N	-0.772588	-2.13813	1.308062
N	-0.434905	1.216138	0.721586
O	-0.324734	1.219799	1.942744
O	-0.820683	2.168981	0.036679
F	2.398807	0.0	0.0
