15

C	-0.429845	0.056534	-1.44818
C	0.0	0.0	0.0
Cl	-2.173253	0.361464	-1.654989
H	1.114501	0.0	0.0
C	0.331445	1.005536	-2.256893
N	0.90488	1.69105	-3.020446
N	-0.116133	-1.330297	-2.108918
O	0.780095	-1.976375	-1.59068
O	-0.741125	-1.605091	-3.120624
C	-0.561345	-1.128705	0.699341
N	-1.00489	-2.073332	1.241938
N	-0.329731	1.259583	0.696009
O	-0.492555	1.208291	1.912605
O	-0.329648	2.289909	0.022095
F	2.393359	0.0	0.0
