17

C	-0.593798	0.001846	-1.406748
C	0.0	0.0	0.0
F	-0.13229	1.145141	-2.019725
H	1.094145	0.0	0.0
N	-0.015484	-1.131836	-2.259314
O	-0.810751	-1.840623	-2.874344
O	1.202666	-1.192331	-2.32155
C	-2.097534	-0.007281	-1.47969
H	-2.470129	0.844674	-0.909002
H	-2.417224	0.081846	-2.517376
H	-2.493294	-0.934601	-1.070729
N	-0.397094	-1.195034	0.758671
O	-0.583197	-2.229424	0.109393
O	-0.440882	-1.12142	1.984713
C	-0.433614	1.193489	0.696064
N	-0.802061	2.180669	1.218239
F	2.416025	0.0	0.0
