17

C	-0.353167	-0.186167	-1.479822
C	0.0	0.0	0.0
F	-1.608917	-0.70377	-1.643839
H	1.089982	0.0	0.0
N	-0.399081	1.220854	-2.07964
O	-1.477139	1.632515	-2.492833
O	0.66939	1.818648	-2.110821
C	0.685128	-0.972792	-2.244305
H	0.562906	-0.812514	-3.318625
H	1.664829	-0.64912	-1.884493
H	0.550843	-2.026023	-2.009952
N	-0.375131	-1.203941	0.787571
O	-0.22392	-2.298724	0.250958
O	-0.737654	-1.039845	1.950635
C	-0.586132	1.179041	0.599138
N	-1.011092	2.16337	1.081659
F	2.477044	0.0	0.0
