17

C	-0.564474	-0.004672	-1.417372
C	0.0	0.0	0.0
F	-0.020157	1.090251	-2.052869
H	1.093297	0.0	0.0
N	-0.034682	-1.196028	-2.22434
O	-0.771434	-1.622071	-3.114921
O	1.101825	-1.574757	-1.992183
C	-2.064185	0.071951	-1.535358
H	-2.342671	0.179829	-2.58218
H	-2.521597	-0.83269	-1.138495
H	-2.407425	0.941918	-0.973359
N	-0.438	-1.171281	0.775657
O	-0.785973	-2.176509	0.145742
O	-0.369403	-1.105036	2.00025
C	-0.420895	1.210391	0.675741
N	-0.78218	2.206192	1.186425
F	2.419321	0.0	0.0
