17

C	-0.604798	0.009631	-1.402861
C	0.0	0.0	0.0
F	-0.198166	1.18646	-1.987779
H	1.09417	0.0	0.0
N	0.011476	-1.076829	-2.289787
O	-0.74572	-1.914717	-2.775256
O	1.211884	-0.980092	-2.496491
C	-2.108101	-0.059264	-1.463574
H	-2.439917	0.02605	-2.49853
H	-2.46624	-1.003095	-1.058382
H	-2.507923	0.775093	-0.884778
N	-0.381109	-1.203646	0.75611
O	-0.498094	-2.247588	0.108113
O	-0.475414	-1.122961	1.979126
C	-0.442506	1.185269	0.705791
N	-0.814165	2.165408	1.238776
F	2.415953	0.0	0.0
