17

C	-0.431935	-0.018839	-1.446895
C	0.0	0.0	0.0
F	0.31819	-0.892553	-2.164729
H	1.096498	0.0	0.0
N	-1.885751	-0.484882	-1.620509
O	-2.1571	-1.107717	-2.639351
O	-2.684243	-0.122378	-0.762882
C	-0.332033	1.346962	-2.080575
H	-1.032986	2.043178	-1.620249
H	-0.546471	1.247247	-3.146264
H	0.692032	1.691965	-1.932463
N	-0.393761	-1.243987	0.710667
O	-0.660958	-2.230151	0.023495
O	-0.36937	-1.225813	1.938139
C	-0.474877	1.146509	0.739917
N	-0.793665	2.113769	1.32741
F	2.437676	0.0	0.0
