17

C	-0.270499	-0.007569	-1.484672
C	0.0	0.0	0.0
F	0.381367	-1.043906	-2.074998
H	1.095867	0.0	0.0
N	-1.750394	-0.202576	-1.821375
O	-2.559203	0.301289	-1.048025
O	-2.019015	-0.781395	-2.866863
C	0.211589	1.278703	-2.112506
H	-0.372929	2.133026	-1.770162
H	1.25378	1.379752	-1.798526
H	0.147301	1.185828	-3.198239
N	-0.50157	-1.195908	0.703615
O	-0.923692	-2.132267	0.02351
O	-0.42377	-1.191087	1.929487
C	-0.434461	1.199304	0.678808
N	-0.718842	2.212698	1.202142
F	2.449034	0.0	0.0
