17

C	-0.260212	0.073415	-1.505376
C	0.0	0.0	0.0
F	0.050079	-1.119381	-2.081011
H	1.092871	0.0	0.0
N	-1.756401	0.264976	-1.770337
O	-2.166512	1.420901	-1.846425
O	-2.445326	-0.747596	-1.840721
C	0.572173	1.164198	-2.119307
H	0.249486	2.143927	-1.774216
H	1.590676	0.965198	-1.768673
H	0.500247	1.108997	-3.208289
N	-0.573629	-1.237566	0.597471
O	-1.596646	-1.13472	1.282696
O	0.019986	-2.285134	0.361396
C	-0.501742	1.175943	0.680149
N	-0.838918	2.157407	1.233036
F	2.494393	0.0	0.0
