17

C	-0.345414	-0.178382	-1.483174
C	0.0	0.0	0.0
F	-1.621175	-0.643022	-1.655828
H	1.089986	0.0	0.0
N	-0.331973	1.227433	-2.081962
O	0.768451	1.759401	-2.168262
O	-1.404187	1.7127	-2.427886
C	0.668659	-1.000953	-2.239221
H	1.654878	-0.718721	-1.859814
H	0.577534	-0.817962	-3.312427
H	0.4887	-2.052887	-2.026553
N	-0.399099	-1.1984	0.782508
O	-0.259614	-2.2964	0.245691
O	-0.778063	-1.026781	1.939995
C	-0.577163	1.185097	0.595707
N	-0.997493	2.169457	1.080233
F	2.480126	0.0	0.0
