17

C	-0.355655	-0.202143	-1.475126
C	0.0	0.0	0.0
F	-1.635973	-0.663111	-1.631372
H	1.089972	0.0	0.0
N	-0.333984	1.198837	-2.091677
O	0.779097	1.684377	-2.248311
O	-1.404122	1.72111	-2.377497
C	0.648145	-1.048917	-2.217236
H	0.462821	-2.095187	-1.983473
H	1.636516	-0.766066	-1.847502
H	0.551783	-0.883592	-3.290869
N	-0.382629	-1.193419	0.798929
O	-0.148519	-2.294992	0.307978
O	-0.831485	-1.013435	1.927527
C	-0.585196	1.189438	0.582157
N	-1.013603	2.178891	1.05236
F	2.474688	0.0	0.0
