17

C	-0.35423	-0.209455	-1.476518
C	0.0	0.0	0.0
F	-1.613535	-0.72033	-1.631861
H	1.089998	0.0	0.0
N	-0.389156	1.186428	-2.101574
O	0.679961	1.782165	-2.124104
O	-1.458589	1.592534	-2.541688
C	0.679201	-1.013243	-2.225808
H	0.537156	-2.06314	-1.981012
H	1.66039	-0.692582	-1.864703
H	0.562698	-0.864166	-3.3017
N	-0.371218	-1.192016	0.807404
O	-0.205879	-2.296545	0.293267
O	-0.734302	-1.007178	1.966106
C	-0.588529	1.187487	0.580972
N	-1.030424	2.186034	1.017556
F	2.478375	0.0	0.0
