17

C	-0.259736	-0.024775	-1.486561
C	0.0	0.0	0.0
F	0.377081	-1.082493	-2.054763
H	1.096061	0.0	0.0
N	-1.737432	-0.197841	-1.834983
O	-2.545103	0.314436	-1.067371
O	-2.00407	-0.771872	-2.883753
C	0.254711	1.240809	-2.125528
H	0.195788	1.133488	-3.209336
H	-0.312021	2.112283	-1.798432
H	1.294172	1.32113	-1.80413
N	-0.506265	-1.186627	0.716128
O	-0.957315	-2.116596	0.048288
O	-0.404349	-1.179588	1.940649
C	-0.434455	1.208239	0.663333
N	-0.72693	2.223077	1.179761
F	2.452527	0.0	0.0
