17

C	-0.476666	0.007425	-1.455995
C	0.0	0.0	0.0
F	0.028411	1.138095	-2.030672
H	1.092534	0.0	0.0
N	0.163371	-1.165411	-2.199928
O	1.278524	-0.99166	-2.662943
O	-0.515303	-2.189498	-2.282576
C	-1.969723	-0.021366	-1.667207
H	-2.394458	0.870722	-1.204987
H	-2.412217	-0.906232	-1.215688
H	-2.191513	-0.016387	-2.736137
N	-0.468208	-1.246139	0.665929
O	-1.470349	-1.201947	1.387877
O	0.191608	-2.258267	0.437195
C	-0.548439	1.157832	0.672547
N	-0.972802	2.129788	1.180418
F	2.439043	0.0	0.0
