14

C	-0.332037	-0.019076	-1.485443
C	0.0	0.0	0.0
Cl	-2.100336	-0.213086	-1.787575
H	1.104138	0.0	0.0
H	-0.108531	0.981717	-1.875139
N	0.384871	-1.099631	-2.10062
H	1.351072	-1.069281	-1.778883
H	0.373896	-1.004153	-3.10691
C	-0.4824	-1.202089	0.672111
N	-0.855089	-2.150091	1.255682
N	-0.529559	1.211067	0.644714
H	-0.610439	1.035918	1.641075
H	0.192553	1.921102	0.547024
Br	3.460677	0.0	0.0
