14

C	-0.334699	0.083401	-1.500847
C	0.0	0.0	0.0
Cl	-0.139256	-1.578213	-2.283578
H	1.097619	0.0	0.0
H	-1.391025	0.313565	-1.665116
N	0.497596	1.080297	-2.062608
H	0.373536	1.15711	-3.062787
H	1.475238	0.882112	-1.848255
C	-0.565953	-1.183231	0.645085
N	-1.076637	-2.094265	1.181321
N	-0.418946	1.193991	0.728924
H	-1.355493	1.46372	0.445913
H	0.211946	1.941656	0.466379
Br	3.485271	0.0	0.0
