14

C	-0.393275	0.118248	-1.472793
C	0.0	0.0	0.0
Cl	-0.123114	-1.48523	-2.321256
H	1.103234	0.0	0.0
H	-1.462658	0.30365	-1.572065
N	0.361408	1.189425	-2.018201
H	1.358477	1.014154	-1.888839
H	0.159357	1.331175	-3.000043
C	-0.53646	-1.197223	0.64152
N	-0.947223	-2.151541	1.187538
N	-0.53883	1.193306	0.682062
H	-0.107345	1.227586	1.601618
H	-0.161879	1.982947	0.165162
Br	3.522242	0.0	0.0
