14

C	-0.506991	0.048469	-1.441274
C	0.0	0.0	0.0
Cl	-0.063598	1.588541	-2.209128
H	1.094458	0.0	0.0
H	0.024289	-0.72126	-2.012838
N	-1.959385	-0.073935	-1.462518
H	-2.292586	0.086174	-2.405483
H	-2.199674	-1.027181	-1.208073
C	-0.433728	-1.30816	0.542231
N	-0.858882	-2.315932	0.974129
N	-0.474466	1.122682	0.780537
H	-1.447546	1.007369	1.027392
H	0.09069	1.210402	1.614441
Br	3.500265	0.0	0.0
