14

C	-0.459873	-0.008902	-1.466205
C	0.0	0.0	0.0
Cl	0.072006	1.494448	-2.271688
H	1.094522	0.0	0.0
H	0.063208	-0.814609	-1.993438
N	-1.909918	-0.060328	-1.536588
H	-2.219018	-0.941256	-1.136613
H	-2.205846	-0.034346	-2.505496
C	-0.472377	-1.267504	0.580448
N	-0.90174	-2.291491	0.96496
N	-0.485342	1.119157	0.787638
H	0.19755	1.862117	0.715091
H	-1.365013	1.43945	0.398157
Br	3.487535	0.0	0.0
