14

C	0.0	0.0	0.0
C	-0.507333	-0.072888	-1.444686
F	1.371809	0.0	0.0
H	-1.580075	0.154231	-1.384694
H	-0.30586	0.965768	0.422176
N	-0.482699	-1.139907	0.724525
H	-1.505276	-1.09017	0.671723
H	-0.229296	-1.032622	1.700441
N	-0.235634	-1.386949	-2.035558
H	-1.057634	-1.669012	-2.557164
H	-0.147085	-2.033161	-1.256256
C	0.149478	0.980178	-2.23559
N	0.644766	1.831113	-2.874677
Cl	-3.566667	0.0	0.0
