14

C	0.0	0.0	0.0
C	-0.508343	-0.082576	-1.443421
F	1.371795	0.0	0.0
H	-1.581853	0.139103	-1.379434
H	-0.306637	0.967754	0.416752
N	-0.481013	-1.1361	0.731662
H	-1.502894	-1.092176	0.672631
H	-0.23343	-1.019222	1.707624
N	-0.232419	-1.398516	-2.029615
H	-1.061019	-1.69343	-2.532028
H	-0.123544	-2.038077	-1.24805
C	0.140544	0.969945	-2.240845
N	0.635086	1.81668	-2.885816
Cl	-3.56685	0.0	0.0
