14

C	0.0	0.0	0.0
C	-0.385689	0.411615	-1.436142
F	1.396944	0.0	0.0
H	0.493583	0.950339	-1.802561
H	-0.280447	0.836162	0.651873
N	-0.518363	-1.266198	0.38267
H	-0.531685	-1.33977	1.392309
H	-1.488218	-1.329104	0.078902
N	-1.500637	1.338639	-1.44779
H	-2.333233	0.917876	-1.020823
H	-1.739573	1.566885	-2.406053
C	-0.508527	-0.771854	-2.324368
N	-0.566503	-1.641884	-3.111263
Cl	-3.973577	0.0	0.0
