14

C	0.0	0.0	0.0
C	-0.54967	-0.067546	-1.413688
F	1.416456	0.0	0.0
H	-1.642414	0.004092	-1.270497
H	-0.296197	0.94027	0.470103
N	-0.493278	-1.090849	0.726726
H	-0.330455	-1.956702	0.234883
H	-0.166149	-1.108257	1.67935
N	-0.220494	-1.357861	-2.019328
H	-0.902861	-1.579357	-2.73228
H	0.697975	-1.321012	-2.444226
C	-0.076601	1.073798	-2.215391
N	0.297188	1.957582	-2.893376
Cl	-3.814731	0.0	0.0
