14

C	0.0	0.0	0.0
C	-0.576346	-0.14366	-1.396542
F	1.416213	0.0	0.0
H	-1.664167	-0.042939	-1.230471
H	-0.291652	0.964908	0.420308
N	-0.485867	-1.049395	0.793075
H	-0.121162	-1.024063	1.732436
H	-0.335836	-1.93802	0.33863
N	-0.292492	-1.473513	-1.934947
H	0.590687	-1.47549	-2.428839
H	-1.027273	-1.739391	-2.576569
C	-0.102093	0.936645	-2.275728
N	0.299409	1.752488	-3.019507
Cl	-3.819769	0.0	0.0
