14

C	0.0	0.0	0.0
C	-0.471749	-0.086133	-1.466059
Br	1.94217	0.0	0.0
H	0.383782	0.040186	-2.138558
H	-0.317945	0.941458	0.430935
C	-0.433719	-1.104908	0.846377
N	-0.571092	-1.997917	1.597859
N	-1.281229	1.193552	-1.782055
O	-0.983637	2.236494	-1.210015
O	-2.052386	1.115961	-2.731822
N	-1.160744	-1.282528	-1.75832
H	-1.439709	-1.270055	-2.731447
H	-1.993069	-1.195009	-1.148601
F	-2.456143	0.0	0.0
