14

C	0.0	0.0	0.0
C	-0.457383	-0.333396	-1.439389
Br	1.954475	0.0	0.0
H	0.410276	-0.362041	-2.106089
H	-0.322898	0.99491	0.280066
C	-0.421851	-0.969894	1.002874
N	-0.604117	-1.720802	1.887579
N	-1.205184	0.904999	-1.990711
O	-0.817259	2.017278	-1.646832
O	-2.028521	0.694767	-2.872943
N	-1.194341	-1.530869	-1.5271
H	-2.022672	-1.296215	-0.945351
H	-1.468049	-1.679232	-2.4896
F	-2.453152	0.0	0.0
