14

C	0.0	0.0	0.0
C	-0.459419	-0.246919	-1.455749
Br	1.947618	0.0	0.0
H	0.407314	-0.232275	-2.124337
H	-0.322835	0.978345	0.333893
C	-0.432859	-1.024853	0.941117
N	-0.587878	-1.85179	1.76165
N	-1.215703	1.01557	-1.934532
O	-0.85155	2.109246	-1.512961
O	-2.018807	0.850722	-2.845203
N	-1.188427	-1.442678	-1.614074
H	-1.458134	-1.538371	-2.584469
H	-2.019768	-1.249603	-1.022889
F	-2.455273	0.0	0.0
