16
Coordinates from ORCA-job run
  C   0.50032925087226      0.35397508766655     -0.38331238757365
  C   -0.99184931537651      0.34764360945182     -0.06250916355009
  H   0.62131872830887      0.00895971582131     -1.41861350975355
  H   -1.13076652684056      0.74017180184155      0.95426318002698
  H   -1.47147823403961      1.06098322860967     -0.73893972278532
  C   1.29759150610926     -0.57509779338473      0.53291893720474
  H   1.14504061565089     -0.29357379861093      1.58071673571717
  H   2.36711045163340     -0.49854797174925      0.31655693915358
  H   1.01120537662815     -1.62337603306027      0.41637976553273
  N   0.96314958359354      1.74520640087047     -0.35539701526455
  H   1.94457343275511      1.78300469095821     -0.60911558426333
  H   0.89426418304863      2.09480296093162      0.59543803235653
  C   -1.65492057739494     -1.02131907909187     -0.18094716144655
  H   -1.46339672342038     -1.46323072876908     -1.16310663407821
  H   -1.29336619550038     -1.71853744913722      0.57749913514289
  H   -2.73780555602774     -0.94006464234784     -0.06083154641938
