16
Coordinates from ORCA-job run
  C   0.67298396252025      0.27244464538901     -0.38199449706201
  C   -0.67609632097267     -0.26647134069180     -0.86319646734162
  H   1.33556955077426      0.31442530686356     -1.26358716834351
  H   -1.08441561994388      0.44228140539445     -1.59541592323702
  H   -0.49972879844950     -1.19937081982207     -1.41123420847984
  C   1.33106910508369     -0.63354601972330      0.64912915458502
  H   1.40813016598369     -1.65893052099460      0.27821477055362
  H   0.75828980532293     -0.63370657088380      1.57790829364088
  H   2.34290796283525     -0.28555842081416      0.87894144227433
  N   0.47279991293417      1.59547447466081      0.21818234128253
  H   0.14785437959920      2.24345899416615     -0.49149365218542
  H   1.35816035135865      1.95138721560366      0.56137950507322
  C   -1.69547827938108     -0.49131642453813      0.24987024610603
  H   -2.67490821687932     -0.73723001663620     -0.16801887302325
  H   -1.79473996870637      0.40603405824903      0.86111777109144
  H   -1.40239799207926     -1.31737596622262      0.90119726506560
