16

C	0.0	0.0	0.0
C	-0.219414	0.010874	-1.538213
Cl	1.817555	0.0	0.0
H	0.343876	0.86755	-1.910983
H	0.328698	-0.879605	-1.861055
N	-0.316043	1.41604	0.608059
O	-0.488081	1.449216	1.821446
O	-0.358307	2.388276	-0.137209
N	-0.648299	-1.009121	0.665663
H	-1.711561	-0.724514	0.440169
H	-0.483089	-0.912387	1.662976
C	-1.58441	-0.005944	-2.20949
H	-2.200482	0.831481	-1.902705
H	-2.150901	-0.898336	-1.964027
H	-1.394252	0.027426	-3.29138
F	-2.844574	0.0	0.0
