16

C	0.0	0.0	0.0
C	-0.469043	0.010445	-1.456523
Cl	1.77761	0.0	0.0
H	-1.517351	0.313147	-1.376119
H	0.113564	0.734769	-2.026359
N	-0.346078	1.393023	0.598698
O	-0.290292	2.346104	-0.173314
O	-0.579938	1.467204	1.793526
N	-0.566436	-0.95823	0.857867
H	-1.607192	-0.750481	0.689051
H	-0.337068	-1.876384	0.495067
C	-0.39875	-1.379213	-2.074343
H	-1.167148	-2.012309	-1.626945
H	0.581245	-1.851633	-1.945489
H	-0.603729	-1.323444	-3.147416
F	-2.785827	0.0	0.0
