16

C	0.0	0.0	0.0
C	-0.474697	0.054833	-1.459427
Cl	1.780254	0.0	0.0
H	-1.566159	0.105825	-1.333241
H	-0.227158	-0.946432	-1.836277
N	-0.375224	1.298792	0.749182
O	-0.31858	2.342473	0.105049
O	-0.634228	1.22332	1.938922
N	-0.562573	-1.059923	0.743925
H	-0.364195	-1.914163	0.232537
H	-1.600762	-0.828484	0.617482
C	0.069756	1.091222	-2.43553
H	1.160736	1.15302	-2.412382
H	-0.22652	0.805132	-3.450914
H	-0.332607	2.079943	-2.228958
F	-2.799283	0.0	0.0
