16

C	0.0	0.0	0.0
C	-0.49919	0.03565	-1.443777
Cl	1.782494	0.0	0.0
H	-0.252409	-0.967524	-1.806588
H	-1.589315	0.091599	-1.314593
N	-0.3086	1.358671	0.743194
O	-0.495171	1.281508	1.952684
O	-0.291405	2.405508	0.106547
N	-0.586153	-1.067024	0.671417
H	-0.381798	-0.987722	1.661324
H	-1.627367	-0.847532	0.507972
C	0.033231	1.078912	-2.418037
H	-0.404067	2.057159	-2.232484
H	1.120845	1.177687	-2.378195
H	-0.235274	0.771983	-3.43457
F	-2.834986	0.0	0.0
