16

C	0.0	0.0	0.0
C	-0.490642	0.285113	-1.414491
Cl	1.827294	0.0	0.0
H	-0.396024	-0.685681	-1.911639
H	-1.562966	0.460424	-1.257627
N	-0.287763	1.223222	0.949021
O	-0.490752	2.329895	0.465271
O	-0.269006	0.979394	2.152589
N	-0.586603	-1.151696	0.500675
H	-0.389577	-1.21307	1.494182
H	-1.63316	-0.904227	0.355551
C	0.191937	1.356713	-2.253066
H	-0.295953	1.390196	-3.233308
H	0.101778	2.340893	-1.797948
H	1.250482	1.143588	-2.417448
F	-2.82228	0.0	0.0
