14

C	0.0	0.0	0.0
C	-0.50701	-0.233623	-1.425253
Br	1.934757	0.0	0.0
H	0.135501	0.334	-2.099316
H	-1.522927	0.164867	-1.45273
N	-0.379337	1.403362	0.477519
O	-0.425065	2.261051	-0.394029
O	-0.517314	1.57033	1.679455
C	-0.439826	-0.989484	0.972704
N	-0.625432	-1.848043	1.754244
N	-0.427584	-1.659872	-1.709864
H	-0.318089	-1.797278	-2.705655
H	-1.315612	-2.070731	-1.437592
Br	-3.524356	0.0	0.0
