14

C	0.0	0.0	0.0
C	-0.522187	-0.273518	-1.4127
Br	1.934783	0.0	0.0
H	0.139527	0.23869	-2.113184
H	-1.520176	0.165421	-1.457855
N	-0.374432	1.419964	0.436831
O	-0.417144	2.250401	-0.460354
O	-0.510739	1.624253	1.632917
C	-0.428281	-0.955348	1.011094
N	-0.643828	-1.764195	1.836473
N	-0.508619	-1.712199	-1.637664
H	-0.431303	-1.893299	-2.629494
H	-1.411083	-2.065532	-1.331049
Br	-3.511399	0.0	0.0
