21

C	0.0	0.0	0.0
C	-0.333645	-0.042923	-1.50914
F	1.413973	0.0	0.0
H	0.413738	-0.745292	-1.906429
C	-0.507428	1.226678	0.722773
H	-1.601247	1.250124	0.654545
H	-0.223259	1.175741	1.778359
H	-0.088023	2.140909	0.299159
C	-0.453412	-1.260385	0.707618
H	-1.545612	-1.272072	0.770404
H	-0.032353	-1.282177	1.71765
H	-0.107985	-2.147606	0.168778
C	-0.082198	1.308486	-2.178478
H	0.883772	1.72875	-1.883896
H	-0.872535	2.020497	-1.926486
H	-0.082153	1.188066	-3.266553
C	-1.725098	-0.573062	-1.844788
H	-1.947303	-0.379873	-2.900866
H	-2.5353	-0.146478	-1.231866
H	-1.780389	-1.655002	-1.693151
H	-4.083606	0.0	0.0
