16

C	-0.509971	0.091447	-1.452367
C	0.0	0.0	0.0
F	-0.155363	-1.124465	-2.028726
H	1.091851	0.0	0.0
C	-2.017305	0.229034	-1.57049
H	-2.29448	0.147303	-2.622814
H	-2.494839	-0.579871	-1.014061
H	-2.348324	1.193859	-1.189047
C	0.160114	1.1505	-2.225979
N	0.574115	1.987982	-2.937393
C	-0.511616	-1.208042	0.627603
N	-0.95345	-2.191924	1.093073
N	-0.398391	1.190057	0.81648
O	-0.550169	2.250602	0.21276
O	-0.477224	1.038672	2.030066
Br	3.268193	0.0	0.0
