16

C	-0.432595	-0.016035	-1.476388
C	0.0	0.0	0.0
F	-0.088081	1.21339	-2.013978
H	1.092094	0.0	0.0
C	0.319782	-1.106922	-2.212314
H	0.026601	-2.092268	-1.845329
H	1.388368	-0.956428	-2.0382
H	0.092991	-1.036735	-3.277584
C	-1.893425	-0.162603	-1.632852
N	-3.04231	-0.322606	-1.817052
C	-0.506947	-1.174137	0.693614
N	-0.888807	-2.146654	1.230744
N	-0.529755	1.243185	0.655553
O	0.228149	2.200039	0.719453
O	-1.70077	1.210144	1.036141
Br	3.377875	0.0	0.0
