16

C	-0.434511	-0.023834	-1.476106
C	0.0	0.0	0.0
F	-0.05607	1.183385	-2.038005
H	1.092251	0.0	0.0
C	0.278488	-1.150044	-2.198355
H	0.053797	-1.084301	-3.264399
H	-0.048476	-2.120228	-1.820474
H	1.351848	-1.032605	-2.027794
C	-1.901199	-0.124458	-1.618553
N	-3.058467	-0.239334	-1.78281
C	-0.507657	-1.171203	0.696874
N	-0.890739	-2.146337	1.228689
N	-0.523105	1.248756	0.650941
O	-1.655635	1.19377	1.132884
O	0.201307	2.234767	0.609088
Br	3.367447	0.0	0.0
