16

C	-0.530151	0.024026	-1.445832
C	0.0	0.0	0.0
F	-0.132131	-1.192189	-1.989249
H	1.094136	0.0	0.0
C	-2.042516	0.09481	-1.548663
H	-2.327829	-0.015159	-2.596032
H	-2.47805	-0.725382	-0.974539
H	-2.410961	1.05002	-1.1775
C	0.085481	1.087481	-2.255242
N	0.479243	1.90304	-3.001848
C	-0.492811	-1.187071	0.683553
N	-0.919537	-2.153186	1.197598
N	-0.4031	1.21278	0.778166
O	-0.39952	1.118711	1.999997
O	-0.645666	2.234891	0.13681
Br	3.270112	0.0	0.0
