12

C	0.0	0.0	0.0
C	-0.576341	0.104575	-1.394549
Cl	1.784277	0.0	0.0
H	-1.675963	0.103721	-1.269095
H	-0.340417	-0.922347	0.468353
H	-0.230387	0.981831	-1.935216
C	-0.419168	1.154204	0.797259
N	-0.638711	2.105897	1.448994
N	-0.232729	-1.076089	-2.226901
O	-0.266407	-0.913413	-3.446226
O	0.001506	-2.140767	-1.661075
Cl	-3.474051	0.0	0.0
