12

C	0.0	0.0	0.0
C	-0.534939	0.316311	-1.378243
Cl	1.784846	0.0	0.0
H	-0.142524	1.251612	-1.77046
H	-0.346371	-0.984789	0.307532
H	-1.635534	0.332666	-1.292012
C	-0.429236	1.02873	0.950186
N	-0.537735	1.941042	1.682749
N	-0.183159	-0.742345	-2.35728
O	-0.071904	-1.89838	-1.953258
O	-0.082819	-0.387847	-3.532489
Cl	-3.38923	0.0	0.0
