12

C	0.0	0.0	0.0
C	-0.515192	-0.286403	-1.394914
Cl	1.782393	0.0	0.0
H	-0.131103	0.416491	-2.131375
H	-0.359741	-0.763965	0.687122
H	-1.61754	-0.276671	-1.333947
C	-0.41434	1.329555	0.441151
N	-0.606579	2.427416	0.81125
N	-0.095813	-1.639441	-1.83888
O	0.136748	-1.78417	-3.038847
O	-0.051516	-2.534046	-0.997305
Cl	-3.38401	0.0	0.0
