15

C	0.0	0.0	0.0
C	-0.307473	0.151017	-1.534034
Cl	1.789711	0.0	0.0
H	0.24569	-0.687494	-1.987106
H	-0.335719	0.89093	0.5317
C	-0.622679	-1.24098	0.579265
H	-1.709091	-1.063047	0.533592
H	-0.344548	-2.123011	-0.005128
H	-0.309426	-1.388133	1.61615
C	0.345077	1.377357	-2.031404
N	0.785444	2.376152	-2.465708
N	-1.689358	0.137901	-1.975334
H	-2.369043	-0.025461	-1.158291
H	-1.934283	1.061947	-2.310338
F	-3.237282	0.0	0.0
