15

C	0.0	0.0	0.0
C	-0.35455	-0.105257	-1.530437
Cl	1.793936	0.0	0.0
H	0.399614	-0.7818	-1.951042
H	-0.329222	0.959747	0.397454
C	-0.594688	-1.13391	0.794186
H	-0.300472	-2.101129	0.374161
H	-1.684068	-0.982593	0.725405
H	-0.266638	-1.091087	1.836148
C	-0.08957	1.21295	-2.144429
N	0.118651	2.264082	-2.624874
N	-1.66134	-0.568513	-1.926097
H	-2.38777	-0.223583	-1.219143
H	-1.660886	-1.57726	-1.826645
F	-3.185603	0.0	0.0
