15

C	0.0	0.0	0.0
C	-0.609291	-0.131704	-1.39014
Cl	1.790236	0.0	0.0
H	-1.703881	-0.210895	-1.095895
H	-0.317783	0.971412	0.379743
C	-0.484468	-1.095172	0.932277
H	-0.088835	-0.945007	1.940264
H	-1.577709	-1.005228	0.910441
H	-0.154814	-2.073917	0.572328
C	-0.154622	-1.346138	-2.065021
N	0.210789	-2.325117	-2.603278
N	-0.438135	1.026862	-2.26233
H	0.505137	1.38977	-2.166735
H	-1.086194	1.732891	-1.932532
F	-2.892256	0.0	0.0
