15

C	0.0	0.0	0.0
C	-0.60823	-0.118515	-1.378831
Cl	1.7928	0.0	0.0
H	-1.710584	-0.08106	-1.081792
H	-0.303744	0.982709	0.358899
C	-0.503929	-1.078706	0.935723
H	-0.168275	-2.066197	0.607234
H	-0.133191	-0.905244	1.949159
H	-1.597548	-0.982667	0.888165
C	-0.292539	-1.408762	-2.007395
N	-0.047896	-2.406834	-2.580083
N	-0.250165	1.022669	-2.218899
H	-0.857369	1.03474	-3.031016
H	0.706107	0.920049	-2.547112
F	-2.914588	0.0	0.0
