14

C	-0.552317	-0.038352	-1.417869
C	0.0	0.0	0.0
Br	-0.179631	1.694201	-2.251142
H	1.088653	0.0	0.0
H	-1.641303	-0.101829	-1.393067
H	-0.402484	0.845944	0.556923
C	0.067916	-1.156016	-2.233399
H	-0.217548	-2.121186	-1.803252
H	-0.278013	-1.125181	-3.26829
H	1.156683	-1.075404	-2.202483
N	-0.515487	-1.221138	0.690929
O	0.263203	-2.134122	0.948487
O	-1.729077	-1.242011	0.926608
Br	3.588126	0.0	0.0
