14

C	-0.554406	-0.013273	-1.416918
C	0.0	0.0	0.0
Br	-0.000444	-1.621829	-2.382954
H	1.088109	0.0	0.0
H	-0.046526	0.801945	-1.937967
H	-0.36649	0.90483	0.491587
C	-2.063137	0.131222	-1.524684
H	-2.388652	1.022375	-0.978581
H	-2.572192	-0.731718	-1.094907
H	-2.35965	0.226708	-2.57105
N	-0.537008	-1.12831	0.802522
O	0.143708	-2.142075	0.920756
O	-1.669616	-0.978253	1.281236
Br	3.559221	0.0	0.0
