14

C	-0.560202	-0.033486	-1.414471
C	0.0	0.0	0.0
Br	-0.168711	1.691954	-2.252514
H	1.088667	0.0	0.0
H	-1.649846	-0.082296	-1.382222
H	-0.398769	0.84564	0.560625
C	0.037503	-1.161536	-2.233215
H	1.127858	-1.099283	-2.20958
H	-0.262454	-2.121401	-1.800494
H	-0.314691	-1.125818	-3.265902
N	-0.513742	-1.221329	0.690644
O	0.268717	-2.127267	0.960934
O	-1.729763	-1.250261	0.913561
Br	3.586123	0.0	0.0
