16

C	-0.131759	-0.017869	-1.485319
C	0.005424	0.028017	0.054527
Cl	-1.908985	-0.261255	-1.920131
H	1.098389	0.070855	0.155923
C	0.214117	1.309228	-2.024229
N	0.446612	2.384856	-2.43524
N	0.678142	-1.001683	-2.109189
H	1.662836	-0.795039	-1.700847
H	0.405608	-1.908191	-1.733172
C	-0.429554	-1.24645	0.614539
N	-0.789677	-2.255	1.098973
C	-0.68084	1.198252	0.753428
H	-0.479738	1.159327	1.826651
H	-0.287826	2.140549	0.366968
H	-1.761394	1.174215	0.598338
H	2.765908	-0.320891	-0.767234
