16

C	-0.523608	-0.059612	-1.479277
C	0.014033	-0.043812	-0.048166
Cl	0.379012	1.243477	-2.435827
H	1.108526	-0.036345	-0.029751
C	-0.197597	-1.314732	-2.170359
N	0.012286	-2.310746	-2.756771
N	-1.936018	0.132222	-1.532014
H	-2.256284	0.201891	-2.49148
H	-2.17933	0.981672	-1.037695
C	-0.457677	-1.236332	0.640571
N	-0.813305	-2.189188	1.231564
C	-0.353828	1.212641	0.737759
H	-1.383122	1.209222	1.108677
H	0.351808	1.260413	1.572241
H	-0.169271	2.099201	0.127999
H	2.582484	0.407265	0.499802
