16

C	-0.521184	-0.017319	-1.472445
C	0.019739	-0.043158	-0.043799
Cl	0.359561	1.331744	-2.386431
H	1.123597	-0.017921	-0.02843
C	-0.178439	-1.242801	-2.207204
N	0.044935	-2.214852	-2.827865
N	-1.936576	0.156089	-1.517694
H	-2.258294	0.256413	-2.474055
H	-2.191419	0.983683	-0.993039
C	-0.428809	-1.264977	0.605328
N	-0.757245	-2.243829	1.169448
C	-0.361833	1.180407	0.785659
H	-0.188232	2.089834	0.207115
H	0.341801	1.208268	1.622723
H	-1.390713	1.153063	1.157083
H	2.577656	0.407922	0.471979
