16

C	-0.454743	0.039533	-1.455079
C	0.006154	-0.021285	-0.018863
Cl	-2.375589	0.333013	-1.499709
H	1.102837	-0.020312	-0.021915
C	0.042724	1.235652	-2.14169
N	0.412583	2.182549	-2.7305
N	-0.114462	-1.1089	-2.184183
H	-0.488038	-1.099393	-3.12302
H	-0.376545	-1.955327	-1.695064
C	-0.4511	-1.263937	0.571162
N	-0.783448	-2.298461	1.024529
C	-0.345416	1.191349	0.828529
H	0.007367	2.092635	0.321598
H	-1.414283	1.27311	1.033072
H	0.220254	1.11447	1.759659
H	2.550413	0.27005	0.2562
