18

C	0.0	0.0	0.0
C	-0.500794	-0.117505	-1.438046
F	1.37549	0.0	0.0
H	-1.580725	-0.269383	-1.32142
N	-0.603284	1.047079	0.677816
H	-0.375379	0.973723	1.663019
H	-1.646938	0.81944	0.517494
N	-0.268659	-1.351767	0.769345
O	-0.758064	-2.320722	0.197407
O	0.051606	-1.33906	1.959404
N	0.207966	-1.190514	-2.160205
H	0.017897	-1.054947	-3.148036
H	-0.222604	-2.067566	-1.894558
C	-0.227181	1.198576	-2.151738
H	0.849217	1.385774	-2.193807
H	-0.716475	2.022314	-1.637472
H	-0.613433	1.146572	-3.176412
F	-2.861877	0.0	0.0
