18

C	0.0	0.0	0.0
C	-0.490128	-0.239885	-1.439864
F	1.358332	0.0	0.0
H	-1.494715	-0.646166	-1.325156
N	-0.586893	1.079147	0.62292
H	-1.634469	0.838483	0.474525
H	-0.359795	1.050545	1.611271
N	-0.249911	-1.327992	0.851174
O	-0.181601	-1.196791	2.071817
O	-0.426754	-2.404671	0.287436
N	0.3551	-1.151528	-2.214684
H	1.317215	-0.833915	-2.152165
H	0.315922	-2.057756	-1.765222
C	-0.599436	1.092708	-2.167237
H	0.343485	1.651214	-2.130218
H	-0.847828	0.889495	-3.212038
H	-1.3857	1.691544	-1.710173
F	-2.802452	0.0	0.0
