18

C	0.0	0.0	0.0
C	-0.293337	-0.120163	-1.539289
F	1.381354	0.0	0.0
H	0.475513	0.5709	-1.905495
N	-0.62103	1.101251	0.572382
H	-1.651144	0.876098	0.444801
H	-0.392167	1.142907	1.558589
N	-0.293822	-1.271562	0.849411
O	-1.044107	-2.143554	0.430629
O	0.227341	-1.266867	1.968501
N	-1.558867	0.332435	-2.071305
H	-1.583314	1.341768	-1.977614
H	-2.302107	0.016554	-1.412359
C	0.0367	-1.498084	-2.110236
H	0.943381	-1.927918	-1.675483
H	-0.796364	-2.180716	-1.947099
H	0.180666	-1.38345	-3.187841
F	-2.985369	0.0	0.0
