18

C	0.0	0.0	0.0
C	-0.192187	0.725502	-1.376843
F	1.390024	0.0	0.0
H	0.514844	0.218387	-2.044201
N	-0.597323	0.521582	1.134489
H	-0.494404	1.528769	1.035813
H	-1.630988	0.308882	0.913317
N	-0.354996	-1.4829	-0.121741
O	-0.655963	-2.09942	0.892232
O	-0.214081	-1.987264	-1.237178
N	0.245919	2.111107	-1.099486
H	1.257804	2.143584	-1.077671
H	-0.068974	2.701318	-1.860183
C	-1.536349	0.764188	-2.070047
H	-2.292081	1.222261	-1.439577
H	-1.896387	-0.242699	-2.265916
H	-1.397174	1.293975	-3.024995
F	-2.848193	0.0	0.0
