18

C	0.0	0.0	0.0
C	-0.448264	-0.170696	-1.506282
F	1.361465	0.0	0.0
H	0.496202	-0.097075	-2.060915
N	-0.55547	1.046101	0.758372
H	-0.41414	1.905042	0.237687
H	-1.580627	0.812484	0.704871
N	-0.272551	-1.298681	0.82329
O	-1.096894	-1.287551	1.723785
O	0.432666	-2.262883	0.523792
N	-1.360341	0.860279	-1.980202
H	-2.1883	0.740903	-1.366422
H	-0.964609	1.780982	-1.823583
C	-1.110445	-1.510904	-1.816669
H	-1.400995	-1.494735	-2.86926
H	-0.453904	-2.359768	-1.635389
H	-2.010728	-1.572322	-1.201414
F	-2.895975	0.0	0.0
