18

C	0.0	0.0	0.0
C	-0.185497	0.394494	-1.507634
F	1.408541	0.0	0.0
H	0.559262	-0.211814	-2.034121
N	-0.608565	0.756831	0.982555
H	-1.642913	0.494315	0.810524
H	-0.513422	1.716144	0.654857
N	-0.333878	-1.47774	0.209747
O	-0.107413	-2.222271	-0.744673
O	-0.706676	-1.848746	1.312787
N	0.186909	1.824906	-1.53407
H	-0.131328	2.223406	-2.409004
H	1.196784	1.906522	-1.502006
C	-1.519852	0.206627	-2.199432
H	-1.770142	-0.851473	-2.241723
H	-1.417769	0.585959	-3.228701
H	-2.321984	0.676446	-1.636146
F	-2.879115	0.0	0.0
