15

C	-0.477454	-0.02563	-1.422921
C	0.0	0.0	0.0
Cl	-2.169756	-0.494731	-1.632424
H	1.087655	0.0	0.0
H	0.134487	-0.756697	-1.95472
N	-0.194453	1.298745	-2.116093
O	-0.920035	1.637973	-3.042102
O	0.823022	1.868093	-1.74035
N	-0.298336	-1.286954	0.627389
O	-0.775754	-1.34815	1.760472
O	0.046555	-2.260256	-0.055507
N	-0.488017	1.122571	0.768946
O	-1.267693	1.922422	0.22332
O	-0.00564	1.259824	1.898918
H	2.340365	0.0	0.0
