15

C	-0.446165	-0.023932	-1.42726
C	0.0	0.0	0.0
Cl	0.392104	-1.243246	-2.370415
H	1.089497	0.0	0.0
H	-0.213231	0.949419	-1.856015
N	-1.963589	-0.159716	-1.572142
O	-2.424789	-0.811853	-2.494885
O	-2.604764	0.496638	-0.759006
N	-0.425767	-1.158528	0.759701
O	0.075408	-1.296602	1.878883
O	-1.164845	-1.985732	0.19934
N	-0.329115	1.267511	0.648186
O	-0.756367	1.289554	1.801229
O	-0.052371	2.2691	-0.025505
H	2.344766	0.0	0.0
