15

C	-0.619947	-0.009219	-1.371154
C	0.0	0.0	0.0
Cl	0.138168	1.232221	-2.395618
H	1.08616	0.0	0.0
H	-1.693477	0.152408	-1.377387
N	-0.378121	-1.32446	-2.067593
O	0.666622	-1.914048	-1.82537
O	-1.237401	-1.661294	-2.877084
N	-0.415669	-1.149669	0.778731
O	-1.286203	-1.898607	0.284725
O	0.14989	-1.332415	1.863972
N	-0.36932	1.202268	0.731238
O	-1.211492	1.970362	0.223841
O	0.222987	1.39937	1.800351
H	2.320719	0.0	0.0
