15

C	-0.406305	-0.006784	-1.445361
C	0.0	0.0	0.0
Cl	0.103827	-1.432798	-2.348148
H	1.089696	0.0	0.0
H	0.046104	0.859657	-1.923313
N	-1.895315	0.14567	-1.660926
O	-2.637217	-0.415656	-0.863294
O	-2.239797	0.788045	-2.646792
N	-0.430489	-1.140181	0.818404
O	0.071295	-2.219006	0.493504
O	-1.20193	-0.967607	1.761165
N	-0.359589	1.262878	0.611505
O	-0.880888	2.134178	-0.110785
O	0.034464	1.444932	1.766924
H	2.371423	0.0	0.0
