15

C	-0.641671	0.002906	-1.36077
C	0.0	0.0	0.0
Cl	-0.106798	1.418076	-2.28843
H	1.086175	0.0	0.0
H	-1.726946	0.007168	-1.317448
N	-0.255511	-1.228484	-2.145391
O	0.755426	-1.83128	-1.81552
O	-0.99385	-1.495569	-3.088591
N	-0.476006	-1.088649	0.78084
O	-0.014017	-1.174478	1.93809
O	-1.242328	-1.92467	0.244739
N	-0.410246	1.258771	0.71202
O	-1.617265	1.519394	0.669035
O	0.442751	1.928786	1.279518
H	2.407922	0.0	0.0
