15

C	-0.512776	-0.164426	-1.399984
C	0.0	0.0	0.0
Cl	-2.225144	-0.605876	-1.503836
H	1.105497	0.0	0.0
H	0.060873	-0.966048	-1.866858
N	-0.221431	1.070009	-2.243507
O	0.894833	1.538808	-2.069969
O	-1.047166	1.439938	-3.062866
N	-0.286982	-1.217713	0.753303
O	0.075692	-2.251428	0.174437
O	-0.787881	-1.173188	1.876458
N	-0.445108	1.199826	0.658138
O	0.019705	1.409049	1.786093
O	-1.140111	2.00604	0.01149
H	2.304072	0.0	0.0
