15

C	-0.421644	0.087399	-1.437766
C	0.0	0.0	0.0
Cl	0.122181	-1.239613	-2.464773
H	1.097676	0.0	0.0
H	-0.006501	1.003452	-1.851609
N	-1.919044	0.213309	-1.621039
O	-2.294728	0.881225	-2.578055
O	-2.635569	-0.385695	-0.829507
N	-0.418672	-1.191831	0.744241
O	0.004405	-2.254478	0.282838
O	-1.089978	-1.079728	1.767822
N	-0.35142	1.224344	0.691808
O	-0.89436	2.133308	0.034622
O	0.065148	1.343122	1.848118
H	2.357075	0.0	0.0
