15

C	-0.450989	0.164295	-1.414342
C	0.0	0.0	0.0
Cl	0.411387	-0.881895	-2.529632
H	1.105128	0.0	0.0
H	-0.249992	1.194822	-1.701958
N	-1.966024	0.009392	-1.570261
O	-2.419609	-0.504671	-2.580868
O	-2.616309	0.516015	-0.663511
N	-0.405804	-1.253131	0.596882
O	-1.09931	-2.026773	-0.086601
O	0.078154	-1.522749	1.700458
N	-0.326454	1.166854	0.810731
O	-0.072792	2.251657	0.267384
O	-0.729114	1.036756	1.965182
H	2.31974	0.0	0.0
