13

C	0.0	0.0	0.0
C	-0.50494	-0.002612	-1.44977
Cl	1.785699	0.0	0.0
H	0.352492	0.099937	-2.132007
H	-0.327307	0.921903	0.46476
C	-0.451782	-1.140826	0.790545
N	-0.556054	-2.086627	1.480853
N	-1.306972	1.245484	-1.742301
O	-2.13108	1.176272	-2.641356
O	-0.944676	2.272237	-1.181334
C	-1.251648	-1.190386	-1.839122
N	-1.675177	-2.190754	-2.285913
F	-2.315014	0.0	0.0
