13

C	0.0	0.0	0.0
C	-0.504407	-0.169024	-1.441712
Cl	1.778499	0.0	0.0
H	0.355677	-0.154002	-2.128234
H	-0.330934	0.967311	0.357515
C	-0.449712	-1.045753	0.914076
N	-0.554176	-1.900946	1.713884
N	-1.293334	1.042831	-1.881535
O	-2.123294	0.876103	-2.762292
O	-0.916886	2.125507	-1.449305
C	-1.260042	-1.387016	-1.690665
N	-1.684681	-2.439551	-1.995547
F	-2.311206	0.0	0.0
