17

C	0.0	0.0	0.0
C	-0.50539	-0.10433	-1.441134
F	1.390266	0.0	0.0
H	-1.605795	-0.162091	-1.329119
C	-0.336614	1.363633	0.521277
N	-0.482229	2.445454	0.957486
N	-0.535378	-1.062947	0.761872
H	-0.342072	-0.894565	1.745492
H	-1.574928	-0.940712	0.624985
N	-0.031081	-1.407549	-1.996129
O	-0.789534	-2.371573	-1.924675
O	1.088959	-1.434574	-2.514435
C	-0.049626	1.034195	-2.327743
H	1.026336	1.187606	-2.258925
H	-0.305307	0.824538	-3.368355
H	-0.570488	1.943758	-2.026199
H	-2.937731	0.0	0.0
