17

C	0.0	0.0	0.0
C	-0.500689	-0.129565	-1.441101
F	1.388338	0.0	0.0
H	-1.60254	-0.129086	-1.338256
C	-0.334802	1.376169	0.486536
N	-0.48707	2.479305	0.863351
N	-0.544818	-1.049503	0.772964
H	-0.349444	-0.875971	1.75509
H	-1.585929	-0.917097	0.634258
N	-0.098626	-1.477979	-1.946299
O	1.052759	-1.60868	-2.37044
O	-0.942361	-2.370856	-1.934117
C	0.035741	0.939417	-2.36859
H	-0.281115	0.737654	-3.394374
H	1.124407	0.973837	-2.33979
H	-0.368898	1.908447	-2.07161
H	-2.937826	0.0	0.0
