15

C	0.040331	0.021538	0.019768
C	-0.605111	-0.205778	-1.335024
Cl	1.832705	-0.234537	-0.136274
H	-1.695324	-0.050252	-1.25335
H	-0.425739	-1.229715	-1.656898
C	-0.148833	1.370548	0.557272
N	-0.290076	2.402768	1.099798
C	-0.519175	-0.999041	1.004922
H	-0.273193	-2.005248	0.660363
H	-1.607978	-0.895905	1.030124
H	-0.08635	-0.840867	1.993745
N	-0.059114	0.666268	-2.404449
O	0.108682	1.856126	-2.147674
O	0.158143	0.140716	-3.495539
Cl	-3.754375	-0.703673	-0.455714
