14
Coordinates from ORCA-job run
  C   -0.54808400424721     -0.26269247949027      0.37306259668895
  C   0.67921562989959      0.03654376440080     -0.13215352018947
  C   -1.76478224627562      0.13973974815634     -0.42376764758311
  H   -2.65917937984501     -0.33523768143125     -0.02273000161633
  H   -1.92257972214280      1.22428887928344     -0.39349702930448
  H   -1.65199848205208     -0.16184523583621     -1.46958405330024
  C   -0.76344240774579     -0.87409492295761      1.63674907295168
  N   -1.09032048760173     -1.35546914617393      2.66215064665053
  N   0.90916030515430      0.65527811834042     -1.32871289208010
  H   1.85857998240984      0.98072344991355     -1.43958096092583
  H   0.20461929329377      1.31010961911151     -1.62901443425265
  N   1.92880885259225     -0.35735355580307      0.55500462776490
  O   2.95960715369961      0.19835589631914      0.16885840944639
  O   1.86039551286089     -1.19934645383286      1.44221518574975
