14
Coordinates from ORCA-job run
  C   -0.56401943745689     -0.33411870677194      0.28001886743308
  C   0.68543440098473      0.05126892895894     -0.09682302821519
  C   -1.74427622744678      0.33191938428699     -0.38241255456789
  H   -1.67330222254594      0.23053505760843     -1.47063503555781
  H   -1.78489897960605      1.40437413836865     -0.14659695508175
  H   -2.68241442322569     -0.11393424918371     -0.04920483842648
  C   -0.83061983508333     -1.34166535432606      1.24297413696780
  N   -1.19782438230374     -2.14571852710085      2.02359548812986
  N   0.96569176520834      0.98013920826316     -1.05936919491270
  H   0.26411771254341      1.69208569726209     -1.19214205641124
  H   1.90870816572806      1.33722310941057     -1.01245751508073
  N   1.90388692479555     -0.55370084964916      0.47644228559287
  O   2.95796508990288      0.05421177310464      0.27435648021776
  O   1.79055144850545     -1.59361961023175      1.11425391991241
