14
Coordinates from ORCA-job run
  C   -0.61634921664167     -0.02408107650974      0.32152818303933
  C   0.65390272093479      0.30163628570048     -0.07833935046057
  C   -1.56309408005995     -1.04088790403012     -0.26827985700835
  H   -2.51256593215262     -0.99637241582903      0.26663560356441
  H   -1.73578294089737     -0.86117723355728     -1.33012454155240
  H   -1.16030618946015     -2.05087066564260     -0.18014813127302
  C   -1.07218026730060      0.75256737845862      1.42495675629669
  N   -1.40444783997281      1.40116057992218      2.35283694820730
  N   1.41791706812658      1.32374529356102      0.39683115358683
  H   1.13439957310150      1.72892956729694      1.27560077859448
  H   2.40816170767555      1.24436897453784      0.23036833296709
  N   1.30880946082680     -0.40985591015836     -1.19197165962395
  O   2.43810482277777     -0.02842111855201     -1.50168737048772
  O   0.70343111304218     -1.34074175519796     -1.71920684585014
