14
Coordinates from ORCA-job run
  C   -0.54961610245904     -0.01554521355298      0.40342715594260
  C   0.68281098947980      0.30558835451937     -0.07731987660487
  C   -1.73061502734409     -0.09054231357147     -0.53261995256903
  H   -1.77644653900851     -1.06739341065490     -1.02740544876002
  H   -2.65912330632733      0.04223805029818      0.02249902621637
  H   -1.68655820246967      0.68981693754046     -1.29567588597168
  C   -0.76933609288051     -0.49140815097041      1.72829088715343
  N   -1.16761116587912     -1.10903592683629      2.65229939389060
  N   1.05529269232920      0.48466850435205     -1.39026134374788
  H   1.88308937574208     -0.03919801934308     -1.63790602934990
  H   0.30160060390191      0.36882147647859     -2.05000738499319
  N   1.84673111385403      0.33156251108614      0.83809782057105
  O   2.94892319598726      0.13696428740579      0.32719717541293
  O   1.62085846507399      0.45446291324856      2.03838446280959
