14
Coordinates from ORCA-job run
  C   -0.59591995548678     -0.05086685887708      0.35450433192084
  C   0.66968701661371      0.27762104944104     -0.03948996375548
  C   -1.51267131124777     -1.09418850906955     -0.23419331171717
  H   -2.52944627137224     -0.91157845467628      0.11530271867410
  H   -1.21383606610805     -2.09902588134446      0.07005305517138
  H   -1.50871223538490     -1.06856987742316     -1.32386253507686
  C   -1.06474317121709      0.69938803558687      1.47096060892311
  N   -1.41504201879164      1.35043899283722      2.39011670355602
  N   1.52510026051429      1.16048055370238      0.55281296147863
  H   1.11328413374985      1.78588487637365      1.22935926421570
  H   2.19700963282495      1.57768260820359     -0.07341866709520
  N   1.28348240989893     -0.38006017908618     -1.20639747441784
  O   0.89385464569294     -1.50444669521320     -1.51044285234354
  O   2.15495293031378      0.25924033954515     -1.79730483953369
