14
Coordinates from ORCA-job run
  C   -0.61927441807726     -0.03770478971406      0.31257680837304
  C   0.67409929619791      0.27125794084122      0.00348972871783
  C   -1.50269966108019     -1.08258729824947     -0.32220700636853
  H   -1.25379963212668     -2.08159374037794      0.04066491306664
  H   -2.54215212405355     -0.86895507439619     -0.07126248002168
  H   -1.40144643283092     -1.09462091276188     -1.40721083570988
  C   -1.15857935093858      0.73580520977211      1.38037795347391
  N   -1.56906624174981      1.40257041091906      2.26249747357502
  N   1.49611635161594      1.15735897399929      0.63758280116657
  H   1.04391818319993      1.80405713971406      1.26682732641446
  H   2.21264787770481      1.55606080140152      0.04971486858913
  N   1.36130666990826     -0.41772245861607     -1.10252497649860
  O   2.26042169191752      0.21135223916169     -1.66226045811597
  O   1.00050779031263     -1.55627844169334     -1.38926611666195
