14
Coordinates from ORCA-job run
  C   -0.62528144430674      0.00022838280765      0.31360550238664
  C   0.65986375493921      0.29979146350707      0.00373614501878
  C   -1.45999056198620     -1.04397938763536     -0.37693350280701
  H   -1.55378438234486     -1.93838671386513      0.24446564819792
  H   -1.02531691893030     -1.32859256816880     -1.33514692991227
  H   -2.46310176888596     -0.65679334643909     -0.56659433624915
  C   -1.16939083633338      0.69057971551250      1.43501046801842
  N   -1.58737796935465      1.28541531782224      2.36274343424742
  N   1.54889439925755      1.09044883267063      0.67885347202123
  H   2.21052982592440      1.59717092236304      0.10925900874817
  H   1.14705378705348      1.64302404417379      1.42348121448972
  N   1.28153396535672     -0.38021308300078     -1.14392752990777
  O   2.04982096999218     -1.30292694184631     -0.88862364178257
  O   0.98454717961855      0.04423336209853     -2.25992895246952
