14
Coordinates from ORCA-job run
  C   -0.60372387506670     -0.06022492682628      0.33832825667547
  C   0.64368938902263      0.33230246200048     -0.05522361823449
  C   -1.56762818660048     -0.96534669221307     -0.38777183151954
  H   -1.06846348086571     -1.84211965127543     -0.80020382309080
  H   -2.33654724524178     -1.29782121011041      0.31051508711643
  H   -2.05010997366886     -0.44383214761046     -1.21645384891915
  C   -1.01303495828867      0.48732690563828      1.58816951297903
  N   -1.30881042198837      0.95510600724262      2.62972754752866
  N   1.47277944339787      1.22127226175376      0.56496653266114
  H   1.23418099995901      1.45395052110787      1.51762845652412
  H   2.45472584278551      1.07212463973791      0.38809158056688
  N   1.22643591880525     -0.17640648165222     -1.30942559494188
  O   2.45673339399380     -0.20085851078153     -1.36884397324991
  O   0.46177315375651     -0.53647317701149     -2.20050428409596
