14
Coordinates from ORCA-job run
  C   -0.59556222381167     -0.03797733292626      0.35240917606846
  C   0.67912992352177      0.26038924049508     -0.03425812452258
  C   -1.53809225831234     -1.05141139081087     -0.24709530536282
  H   -1.52101994165884     -1.02767279388797     -1.33657839408098
  H   -1.27450159564915     -2.06505427852311      0.06081077110764
  H   -2.55264515863122     -0.83557475886560      0.08968819736864
  C   -1.05349374078333      0.71660084528767      1.47075126261087
  N   -1.40058091525331      1.36680986193015      2.39167681864891
  N   1.55608852065676      1.11684275734167      0.56646773854267
  H   2.23464798972995      1.52490212197199     -0.05892030520893
  H   1.15687237333748      1.74982535739811      1.24389170582575
  N   1.27851733541068     -0.40730809348362     -1.20229267852295
  O   2.15598684145525      0.21945737903804     -1.79833997818178
  O   0.87465284998797     -1.52882891496528     -1.49921088429289
