14
Coordinates from ORCA-job run
  C   -0.61918750830646     -0.02859375492992      0.31474158896401
  C   0.67658095469838      0.26255603637618     -0.00217689292071
  C   -1.52135695234220     -1.06188897602712     -0.31284780632510
  H   -1.27993281625295     -2.06425404085360      0.04597256189335
  H   -2.55550083324636     -0.83695320974826     -0.04964925079819
  H   -1.43156314230522     -1.07331273140743     -1.39881496783156
  C   -1.13942663434901      0.75125431524109      1.38745080678260
  N   -1.53071765660630      1.42415702483149      2.27350032684844
  N   1.51468349667706      1.13597655532020      0.62826036415395
  H   1.07409190684075      1.78804283048218      1.26035891948418
  H   2.23416245461947      1.52530881142667      0.03777481746277
  N   1.34889924356223     -0.43526779519308     -1.11215484321707
  O   0.96183089918572     -1.56286890755765     -1.40767989877958
  O   2.26543658782489      0.17484384203926     -1.66473572571709
