14
Coordinates from ORCA-job run
  C   -0.55216412816856     -0.23134188626635      0.38807564762661
  C   0.68084270383249      0.09738306387028     -0.08412146150538
  C   -1.75931375324306      0.36221333077047     -0.29546829342433
  H   -1.92608931752095     -0.09169595061752     -1.27949610671259
  H   -2.65619249579103      0.19729586208362      0.30024787708268
  H   -1.62799291724680      1.43993740221844     -0.43213513161601
  C   -0.78158785907179     -1.15326814074510      1.44384336266356
  N   -1.11981908585156     -1.90790144116132      2.28406076214131
  N   0.92429592252198      0.95067922885617     -1.12304906922992
  H   0.22031863064500      0.98177317711711     -1.84325613037166
  H   1.87379805256078      0.91417566393177     -1.46430127978346
  N   1.92251852470322     -0.39901013144509      0.54878881172640
  O   2.95627859940788     -0.27470983435390     -0.11170716716290
  O   1.84510712322241     -0.88753034425855      1.66951817856570
