14
Coordinates from ORCA-job run
  C   -0.62832352425585     -0.07013433076813      0.36570579494293
  C   0.64768015219394      0.26156675423536      0.03870660063049
  C   -1.45217969695093     -1.11625620362144     -0.32588975595511
  H   -2.44970912661144     -0.73841706314911     -0.54755731623644
  H   -0.94410755547328     -1.42282989249745     -1.23072173702697
  H   -1.54797440628312     -2.00302918901263      0.29871344179674
  C   -1.17167001801124      0.68335378299724      1.42963081686257
  N   -1.54537755913164      1.42877290357421      2.26580140807491
  N   1.49575172511617      1.18345206562567      0.62262178908567
  H   1.07767688800403      1.78989691302594      1.28753517805398
  H   2.11361268792493      1.66986367115439     -0.02822639504228
  N   1.29768541302305     -0.39705405100557     -1.09905582585597
  O   1.37257821609146     -1.61854527193901     -1.10520974965462
  O   1.73535680436391      0.34935991138054     -1.97305424967591
