14
Coordinates from ORCA-job run
  C   -0.61619231591400     -0.04464032161374      0.31866252609281
  C   0.64974088824582      0.32095916327613     -0.03962982853673
  C   -1.56360807617785     -0.96132547626791     -0.41408274222408
  H   -1.05823056327899     -1.85195767963244     -0.78718250457501
  H   -2.35765569616048     -1.26932779813830      0.26719027015425
  H   -2.01490162060976     -0.45843534828855     -1.27165309959266
  C   -1.06717934482222      0.55297267253184      1.53093443838438
  N   -1.39752295407203      1.06537722617344      2.54052566136221
  N   1.46682660494780      1.21965133492814      0.58303752465527
  H   2.45228946716383      1.05281393251260      0.44558895478489
  H   1.19840043303474      1.48112908112785      1.52021575461025
  N   1.27128765634096     -0.23086675409794     -1.25674749804980
  O   2.50253158547255     -0.26899641350727     -1.27179131536389
  O   0.53521393582962     -0.60735361900383     -2.16506814170190
