14
Coordinates from ORCA-job run
  C   -0.56396597779053     -0.36029969000875      0.24874068564786
  C   0.68359131202037      0.05673944529324     -0.09992162083384
  C   -1.74751856318399      0.32853839613360     -0.38427397746163
  H   -1.61815886795740      0.38493791104883     -1.46963375641628
  H   -2.66653031920722     -0.21701352227204     -0.17331238773464
  H   -1.87198319403432      1.34823442949549      0.00000000206557
  C   -0.82903441465870     -1.35431183056947      1.22845087556514
  N   -1.19492020157369     -2.13531881801005      2.03203238962527
  N   0.95803886791195      1.04389910294161     -1.00359172663569
  H   1.91765132317107      1.35702183135657     -0.98352082015408
  H   0.27626827578987      1.78271212165921     -1.07100484919410
  N   1.90450205517444     -0.58814200457480      0.43001461120463
  O   2.96009978744916      0.02694914289523      0.26343034147733
  O   1.79095991688900     -1.67494651538868      0.98359023284444
