14
Coordinates from ORCA-job run
  C   -0.53664602009307     -0.43474299585338      0.17646584767259
  C   0.67859660691880      0.13352557029096     -0.05030256225053
  C   -1.75036772334588      0.19813650253202     -0.45854720544092
  H   -2.01341186452010      1.14230833681795      0.03283263846545
  H   -1.56392624368532      0.40204133668115     -1.51733489359940
  H   -2.61134935169792     -0.46461401385133     -0.38177608351554
  C   -0.74846845657459     -1.55102991813444      1.02870964599244
  N   -1.07400312599091     -2.45023866619454      1.71819934336604
  N   0.90108031677543      1.22974800293318     -0.83508426839021
  H   0.15246392090420      1.90291831628113     -0.87478980417942
  H   1.82084907227694      1.63038908397818     -0.72113441404860
  N   1.92826639644148     -0.44168877234923      0.49348816569800
  O   2.91916919363375      0.29170764278095      0.46968050616792
  O   1.89874727895719     -1.58946042591259      0.92059308406218
