14
Coordinates from ORCA-job run
  C   -0.65220880156757      0.02152945236636      0.23878097888135
  C   0.69510245192904      0.18897198248488      0.09319514655757
  C   -1.56922440688404     -0.87998044103981     -0.54979398286194
  H   -1.35544057334207     -0.84169917616102     -1.61787818784159
  H   -2.60088964697034     -0.56554100883834     -0.38824364717365
  H   -1.46703582520227     -1.91990585613173     -0.23362945862475
  C   -1.22077585845104      0.80180214373295      1.28647735324279
  N   -1.65265634920283      1.47084384302863      2.15653702432178
  N   1.53152872080162      0.93980807832303      0.86726898382526
  H   2.35442554931455      1.27533753758268      0.38979042927147
  H   1.08412692882421      1.60620320571094      1.47919819147560
  N   1.42588953654323     -0.52318068444252     -0.97018891824085
  O   0.96288874994070     -1.58338531829873     -1.38250242599573
  O   2.46326952426681      0.00819624168269     -1.36901148683731
