14
Coordinates from ORCA-job run
  C   -0.62057818261721     -0.02825066224304      0.31138187988963
  C   0.67273461024441      0.27462908778926     -0.00473493040067
  C   -1.49448194051904     -1.10543242867445     -0.28166810845491
  H   -1.22775536040635     -2.08880724035722      0.11031319607813
  H   -1.40244286919534     -1.15050090414515     -1.36687572330368
  H   -2.53484633988478     -0.89874919782156     -0.02780441573657
  C   -1.16990674410544      0.78780036827461      1.34163785356202
  N   -1.59026739873853      1.49108367661420      2.19006658156513
  N   1.48755702419064      1.18957376995169      0.59647490150734
  H   2.20344226137741      1.57139004301909     -0.00312429733351
  H   1.02943124013477      1.85593064945873      1.20049285611431
  N   1.36778671200921     -0.45311069559062     -1.08095326590945
  O   2.27178410694952      0.15558055096270     -1.65508087298010
  O   1.00754288056074     -1.60013701723822     -1.33212565459769
