14
Coordinates from ORCA-job run
  C   -0.55416391565931     -0.18800611102517      0.41032481366021
  C   0.68294788029846      0.06800316683803     -0.09704571233314
  C   -1.73384679711197      0.54420397094782     -0.17749369688744
  H   -1.82888628347273      0.36893511831588     -1.25262379729337
  H   -2.66787075662020      0.22146056220287      0.28661063258893
  H   -1.63300952405424      1.62066146638860     -0.01698967727938
  C   -0.79803545354280     -1.20634411270720      1.36749274364951
  N   -1.12566039173824     -2.07714316162496      2.09327856085140
  N   0.96939554525636      0.97159252640274     -1.09046831137588
  H   0.22358824829342      1.12421863496520     -1.75156127994898
  H   1.84963716733121      0.75801267117960     -1.54996180013609
  N   1.89636581153017     -0.57327399143073      0.46228347075082
  O   2.86575296762333     -0.64497608308458     -0.29843843139349
  O   1.85378550186654     -0.98934465736811      1.61359248514691
