14
Coordinates from ORCA-job run
  C   -0.61512712648756     -0.02980306846579      0.32125212751731
  C   0.67181026140867      0.27573786105374     -0.01787253558948
  C   -1.50124210412807     -1.10433441835295     -0.25793294820239
  H   -1.22368699565405     -2.09038014060075      0.11903738669553
  H   -2.53521383787724     -0.90147973575302      0.02310778761357
  H   -1.43564326559334     -1.14074233403087     -1.34528341030450
  C   -1.14419274024667      0.78186635548608      1.36575633990333
  N   -1.54642794591665      1.48100983494814      2.22634180165058
  N   1.49467486042462      1.19161700987462      0.57137393120136
  H   1.04351295399941      1.86143025507773      1.17687496678298
  H   2.20401087135706      1.56943711862927     -0.03873149247774
  N   1.35156390016845     -0.45158383743992     -1.10425287939718
  O   2.26192008323318      0.14919982775648     -1.67706407025707
  O   0.97404108531221     -1.59097472818277     -1.36460700513631
