14
Coordinates from ORCA-job run
  C   -0.62783334296548     -0.03198666164373      0.29582275259142
  C   0.66987456731538      0.28041003528446      0.00713088516060
  C   -1.48246085172954     -1.11611380012585     -0.31238528303087
  H   -1.21509740244272     -2.09773682197980      0.08319410895981
  H   -2.52859624972531     -0.91778148870055     -0.07667126379331
  H   -1.37085481348937     -1.15938495975265     -1.39569756698510
  C   -1.20286625315580      0.77906198086801      1.31626748473195
  N   -1.64312146652966      1.47952909821262      2.15695647843569
  N   1.46248391419646      1.20381603627412      0.62485356291888
  H   2.19414564052579      1.58374718372815      0.04336157937639
  H   0.98462760109912      1.87143220247994      1.21176580650436
  N   1.39702491467489     -0.44591456089017     -1.04858182673983
  O   2.32526770150629      0.15896245919184     -1.58718107038223
  O   1.03840604071996     -1.58904070294638     -1.31883564774776
