14
Coordinates from ORCA-job run
  C   -0.60002253301629     -0.07206256283538      0.34794285476285
  C   0.59737476976675      0.38516330215231     -0.13839488685267
  C   -1.40830356789567     -1.26726442880419     -0.09631952069776
  H   -2.31669067753487     -1.32991279666566      0.50342151204131
  H   -1.68355486542243     -1.19772448786365     -1.14855192498935
  H   -0.84542214057564     -2.19517393170637      0.02605162365171
  C   -1.11888267809446      0.72052797069860      1.40943763475033
  N   -1.50417667977544      1.40068598854898      2.29283613175791
  N   1.24004550560376      1.52625979175764      0.22669508843053
  H   0.94703016394978      1.96147548376382      1.08713169545917
  H   2.21909214527515      1.57421190716295     -0.00404922072358
  N   1.30261458957749     -0.32516598224136     -1.22567485138564
  O   0.73405543420340     -1.26054081525291     -1.78369981969414
  O   2.43584053393847      0.07852056128522     -1.49682631651066
