14
Coordinates from ORCA-job run
  C   -0.62072166455508     -0.02487713188186      0.31034388938048
  C   0.68150581694482      0.25140391652561      0.00626367846676
  C   -1.53669232671988     -1.03120576185152     -0.34028725749499
  H   -1.30684362237046     -2.04540540847505     -0.00830449985016
  H   -2.56733913972082     -0.80058010842308     -0.06884173723004
  H   -1.44960350571615     -1.01619506757871     -1.42649874238336
  C   -1.13518353698512      0.74381867215930      1.39413009476114
  N   -1.52401043349691      1.40724641370927      2.28847663139554
  N   1.52748278384019      1.10173889637105      0.65762442173489
  H   2.26047033230373      1.48613014035965      0.08087544509991
  H   1.09181641738545      1.75182777406441      1.29497280646402
  N   1.35086297134762     -0.43767280917411     -1.11094017363841
  O   2.29030608975016      0.16079089333296     -1.63726191865869
  O   0.93694981799244     -1.54602041913793     -1.44055263804710
