14
Coordinates from ORCA-job run
  C   -0.61472309240039     -0.01477478478492      0.32338673447673
  C   0.62497045915623      0.35160921787064     -0.11661405790579
  C   -1.48667679564817     -1.13837473017673     -0.17938505802429
  H   -2.27127738048271     -1.33337351206705      0.55231053356481
  H   -0.91801435263686     -2.05531867474440     -0.33342884183008
  H   -1.95250772007828     -0.87965657408314     -1.13193503242563
  C   -1.11746099760779      0.80134121934592      1.37725692242905
  N   -1.49324131420181      1.49544439559532      2.25375741172021
  N   1.36805311063900      1.42513530276342      0.28136397907129
  H   2.36466769797621      1.30337715688517      0.18231690368139
  H   1.06982977805025      1.87228965438784      1.13579010514186
  N   1.29784692915991     -0.41608878184925     -1.17941821343750
  O   0.60069752278630     -1.04319158918650     -1.97257389134346
  O   2.52883615528811     -0.36841829995631     -1.19082749511859
