14
Coordinates from ORCA-job run
  C   -0.61975702747997     -0.02905086650282      0.31268506305841
  C   0.60167712250138      0.38330918460301     -0.14048687173600
  C   -1.41872255013091     -1.23357087785149     -0.12124622589428
  H   -1.87140145509219     -1.07427007719999     -1.10127005702782
  H   -2.21139420551344     -1.41445700901401      0.60489601734788
  H   -0.79675126929848     -2.12623721997800     -0.19072730877027
  C   -1.17269971941481      0.81487392214787      1.31802723829166
  N   -1.58784494874685      1.52715375702477      2.16190883605702
  N   1.27044362705536      1.52357488064323      0.19486909216950
  H   0.92873963100516      2.01351132004835      1.00823978559194
  H   2.27377360835799      1.46275358375353      0.11200061376523
  N   1.34033862584691     -0.41381240011888     -1.13666352111757
  O   0.69888660665333     -1.15474389025201     -1.87663369134086
  O   2.56471195425652     -0.28003430730355     -1.14559897039485
