14
Coordinates from ORCA-job run
  C   -0.54487107314922     -0.27283521126359      0.37001429886743
  C   0.66885066332576     -0.00354988064805     -0.18280182592100
  C   -1.76587808738646      0.37127270365847     -0.23923615809761
  H   -2.67430170289325     -0.08623640282675      0.15038957015742
  H   -1.80891641068814      1.44288992903121     -0.01157823683211
  H   -1.75709543665594      0.25122987532767     -1.32686560709313
  C   -0.73344568308423     -1.07217214426033      1.52879164227577
  N   -1.03751844018033     -1.69204343196570      2.48440816520953
  N   0.87729380753062      0.79140512380302     -1.27451181784327
  H   1.84508226852832      1.04240784145234     -1.41499930480286
  H   0.22535680815364      1.54959596264552     -1.39847350695991
  N   1.91513820441220     -0.62317232163573      0.31777612221713
  O   1.82141005355456     -1.59363004595146      1.05953888331193
  O   2.96889502853247     -0.10716199736661     -0.06145222448932
