14
Coordinates from ORCA-job run
  C   -0.54058587911132     -0.25108251496617      0.39158546287932
  C   0.67917640747450      0.08628507659712     -0.10828637203601
  C   -1.75890843873254      0.43535252539557     -0.17538118901904
  H   -1.98757164632088      0.07586113924709     -1.18560320286320
  H   -1.59878020674065      1.51676521360280     -0.22347292616492
  H   -2.63092509902567      0.24370425594752      0.44854697870484
  C   -0.75037973297720     -1.25887733564349      1.37009072472465
  N   -1.07374941458696     -2.07717693968226      2.15478771119570
  N   0.90093590308846      1.02327209004638     -1.07727365383020
  H   1.83297241120563      0.99638577768953     -1.46420904834087
  H   0.16636202674447      1.13981358562032     -1.75685018482390
  N   1.93219893993599     -0.49976329755603      0.41571732773950
  O   1.89095995170156     -1.08735473368418      1.48990018676433
  O   2.93829477734459     -0.34218484261418     -0.27955181493019
