16

C	0.0	0.0	0.0
C	-0.444195	0.007577	-1.477749
F	1.356142	0.0	0.0
H	0.506279	0.090441	-2.022568
H	-0.384181	0.861626	0.532272
N	-0.362558	-1.180468	0.859663
O	-0.659431	-0.939382	2.024365
O	-0.186413	-2.307503	0.400113
N	-1.182869	1.262757	-1.655572
H	-1.457427	1.311514	-2.632608
H	-2.032775	1.054392	-1.087106
C	-1.189224	-1.220651	-2.001344
H	-1.469521	-1.014176	-3.041892
H	-2.088807	-1.324608	-1.396033
H	-0.578346	-2.122902	-1.983357
F	-2.672986	0.0	0.0
