16

C	0.0	0.0	0.0
C	-0.413946	0.176359	-1.492258
F	1.365254	0.0	0.0
H	0.54967	0.357795	-1.985737
H	-0.378678	0.801503	0.6248
N	-0.364758	-1.253518	0.745034
O	-0.177376	-2.333122	0.186492
O	-0.682471	-1.120379	1.923006
N	-1.25828	1.348907	-1.698692
H	-0.806573	2.15531	-1.276591
H	-2.066934	1.094169	-1.092908
C	-1.089695	-1.012325	-2.163229
H	-0.461151	-1.902465	-2.165181
H	-1.311012	-0.715905	-3.190884
H	-2.01404	-1.196343	-1.616512
F	-2.610176	0.0	0.0
