16

C	0.0	0.0	0.0
C	-0.440238	0.070383	-1.473177
F	1.359586	0.0	0.0
H	-1.407421	-0.424434	-1.500823
H	-0.398086	0.776001	0.639636
N	-0.383162	-1.296931	0.648688
O	-0.417573	-2.303339	-0.057273
O	-0.490492	-1.29841	1.871177
N	0.496507	-0.564621	-2.405986
H	1.433063	-0.219005	-2.225269
H	0.508047	-1.553359	-2.179559
C	-0.667557	1.531706	-1.825534
H	0.206765	2.157115	-1.598253
H	-0.881926	1.621806	-2.892932
H	-1.530085	1.852496	-1.240393
F	-2.47357	0.0	0.0
