16

C	0.0	0.0	0.0
C	-0.204849	0.01879	-1.533742
F	1.365064	0.0	0.0
H	0.462304	-0.791383	-1.860368
H	-0.43471	0.823313	0.544323
N	-0.396958	-1.263486	0.682156
O	-0.227839	-2.310982	0.054367
O	-0.713154	-1.199822	1.863808
N	0.340824	1.336191	-1.938468
H	-0.012073	1.551248	-2.862102
H	1.349408	1.28378	-1.995825
C	-1.519986	-0.196611	-2.246287
H	-1.26962	-0.316706	-3.312776
H	-2.03464	-1.071472	-1.867574
H	-2.186357	0.641673	-2.08328
F	-2.421837	0.0	0.0
