16

C	0.0	0.0	0.0
C	-0.417089	0.250911	-1.480419
F	1.365333	0.0	0.0
H	0.55105	0.439992	-1.967557
H	-0.372052	0.772662	0.664082
N	-0.361676	-1.286416	0.681834
O	-0.133449	-2.33762	0.086412
O	-0.727423	-1.209957	1.849242
N	-1.26275	1.430814	-1.624232
H	-0.80623	2.211607	-1.159251
H	-2.069907	1.141115	-1.029535
C	-1.089297	-0.905187	-2.20954
H	-2.04269	-1.069826	-1.709293
H	-0.489805	-1.81441	-2.198232
H	-1.257836	-0.585963	-3.241902
F	-2.618093	0.0	0.0
