16

C	0.0	0.0	0.0
C	-0.502923	0.176434	-1.443063
F	1.356876	0.0	0.0
H	0.420957	0.371509	-2.004576
H	-0.388609	0.778353	0.64911
N	-0.346418	-1.303335	0.681754
O	-0.987059	-1.255156	1.724376
O	0.132782	-2.325929	0.189452
N	-1.32162	1.389007	-1.435003
H	-1.600201	1.566147	-2.395424
H	-2.168086	1.055082	-0.898757
C	-1.210904	-1.037152	-2.04787
H	-2.11703	-1.180531	-1.454906
H	-1.486024	-0.78813	-3.079963
H	-0.584021	-1.930363	-2.061953
F	-2.926025	0.0	0.0
