15

C	0.0	0.0	0.0
C	-0.429528	0.086078	-1.52533
Cl	1.778908	0.0	0.0
H	0.483161	0.314473	-2.081884
N	-0.49756	1.116102	0.742284
H	-0.245965	0.96773	1.715967
H	-1.527222	0.967829	0.648158
C	-0.37749	-1.298015	0.607706
N	-0.550852	-2.282088	1.228085
N	-1.384566	1.137804	-1.801575
H	-1.562524	1.138348	-2.798828
H	-2.231791	0.848837	-1.275024
C	-0.853683	-1.24911	-2.009309
N	-1.160358	-2.261664	-2.521107
F	-2.750454	0.0	0.0
