15

C	0.0	0.0	0.0
C	-0.52611	0.02697	-1.439245
Cl	1.788036	0.0	0.0
H	-1.626171	-0.000836	-1.234623
N	-0.542466	1.125536	0.690635
H	-1.575589	0.921445	0.596592
H	-0.27966	1.06955	1.669661
C	-0.359944	-1.307634	0.604287
N	-0.567248	-2.305923	1.188468
N	-0.098964	-1.14446	-2.183876
H	-0.762966	-1.33391	-2.922071
H	0.812708	-0.995214	-2.598143
C	-0.16323	1.29479	-2.087085
N	0.132454	2.236032	-2.727019
F	-2.779003	0.0	0.0
