15

C	0.0	0.0	0.0
C	-0.499961	0.033172	-1.448517
Cl	1.787872	0.0	0.0
H	-1.601503	0.031176	-1.268283
N	-0.529267	1.138953	0.679961
H	-1.562611	0.933398	0.604312
H	-0.239648	1.106487	1.652614
C	-0.375127	-1.302389	0.600817
N	-0.617996	-2.314724	1.145414
N	-0.080899	-1.152692	-2.176511
H	-0.695849	-1.296663	-2.966257
H	0.86562	-1.042198	-2.520924
C	-0.07675	1.285397	-2.093309
N	0.247572	2.214297	-2.737507
F	-2.752054	0.0	0.0
