15

C	0.0	0.0	0.0
C	-0.433169	0.132756	-1.520931
Cl	1.779105	0.0	0.0
H	0.480827	0.368716	-2.073328
N	-0.495341	1.093423	0.778152
H	-1.524812	0.948714	0.68251
H	-0.241923	0.91464	1.745997
C	-0.376566	-1.315291	0.56775
N	-0.56799	-2.330254	1.129884
N	-1.382167	1.198756	-1.764963
H	-2.226058	0.896421	-1.239795
H	-1.572569	1.214075	-2.761105
C	-0.868526	-1.183941	-2.04339
N	-1.192235	-2.171811	-2.59256
F	-2.746239	0.0	0.0
