15

C	0.0	0.0	0.0
C	-0.300688	-0.076063	-1.527497
Cl	1.863173	0.0	0.0
H	0.259614	-0.941602	-1.909817
N	-0.456458	1.145579	0.694115
H	-0.268764	1.929241	0.073174
H	-1.487394	0.955025	0.665744
C	-0.39645	-1.244655	0.665824
N	-0.523403	-2.279575	1.207143
N	0.144065	1.18406	-2.141152
H	1.132245	1.123391	-2.351114
H	-0.364614	1.317445	-3.005388
C	-1.704895	-0.289432	-1.940838
N	-2.49231	-0.465338	-2.804057
F	-2.583742	0.0	0.0
