16
Coordinates from ORCA-job run
  C   0.88786608421507      0.50513721385092     -0.29125704797931
  C   -0.59970805417332      0.42207657494751      0.12250696065842
  Br  1.49614435243336      2.33534425998995     -0.40066068367402
  H   -1.12903005554564      1.08138652919475     -0.57086635739669
  N   1.01799719506977     -0.11695706195601     -1.68238203728070
  O   1.71430235819976     -1.11909560719534     -1.78889624801390
  O   0.35493996922480      0.41722830415834     -2.55969921741647
  C   1.72337750713092     -0.22322572663296      0.65006299303479
  N   2.32315738096691     -0.80879018442492      1.47467280600888
  N   -0.70250007581402      0.96393421679744      1.46303217277644
  H   -0.60351185521034      0.23350891279186      2.15776959400063
  H   -1.59161344623303      1.42327400172893      1.60107275724010
  C   -1.11516397014310     -1.00972851165645     -0.02506665337636
  H   -2.15627065689502     -1.03812933089314      0.30327836429955
  H   -0.54106441162386     -1.69671423777543      0.60374414086489
  H   -1.08092232160227     -1.36924935292544     -1.05531154374625
