16
Coordinates from ORCA-job run
  C   0.95208964327399      0.30149731094510     -0.24052049686657
  C   -0.54120882128311      0.46951675457213      0.10953823642565
  Br  1.85467772148588      2.02143033458835     -0.26046799244305
  H   -0.94315080416443      1.15595628075759     -0.64774003619984
  N   1.02750779350268     -0.27843371538531     -1.65585275159871
  O   0.53053107009076      0.40918068896606     -2.53627630413086
  O   1.50589426216678     -1.39952410961905     -1.77579333229438
  C   1.63441985796378     -0.58053170366563      0.69018868128528
  N   2.16302068944475     -1.29593927639381      1.45863598806255
  N   -0.61155204163807      0.96726718898624      1.46967770714033
  H   -1.51204887574433      0.75366748540931      1.87743491540095
  H   -0.47292941681172      1.96885493865784      1.50308777998298
  C   -1.25183102264087     -0.87460127233104      0.01518367866804
  H   -0.83991931615630     -1.57793126237202      0.74238680679727
  H   -2.31278042287243     -0.73057414519427      0.23516810993824
  H   -1.18372031661735     -1.30983549792151     -0.98265099016788
