16
Coordinates from ORCA-job run
  C   0.91382424039331      0.42087014757364     -0.20984225730730
  C   -0.57849572246964      0.39661038604923      0.18192775368974
  Br  1.65313227355683      2.20486591004711     -0.00246695772997
  H   -1.06249378746491      1.14031910371927     -0.46531555880938
  N   1.00288350427339      0.05062032828572     -1.69318607657932
  O   1.57845152079387     -0.99304605194694     -1.97499817583715
  O   0.41979515539161      0.80200636844005     -2.46151069920755
  C   1.69932841158143     -0.51243183919243      0.57873815518910
  N   2.31296349937439     -1.27335755934659      1.23155522457453
  N   -0.65671678957276      0.69271023547429      1.59931359062284
  H   -0.61124025514954      1.68866352305804      1.77081884973076
  H   -1.52138161212824      0.33897840712310      1.98640826629120
  C   -1.16573430453465     -0.98242374516847     -0.08994859509037
  H   -1.08335536411097     -1.26788479578753     -1.13938424939057
  H   -2.22954909636149     -0.97005437953555      0.16078434667374
  H   -0.67341167357263     -1.73744603879292      0.52710638317970
