18

C	0.0	0.0	0.0
C	-0.419074	-0.383341	-1.447071
F	1.35449	0.0	0.0
H	0.51313	-0.213573	-1.990682
N	-0.191797	1.562744	0.19883
O	0.168503	2.286838	-0.723261
O	-0.555885	1.95023	1.306399
N	-0.586231	-0.714576	1.027293
H	-1.600807	-0.716069	0.87388
H	-0.412437	-0.254165	1.912855
C	-1.524006	0.428109	-2.154938
H	-1.153409	0.760989	-3.129979
H	-1.88026	1.294553	-1.609454
H	-2.40239	-0.199741	-2.28971
N	-0.644379	-1.836653	-1.46528
H	-1.528205	-1.999637	-0.990855
H	-0.806351	-2.084702	-2.437152
Cl	-3.762149	0.0	0.0
