18

C	0.0	0.0	0.0
C	-0.246974	-0.019613	-1.549187
F	1.365783	0.0	0.0
H	0.533276	0.662546	-1.895623
N	-0.248802	1.409216	0.6149
O	-0.308152	2.377669	-0.133342
O	-0.251859	1.459478	1.842248
N	-0.592622	-1.010932	0.737233
H	-0.460205	-0.833572	1.727512
H	-1.603635	-0.953359	0.54469
C	-1.541694	0.424252	-2.21012
H	-2.346756	-0.290349	-2.071996
H	-1.30139	0.501544	-3.276511
H	-1.896292	1.379647	-1.830529
N	0.093149	-1.351859	-2.058934
H	0.925335	-1.682755	-1.586274
H	-0.654783	-1.980857	-1.787299
Cl	-3.733872	0.0	0.0
