18

C	0.0	0.0	0.0
C	-0.50829	0.181389	-1.424271
F	1.359821	0.0	0.0
H	-1.551648	0.489228	-1.338371
N	-0.282929	1.305566	0.820235
O	-0.846468	2.25859	0.303067
O	0.106477	1.255194	1.989003
N	-0.528203	-1.112107	0.658466
H	-1.547817	-1.059423	0.560195
H	-0.287493	-1.062641	1.642366
C	-0.446262	-1.143661	-2.17746
H	-1.101364	-1.890706	-1.730048
H	0.577925	-1.533743	-2.180316
H	-0.761808	-0.974619	-3.211144
N	0.285929	1.233713	-2.062533
H	-0.328851	1.842842	-2.584652
H	0.951518	0.82205	-2.708575
Cl	-3.631381	0.0	0.0
