18

C	0.0	0.0	0.0
C	-0.537849	0.230538	-1.406144
F	1.351074	0.0	0.0
H	-1.629701	0.253781	-1.316138
N	-0.291864	1.244814	0.903891
O	-1.029082	2.136172	0.501085
O	0.235702	1.204375	2.016349
N	-0.534331	-1.149747	0.602145
H	-1.556568	-1.097524	0.529361
H	-0.271692	-1.170989	1.581045
C	-0.11185	-0.938854	-2.28304
H	-0.42838	-1.887979	-1.854567
H	-0.566928	-0.834604	-3.27262
H	0.975726	-0.940824	-2.395498
N	0.024269	1.469795	-1.956488
H	-0.577248	2.234989	-1.67825
H	-0.012793	1.407959	-2.96701
Cl	-3.754684	0.0	0.0
