18

C	0.0	0.0	0.0
C	-0.415397	0.154819	-1.456455
F	1.408832	0.0	0.0
H	0.147394	1.028139	-1.809379
N	-0.245212	1.333442	0.765311
O	-0.585357	1.250143	1.942399
O	-0.001117	2.376766	0.16702
N	-0.52555	-1.087741	0.669816
H	-0.650902	-0.889073	1.654186
H	-1.404174	-1.375688	0.258807
C	-1.899136	0.399938	-1.64384
H	-2.285552	1.205103	-1.022861
H	-2.50702	-0.471078	-1.40486
H	-2.087483	0.665452	-2.688781
N	-0.030355	-1.082946	-2.139029
H	-0.382099	-1.042314	-3.087338
H	0.97864	-1.147768	-2.17942
Cl	-4.786338	0.0	0.0
