18

C	0.0	0.0	0.0
C	-0.476362	-0.119918	-1.452775
F	1.396646	0.0	0.0
H	-1.514625	0.21493	-1.467874
N	-0.238005	1.455504	0.5553
O	-0.54315	2.365776	-0.208762
O	-0.041082	1.587744	1.762838
N	-0.518149	-0.947647	0.869631
H	-0.316816	-0.667355	1.823738
H	-1.537443	-0.949951	0.732411
C	-0.420123	-1.581203	-1.883785
H	-0.687282	-1.625485	-2.941022
H	-1.113706	-2.192087	-1.309104
H	0.590289	-1.985196	-1.757852
N	0.297118	0.684321	-2.395564
H	1.28375	0.508736	-2.241615
H	0.127839	1.660609	-2.189366
Cl	-3.564804	0.0	0.0
