17

C	0.0	0.0	0.0
C	-0.538932	0.265091	-1.413836
Br	1.967043	0.0	0.0
H	-1.62826	0.259407	-1.271248
H	-0.261336	0.860699	0.619975
C	-0.519661	-1.267636	0.642805
H	-1.612805	-1.217756	0.601142
H	-0.202094	-1.334037	1.685938
H	-0.16472	-2.15664	0.11854
C	-0.176535	-0.810688	-2.425396
H	-0.673298	-0.574495	-3.368057
H	0.902101	-0.844312	-2.604166
H	-0.507913	-1.79915	-2.098951
N	-0.182094	1.576074	-1.954357
H	-0.643782	2.291457	-1.402582
H	0.820358	1.714181	-1.859439
Cl	-3.855156	0.0	0.0
