16

C	-0.296845	0.091494	-1.504196
C	0.0	0.0	0.0
Cl	-0.332144	1.886987	-1.960518
H	1.108457	0.0	0.0
N	0.596243	-0.660643	-2.236872
H	1.548235	-0.584866	-1.879272
H	0.517201	-0.522748	-3.233487
N	-1.728052	-0.33693	-1.838276
O	-2.538132	-0.332222	-0.919588
O	-1.95476	-0.612237	-3.010421
N	-0.429331	-1.328157	0.580214
O	-0.927257	-1.312487	1.699566
O	-0.214234	-2.325197	-0.095777
C	-0.550442	1.073754	0.805764
N	-0.976722	1.942858	1.471249
Cl	3.142746	0.0	0.0
