16

C	-0.513556	-0.026843	-1.452748
C	0.0	0.0	0.0
Cl	0.404716	-1.238954	-2.427113
H	1.100938	0.0	0.0
N	-1.922589	-0.250986	-1.540158
H	-2.206931	-0.235342	-2.51863
H	-2.089969	-1.196677	-1.196291
N	-0.155054	1.265439	-2.143367
O	1.049184	1.683097	-1.935218
O	-0.692003	1.45177	-3.292428
N	-0.348745	-1.18073	0.802151
O	-0.023061	-2.323379	0.283359
O	-0.227783	-1.028309	2.07933
C	-0.519856	1.254323	0.67305
N	-1.639659	1.546325	0.9503
Cl	2.617915	0.0	0.0
