16

C	-0.497938	-0.078838	-1.487159
C	0.024041	-0.075343	-0.050369
Br	0.602054	1.281276	-2.545071
H	1.116114	-0.034341	0.007289
C	-0.218943	-1.340078	-2.179442
N	-0.041609	-2.350851	-2.752508
N	-1.887958	0.199946	-1.571276
H	-2.09506	1.063414	-1.085534
H	-2.196306	0.270941	-2.533379
C	-0.493779	-1.256416	0.626823
N	-0.896507	-2.199604	1.203557
C	-0.344536	1.192559	0.725586
H	-1.394946	1.233957	1.036299
H	0.323026	1.21123	1.58404
H	-0.07912	2.062577	0.123636
F	2.376476	0.660729	0.52518
