19
Coordinates from ORCA-job run
  C   -0.72498750187534      0.37607096905010      0.41919872089572
  C   0.72624076137502     -0.11098217285333      0.37798002341296
  F   -0.68078592673316      1.68383512608847      0.99092526073817
  H   1.04606872278737     -0.13855838587989      1.42977663548104
  C   -1.39110484891612      0.54275955559694     -0.93044853503584
  H   -0.83520221909702      1.24541252463719     -1.55051377421206
  H   -1.47492444740873     -0.41433992886235     -1.44461755041251
  H   -2.39514175653692      0.94973615985577     -0.78561409314508
  N   -1.50297005231232     -0.48418994654659      1.24591412626545
  H   -1.10389999543621     -0.52468079082770      2.17676668593835
  H   -2.45133369045343     -0.13590958348792      1.32066877131115
  C   1.64644386576287      0.86014853683313     -0.35727837861508
  H   1.53430261001361      1.87656635473260      0.02016788822288
  H   2.68841188617860      0.55742017458062     -0.22493804671418
  H   1.44275490300273      0.86239025935763     -1.43146396843488
  C   0.84078583738122     -1.51985865140026     -0.19955497660934
  H   0.16257735712318     -2.21197104043366      0.29935453910278
  H   0.60913718790081     -1.52248909073927     -1.26818516027636
  H   1.86362730724383     -1.88936006970147     -0.08713816791316
