18

C	-0.429803	-0.053064	-1.461563
C	0.0	0.0	0.0
Cl	0.160388	1.403591	-2.348859
H	1.091504	0.0	0.0
C	0.252709	-1.25634	-2.117773
H	0.110325	-1.215896	-3.198909
H	-0.170866	-2.18955	-1.742246
H	1.317257	-1.201546	-1.870252
C	-1.882749	-0.138995	-1.639015
N	-3.032029	-0.345406	-1.779061
C	-0.398708	-1.231954	0.798655
H	-0.123227	-1.052579	1.83838
H	-1.470028	-1.454627	0.735799
H	0.183316	-2.090127	0.45774
N	-0.507351	1.191382	0.704833
O	-1.320619	1.936415	0.143414
O	-0.067206	1.37988	1.841306
H	2.658767	0.0	0.0
