18

C	-0.377992	0.084812	-1.479231
C	0.0	0.0	0.0
Cl	-2.167694	0.442523	-1.685435
H	1.092897	0.0	0.0
C	0.436217	1.083922	-2.294154
H	0.148607	2.097941	-2.036575
H	0.284048	0.905843	-3.360425
H	1.486456	0.930209	-2.017192
C	-0.189987	-1.239103	-2.081327
N	-0.040701	-2.284498	-2.597248
C	-0.484388	-1.238526	0.718332
H	-0.082094	-2.120453	0.219175
H	-1.574624	-1.299831	0.75639
H	-0.098473	-1.227024	1.736859
N	-0.385421	1.214894	0.724048
O	-0.81774	1.10104	1.878886
O	-0.1653	2.308069	0.188897
H	2.579563	0.0	0.0
