18

C	-0.358141	0.034112	-1.483161
C	0.0	0.0	0.0
Cl	-2.178715	0.136614	-1.719929
H	1.092909	0.0	0.0
C	0.304298	1.146349	-2.280439
H	1.368123	1.136415	-2.017541
H	0.165392	0.965354	-3.348386
H	-0.119716	2.109289	-2.010394
C	0.03497	-1.254369	-2.065528
N	0.342036	-2.277674	-2.555644
C	-0.489674	-1.217997	0.746369
H	-1.577651	-1.301072	0.751693
H	-0.139311	-1.160532	1.777148
H	-0.049591	-2.108874	0.294859
N	-0.415916	1.235788	0.67082
O	-1.134791	1.156914	1.680058
O	0.043155	2.30336	0.244245
H	2.58488	0.0	0.0
