18

C	-0.468946	0.099633	-1.456738
C	0.0	0.0	0.0
Cl	0.03938	-1.415592	-2.32408
H	1.090427	0.0	0.0
C	-1.982807	0.213495	-1.609009
H	-2.255907	0.223197	-2.666454
H	-2.317523	1.139498	-1.141041
H	-2.460753	-0.642334	-1.128971
C	0.185713	1.182801	-2.204899
N	0.619438	1.993742	-2.936766
C	-0.390498	-1.248879	0.762926
H	-1.451474	-1.268859	1.030008
H	0.197891	-1.267131	1.680283
H	-0.137647	-2.136301	0.184647
N	-0.382266	1.177638	0.727024
O	-0.364408	1.123057	1.972492
O	-0.564174	2.242803	0.095025
H	2.441119	0.0	0.0
