18

C	-0.432187	-0.06851	-1.463372
C	0.0	0.0	0.0
Cl	-0.042264	1.490796	-2.279173
H	1.091495	0.0	0.0
C	0.396523	-1.1528	-2.154568
H	0.242289	-1.102424	-3.233669
H	1.446935	-0.97962	-1.898436
H	0.093113	-2.140615	-1.802458
C	-1.86131	-0.327059	-1.658436
N	-2.973537	-0.640107	-1.876518
C	-0.44606	-1.198475	0.822245
H	-1.531794	-1.334682	0.814522
H	0.04554	-2.099628	0.453121
H	-0.102659	-1.046328	1.848091
N	-0.53678	1.209454	0.671492
O	0.13643	1.685797	1.582523
O	-1.64418	1.630881	0.32131
H	2.757918	0.0	0.0
