18

C	-0.424338	-0.07096	-1.463368
C	0.0	0.0	0.0
Cl	0.115505	1.410756	-2.340706
H	1.091488	0.0	0.0
C	0.308205	-1.246024	-2.115757
H	1.367437	-1.152433	-1.856081
H	0.173881	-1.210213	-3.198138
H	-0.082663	-2.194131	-1.743776
C	-1.871435	-0.209094	-1.648466
N	-3.014657	-0.447159	-1.787587
C	-0.406552	-1.218077	0.816122
H	-1.484084	-1.412697	0.781857
H	-0.099123	-1.039335	1.847462
H	0.142827	-2.093061	0.466537
N	-0.519094	1.196698	0.691089
O	-0.030729	1.441262	1.794476
O	-1.405933	1.872841	0.157053
H	2.684089	0.0	0.0
