13

C	0.0	0.0	0.0
C	-0.576614	-0.123484	-1.384984
F	1.386438	0.0	0.0
H	-1.66416	-0.294064	-1.152372
H	-0.363172	0.932203	0.43356
H	-0.343024	-0.832596	0.612836
N	-0.00558	-1.35778	-2.01379
O	0.589521	-1.280358	-3.08847
O	-0.16795	-2.407823	-1.386401
N	-0.429987	1.00355	-2.254166
H	0.455971	1.469911	-2.103205
H	-1.189197	1.63996	-2.041802
H	-2.983194	0.0	0.0
