13

C	0.0	0.0	0.0
C	-0.383157	-0.059219	-1.472406
F	1.382371	0.0	0.0
H	0.145566	-0.907152	-1.922187
H	-0.370218	-0.882155	0.522518
H	-0.364964	0.907751	0.475164
N	0.368236	1.131377	-2.132711
O	0.962854	0.907027	-3.189063
O	0.261153	2.239556	-1.614675
N	-1.741095	0.028551	-1.801628
H	-2.451019	0.080932	-0.983729
H	-2.021619	-0.714878	-2.425228
H	-3.481595	0.0	0.0
