13

C	0.0	0.0	0.0
C	-0.554588	-0.105134	-1.395907
F	1.386403	0.0	0.0
H	-1.646761	-0.257167	-1.194955
H	-0.366535	0.926328	0.443076
H	-0.348598	-0.8415	0.597734
N	0.013996	-1.3471	-2.013453
O	-0.259151	-2.408354	-1.448736
O	0.730173	-1.257156	-3.010414
N	-0.34527	1.018839	-2.258872
H	-1.067228	1.696301	-2.044349
H	0.565691	1.432363	-2.099985
H	-2.982741	0.0	0.0
