17

C	-0.410796	0.005521	-1.464155
C	0.0	0.0	0.0
Br	-2.653301	0.031203	-1.425406
H	1.097038	0.0	0.0
C	-0.20111	1.249305	-2.184928
N	-0.01274	2.255238	-2.764943
N	0.027716	-1.096056	-2.122283
H	-0.006572	-1.920302	-1.53483
H	-0.220212	-1.202602	-3.092525
N	-0.368011	-1.307148	0.542191
H	-1.289515	-1.267353	0.964864
H	0.317032	-1.564763	1.243586
C	-0.470803	1.201308	0.799751
H	0.030364	1.179837	1.770057
H	-0.192748	2.137155	0.308245
H	-1.552897	1.188617	0.94816
Br	3.486143	0.0	0.0
