17

C	-0.493473	-0.009406	-1.455703
C	0.0	0.0	0.0
Br	0.345382	-1.477852	-2.439912
H	1.093994	0.0	0.0
C	-1.946039	-0.287951	-1.468892
N	-3.116384	-0.406812	-1.433758
N	-0.156778	1.216598	-2.150558
H	-0.692884	1.98351	-1.759418
H	-0.385382	1.130912	-3.133829
N	-0.459556	-1.224535	0.643745
H	-1.28966	-1.055152	1.20134
H	0.275683	-1.575093	1.245833
C	-0.462465	1.268775	0.716069
H	-0.003051	2.160977	0.285901
H	-0.133309	1.209894	1.755853
H	-1.555769	1.369301	0.705237
Br	3.621502	0.0	0.0
