17

C	-0.355112	0.003403	-1.478756
C	0.0	0.0	0.0
Br	-2.626026	0.109319	-1.522138
H	1.097029	0.0	0.0
C	-0.082506	1.233143	-2.202571
N	0.164335	2.226438	-2.78255
N	0.058917	-1.117022	-2.10847
H	-0.117268	-1.217366	-3.093654
H	-0.025049	-1.93755	-1.519405
N	-0.394381	-1.300037	0.533226
H	0.260733	-1.561316	1.260566
H	-1.330105	-1.250134	0.921426
C	-0.481758	1.210825	0.775738
H	-1.57003	1.217236	0.873804
H	-0.025838	1.185427	1.769059
H	-0.165449	2.139104	0.29312
Br	3.471971	0.0	0.0
