17

C	-0.553734	-0.006474	-1.434353
C	0.0	0.0	0.0
Br	0.422174	1.409715	-2.515115
H	1.097323	0.0	0.0
C	-0.257577	-1.265183	-2.119682
N	-0.111624	-2.262161	-2.722368
N	-1.96414	0.204683	-1.459982
H	-2.172709	1.137915	-1.126811
H	-2.321224	0.113722	-2.403226
N	-0.422747	-1.257566	0.61234
H	0.368805	-1.684695	1.074658
H	-1.172272	-1.119267	1.274605
C	-0.452542	1.229263	0.779719
H	0.089242	1.24682	1.726885
H	-0.221173	2.156243	0.250251
H	-1.525879	1.193337	1.000633
Br	3.564612	0.0	0.0
