17

C	-0.331653	0.035801	-1.498181
C	0.0	0.0	0.0
Br	-0.008007	-1.848088	-2.293942
H	1.104005	0.0	0.0
C	-1.751654	0.248201	-1.775029
N	-2.887249	0.457607	-1.992336
N	0.475771	1.004883	-2.11931
H	0.382288	1.004159	-3.12555
H	1.449968	0.880868	-1.842547
N	-0.620131	-1.142579	0.657154
H	-0.086895	-1.975079	0.429719
H	-0.521753	-1.006579	1.657946
C	-0.490357	1.280446	0.663986
H	-0.075774	1.329667	1.674621
H	-0.150223	2.158767	0.117694
H	-1.58251	1.284292	0.727966
Br	3.567807	0.0	0.0
