17

C	-0.569053	-0.021339	-1.433517
C	0.0	0.0	0.0
Br	0.141735	1.482895	-2.471937
H	1.099456	0.0	0.0
C	-0.131263	-1.247473	-2.114227
N	0.214113	-2.246796	-2.626497
N	-2.023202	0.028433	-1.509429
H	-2.335992	-0.639232	-0.80548
H	-2.31921	0.952434	-1.213676
N	-0.52835	-1.233388	0.621722
H	-0.498464	-1.11255	1.628357
H	0.125003	-1.984121	0.41477
C	-0.479051	1.201405	0.796528
H	-1.552986	1.145757	1.000519
H	0.054823	1.216607	1.749617
H	-0.252052	2.136531	0.284438
Br	3.578651	0.0	0.0
