17

C	-0.555518	-0.023789	-1.43022
C	0.0	0.0	0.0
Br	0.361771	1.422885	-2.518645
H	1.093656	0.0	0.0
C	-0.223628	-1.273593	-2.11898
N	0.00243	-2.240317	-2.747262
N	-1.975389	0.140375	-1.441043
H	-2.211167	1.06954	-1.113543
H	-2.339539	0.030503	-2.380341
N	-0.4123	-1.260462	0.610707
H	0.333421	-1.595897	1.206384
H	-1.262491	-1.154117	1.149149
C	-0.454551	1.232698	0.776478
H	0.088083	1.251698	1.723928
H	-1.527681	1.196032	1.000529
H	-0.224611	2.159819	0.246581
Br	3.559362	0.0	0.0
