13

C	-0.195104	-0.024282	-1.502497
C	0.0	0.0	0.0
Cl	-1.943063	-0.040615	-2.02457
H	1.095403	0.0	0.0
H	0.200962	0.918559	-1.884538
H	-0.39412	0.913712	0.449805
C	0.570987	-1.177454	-2.116613
H	1.58548	-1.07961	-1.712011
H	0.142063	-2.135017	-1.808796
H	0.57607	-1.124321	-3.207602
C	-0.538147	-1.16719	0.669601
N	-0.964632	-2.116885	1.216182
F	2.612849	0.0	0.0
