13
Coordinates from ORCA-job run
  C   0.81674893440456     -0.68150573902121      0.39966297419958
  C   -0.40648319335719      0.20472139401286      0.11185091328764
  Br  1.44007586971853     -1.61516859485612     -1.19496627374680
  H   -0.58963170161252      0.74382576953726      1.05580752818244
  H   0.55520340742514     -1.46874358653773      1.11181475480506
  C   1.90462070669346      0.11458707282543      0.95044923141511
  N   2.76090043356033      0.75290807252750      1.43829732432835
  N   -1.51644060955468     -0.64660667891247     -0.29635644500354
  H   -2.32016837459481     -0.06590779445797     -0.50415601176087
  H   -1.78207406913966     -1.28747961537851      0.44412926873206
  N   -0.06579975126190      1.19462771963862     -0.87368903912593
  H   -0.09034842014858      0.77756002565934     -1.79675476096692
  H   -0.70660323213266      1.97618195496302     -0.84508946434618
