13
Coordinates from ORCA-job run
  C   0.83801941319961     -0.68738417944439      0.34042829982222
  C   -0.40518969491927      0.19349870837312      0.13392242289253
  Br  1.42276353977456     -1.53449723239843     -1.31571084644932
  H   -0.56489287959860      0.68488830003350      1.10758542654141
  H   0.60961314068462     -1.51154391901950      1.02145011859450
  C   1.93208027923611      0.09705266339691      0.89557134579080
  N   2.79552020350058      0.72329948499633      1.38659658563930
  N   -1.51666942539505     -0.65359468798324     -0.27901560467493
  H   -2.33419383488109     -0.07543969494409     -0.43301900049682
  H   -1.74972373971280     -1.33253267283493      0.43805805993807
  N   -0.10935246347051      1.23385041794180     -0.81366497981567
  H   -0.15848609318589      0.86013695318808     -1.75428412768806
  H   -0.76048844523226      2.00326585869483     -0.72791770009404
