13
Coordinates from ORCA-job run
  C   0.81870654124026     -0.67582263235148      0.40752835937506
  C   -0.40752014041024      0.20243006244153      0.10846736102763
  Br  1.45638243142760     -1.61280337735560     -1.17974329304875
  H   -0.60015105826913      0.74424260846878      1.04893672598759
  H   0.55691823218953     -1.46166227570537      1.12121965885543
  C   1.89875532075182      0.12840692801459      0.96102004269129
  N   2.74392812498670      0.78160692790166      1.44864912323449
  N   -1.50993052088669     -0.65668433320849     -0.30401081976350
  H   -1.77272691351471     -1.30083222224713      0.43456376457198
  H   -2.31749812863056     -0.08176757314696     -0.51315052788439
  N   -0.06681275128519      1.19084099766999     -0.87872588205750
  H   -0.08727193678776      0.77112361692471     -1.80071036461632
  H   -0.71077920081162      1.96992127259377     -0.85404414837301
