13
Coordinates from ORCA-job run
  C   0.77975628382012     -0.50939146078932      0.61143634379663
  C   -0.28162603408535      0.02805072253989     -0.36212604277896
  Br  0.98404003701665     -2.45190086027365      0.46621699631893
  H   0.07125565601506     -0.18606666144684     -1.38161484330527
  H   0.44563818317966     -0.31759083611913      1.63375499955909
  C   2.07318890039303      0.11315415066155      0.37104224662643
  N   3.12604037125391      0.59108263529794      0.16629753378763
  N   -0.30552239827910      1.46186378828170     -0.18506832956052
  H   -0.55025846104618      1.94414484000747     -1.03829044077564
  H   -0.97424022174592      1.69660090848048      0.53882450391900
  N   -1.56740173528986     -0.56725391120501     -0.02906165189860
  H   -2.26553734445143     -0.22502103864962     -0.67923289581643
  H   -1.53533323678061     -1.57667227678543     -0.11317841987229
