13
Coordinates from ORCA-job run
  C   0.77183336297391     -0.61410300561357      0.42337878394941
  C   -0.36718668755536     -0.05259953243995     -0.46067109281440
  Br  1.25565119120234     -2.43768108192490     -0.06026337044556
  H   -0.06111445838172     -0.18132716572318     -1.50328403805304
  H   0.43925785272743     -0.65346864221791      1.46584760956138
  C   1.95673620605842      0.22885702911365      0.33300147549113
  N   2.88297901878679      0.94448958008373      0.23161149402691
  N   -0.59212098220899      1.36956785389665     -0.24886397403900
  H   0.20595636341290      1.92544931630636     -0.53421543993304
  H   -0.78882031337558      1.56747963296920      0.72635835430066
  N   -1.54638346838086     -0.85201715643672     -0.23471508263194
  H   -1.87719345146721     -0.72275304737666      0.71618761529799
  H   -2.27759463379207     -0.52189378063670     -0.85337233471049
