13
Coordinates from ORCA-job run
  C   0.85104278218800     -0.68677312053320      0.38193597477017
  C   -0.46174821995912      0.08919531491800      0.18976235891659
  Br  1.35328367852761     -1.70167240961267     -1.20483884432653
  H   -0.66255436975746      0.53193984195261      1.17997157134279
  H   0.69448495863142     -1.42435232365462      1.17001847221529
  C   1.93875072407829      0.21331927445969      0.74123292672824
  N   2.76864130179098      0.98955621644830      1.03989843828732
  N   -1.52337823447978     -0.85332045305660     -0.06632746436563
  H   -1.48781258519410     -1.12837367068376     -1.04184382272720
  H   -2.42321952419199     -0.42564185778977      0.11233752229844
  N   -0.30653488757592      1.07156514696121     -0.87037781649479
  H   -1.17052630770551      1.58983692369675     -0.97511752369025
  H   0.42957068364757      1.73672111689404     -0.65665179295445
