13
Coordinates from ORCA-job run
  C   0.79338673804976     -0.36218062161816      0.80392503407658
  C   -0.53907089066358      0.15652898571678      0.24557364800704
  Br  0.61700948931605     -2.16775377325291      1.53557196961954
  H   -1.24895482190062      0.14918518936239      1.08617976939608
  H   1.08181000242990      0.27458209232260      1.64015182299781
  C   1.83729309714694     -0.33898559309542     -0.21147012643853
  N   2.67967614318892     -0.27879545983413     -1.02748799269248
  N   -0.94017449063750     -0.65513322454337     -0.89025358367031
  H   -1.82054284855804     -0.31259814332097     -1.25596285146929
  H   -1.06769155600742     -1.62435554860970     -0.62249737797020
  N   -0.31038869410915      1.53690112415773     -0.12164921007692
  H   -1.17763027086804      2.05766073342021     -0.13216252477701
  H   0.09627810261277      1.56594423929495     -1.05091857700232
