13
Coordinates from ORCA-job run
  C   0.84589790255388     -0.79167140923961      0.28356911814973
  C   -0.40357825425448     -0.20637706576412     -0.40074534273348
  Br  2.06873359882706     -1.55055815159201     -1.02504213415585
  H   -0.75424519570372     -0.95755505311728     -1.12153998619349
  H   0.56446671063769     -1.62015507050050      0.93776692279602
  C   1.52610558590480      0.22999132640327      1.06702882495221
  N   2.06029535764839      1.07425711592405      1.68425914572524
  N   -0.04182130751534      0.97125464348917     -1.13929242460584
  H   0.06497887199436      1.75783307183282     -0.50848386295938
  H   -0.73193564004520      1.19656104041121     -1.84205575327059
  N   -1.35103493271951      0.07854330629814      0.67551622675076
  H   -1.70807585001280     -0.77647316224123      1.08868691549252
  H   -2.13878684731514      0.59434940809609      0.30133235005214
