13
Coordinates from ORCA-job run
  C   0.75666744259661     -0.55261500996002      0.46369431590024
  C   -0.28542628943339      0.13434580733347     -0.45271286138537
  Br  0.98366585581264     -2.43563984858232     -0.00690726565854
  H   0.12405372327662      0.12527433623868     -1.46725405924459
  H   0.39321605048580     -0.55168869533019      1.49625333999514
  C   2.05290126095269      0.10640649091355      0.40099871249557
  N   3.10744044438548      0.62007478479422      0.33937891090965
  N   -0.34342840294556      1.50852838841009     -0.00285645658060
  H   -0.90955491236779      2.03882157596714     -0.65492164238251
  H   -0.80448187247786      1.55795409559757      0.90018038278618
  N   -1.58439153818716     -0.50605886061194     -0.50487444967210
  H   -1.96303909058240     -0.62629638647433      0.42864127298611
  H   -1.52762267151567     -1.41910667829592     -0.93962020014918
