13
Coordinates from ORCA-job run
  C   0.80862083352648     -0.58388283288677      0.53318166579945
  C   -0.24304898452843     -0.01694728006642     -0.43728699267610
  Br  1.21914550224580     -2.45031113924123      0.16139273264739
  H   0.16254590044767     -0.11048031432732     -1.44875906146214
  H   0.41422884850846     -0.56388175113311      1.55486572610061
  C   2.04529816757578      0.18566475664028      0.48762126482170
  N   3.05954792607299      0.77657805906343      0.45311416584102
  N   -0.34354169773444      1.40515591195789     -0.13866798459492
  H   -0.89109490221162      1.55417430635609      0.70171989113306
  H   -0.79457698687968      1.89922123403475     -0.89850100929078
  N   -1.44122511461282     -0.82959355547151     -0.36949180944247
  H   -2.07880879387376     -0.57657772774429     -1.11366800440768
  H   -1.91809069853642     -0.68911966718179      0.51447941553086
