13
Coordinates from ORCA-job run
  C   0.81932287934819     -0.58793684059220      0.51140437721128
  C   -0.23857128334164     -0.00127626004905     -0.44000350022108
  Br  1.28091547525253     -2.42319789926835      0.05391273806279
  H   0.17768941114567     -0.03313517027052     -1.45091308255901
  H   0.41691166955646     -0.62690439074861      1.52925766867931
  C   2.03621039889405      0.21393659258365      0.51332833060011
  N   3.03543878745956      0.83063939815718      0.51719823268016
  N   -0.37965835250457      1.40125464602697     -0.07181109436213
  H   -0.93995521928181      1.49267449169035      0.76852360076175
  H   -0.83742037416722      1.91990374648456     -0.81107761747410
  N   -1.41519437192417     -0.84751822924964     -0.42458954577107
  H   -1.90009808461374     -0.76789352657464      0.46264964072960
  H   -2.05559093582332     -0.57054655818970     -1.15787974833762
