13
Coordinates from ORCA-job run
  C   0.80879989707568     -0.64626582999511      0.48833502734598
  C   -0.28436462750239     -0.02488860954843     -0.40433205127656
  Br  1.45028642180927     -2.32365125473263     -0.25559772290692
  H   0.10023664597631     -0.00703588474022     -1.43369610352229
  H   0.36978498868392     -0.87846318957147      1.46083487057176
  C   1.93690837669779      0.25877451391526      0.66008629732828
  N   2.81558244597356      1.03193585571269      0.76283935238532
  N   -0.58267208112105      1.29124018573268      0.15460589488618
  H   0.20166038479226      1.92660185013532      0.05367837486326
  H   -1.36850565767963      1.68984567563838     -0.34562912691701
  N   -1.44041632260929     -0.88415826745625     -0.37442250407677
  H   -2.00190227132091     -0.65803100586536      0.43914346594466
  H   -2.00439820077552     -0.77590403922484     -1.20584577462590
