13
Coordinates from ORCA-job run
  C   0.73909935915253     -0.65705110745961      0.44255657131070
  C   -0.50527308086036      0.21148670058734      0.11274077457376
  Br  1.26216633187520     -1.80333646105181     -1.04286357948839
  H   -0.73972286413838      0.71121077105044      1.06956162285450
  H   0.49114074831568     -1.33201778695054      1.26529663851670
  C   1.86468098928954      0.18096082199131      0.83130366967203
  N   2.72149203423887      0.92056172807918      1.14805468988013
  N   -1.67855008673318     -0.52482349618324     -0.27850386627791
  H   -1.99345946107065     -1.14638566782620      0.45532926292796
  H   -1.47717694139529     -1.06395250230214     -1.11288270681404
  N   -0.18850294023068      1.11098880858393     -0.97026470040851
  H   -1.02870646613308      1.62129940023042     -1.21159720190117
  H   0.53281237768979      1.77205879125092     -0.70873117484577
