13
Coordinates from ORCA-job run
  C   0.78168366834488     -0.52006924322621      0.59922496551277
  C   -0.27882650645447      0.03694815752273     -0.36432281193625
  Br  1.02090182312037     -2.45182450520374      0.37961431022249
  H   0.08623821919532     -0.13494767956910     -1.38750199417691
  H   0.43286755489947     -0.37529579759953      1.62438585263890
  C   2.06655791278546      0.13350083304651      0.39854501031486
  N   3.11366232735107      0.63596201753322      0.22552447540343
  N   -0.32634078796962      1.46283441754733     -0.13579822188195
  H   -0.56964482702426      1.97234248147563     -0.97371854971430
  H   -1.00582548612860      1.66102233733349      0.58908483378027
  N   -1.55816105128288     -0.58943330568644     -0.06497008039484
  H   -2.25506457433096     -0.23814682683828     -0.71157732633553
  H   -1.50804827250577     -1.59489288633561     -0.18149046343294
