13
Coordinates from ORCA-job run
  C   0.85873706226518     -0.67726060413330      0.34757541508645
  C   -0.41705264900680      0.16798580953055      0.26504316466148
  Br  1.25711737333151     -1.52745913109565     -1.37641915076699
  H   -0.53525890275388      0.60030538798643      1.26584929606715
  H   0.69288403273656     -1.50416036910748      1.03872829499404
  C   2.00836841284460      0.11083648168870      0.76444365608360
  N   2.92945073183200      0.72997596866064      1.14830947611321
  N   -1.54237227924660     -0.73277913666168      0.06502553065179
  H   -1.52377118940020     -1.10958866481011     -0.87617600773837
  H   -2.41121765166480     -0.22476731226866      0.17900485270244
  N   -0.20186154291210      1.27365595794745     -0.64653721136287
  H   -0.16206001996095      0.94561216026292     -1.60433320340149
  H   -0.95196337806451      1.94864345200021     -0.56951411309046
