13
Coordinates from ORCA-job run
  C   0.73704596459761     -0.63207284149687      0.41891595259304
  C   -0.33353177146059      0.12051399168617     -0.41303509031403
  Br  1.15036837718503     -2.36330100887565     -0.38024885445002
  H   0.05676115234701      0.21491271656790     -1.43715869635849
  H   0.32857949581535     -0.82867668204687      1.41229939831803
  C   1.96171697421184      0.14599444110419      0.53072485458148
  N   2.91624335538743      0.82920070806231      0.58673248659047
  N   -0.56010571015870      1.37658517379749      0.27764161086716
  H   -1.37502215392474      1.81322415817698     -0.13685977648288
  H   0.22892494765833      2.00329933071568      0.17229133938882
  N   -1.60843066533057     -0.54435240706489     -0.49207676577876
  H   -1.96694939091350     -0.71157453950566      0.44194206501261
  H   -1.53460057541451     -1.42475304112079     -0.98416852396743
