13
Coordinates from ORCA-job run
  C   0.82615925468018     -0.75471383964805      0.13783456496976
  C   -0.52644915907335     -0.18082212550855     -0.36064553113481
  Br  1.96732970847103     -1.20831166598219     -1.38080482085993
  H   -0.91058435728321     -0.89307312598366     -1.10532983479416
  H   0.67148882077397     -1.69293024796518      0.67670328474711
  C   1.50936535419000      0.20205275454659      0.99454913020853
  N   2.04584215482670      1.00921958549672      1.65817872361098
  N   -0.45581599953919      1.11062832642151     -0.98905201785891
  H   -0.03349763981890      1.78190898689068     -0.35634539185807
  H   0.07975768253704      1.07531791389059     -1.84621141538412
  N   -1.35052116694802     -0.03132906930428      0.82318334700453
  H   -2.16765681994895      0.51182563807568      0.57108165619020
  H   -1.65541783286728     -0.92977313092985      1.17685830515889
