13
Coordinates from ORCA-job run
  C   0.80518644607014     -0.65478132474807      0.48323105618206
  C   -0.29171123658730     -0.02421139170055     -0.39785523345868
  Br  1.40069595116271     -2.35431861216071     -0.24841140109567
  H   0.07629359017713     -0.02372232285443     -1.43344988037408
  H   0.38094404765940     -0.86422107350435      1.46744652227234
  C   1.95370348355891      0.23047252393958      0.62067480928739
  N   2.84866331348692      0.98789716562831      0.69803584995469
  N   -0.55797012823444      1.30313113461725      0.15099605494972
  H   0.23602867335067      1.92301099623549      0.03087794143894
  H   -1.34384512489731      1.70984732470496     -0.34295769725941
  N   -1.46236866997899     -0.86198101361097     -0.34045130780869
  H   -2.03638028801175     -0.75299760719645     -1.16472687280622
  H   -2.00724005775610     -0.61712579935006      0.47859015871762
