13
Coordinates from ORCA-job run
  C   0.75586461328377     -0.64339481063543      0.39210039393941
  C   -0.45950888922467      0.29023920545317      0.19063012428584
  Br  1.19830557736458     -1.60687280220767     -1.25773830705840
  H   -0.61250728660567      0.75853823134730      1.17129824066102
  H   0.49908043112649     -1.42637883423564      1.10873174634568
  C   1.93013560554567      0.07676762050821      0.86080751794397
  N   2.85689118713769      0.66313298318060      1.28168039165560
  N   -1.69633244866740     -0.39143354933507     -0.14519192838698
  H   -2.00101550523195     -1.00287889615885      0.60398206252825
  H   -1.57809726676531     -0.94709409915379     -0.98504690011654
  N   -0.09710557684915      1.32935115462505     -0.73877677622233
  H   -0.87866953591674      1.96725494073316     -0.82818200052583
  H   0.08295909480268      0.93276885587897     -1.65429456504969
