13
Coordinates from ORCA-job run
  C   0.85530779890249     -0.78417708425843      0.07111352303344
  C   -0.52158232661588     -0.24890789795606     -0.39807308612183
  Br  2.09732941462431     -0.94051215565335     -1.42447857135271
  H   -0.87489427072563     -0.95234608416407     -1.15804547985513
  H   0.73110243753255     -1.78812098244326      0.47819680408018
  C   1.41608656217799      0.10194391328181      1.08037753117453
  N   1.78396605352800      0.87007760285000      1.89026362753661
  N   -0.51805742105789      1.06997177977963     -0.99322442008413
  H   -0.12129610876098      1.75190445430908     -0.35497795718102
  H   0.01868777237679      1.08634939388413     -1.85217966654739
  N   -1.39195079861622     -0.35891084591212      0.75507187616574
  H   -1.13722576628429      0.33879751927294      1.44787814921394
  H   -2.33747334708125     -0.14606961299029      0.45807766993777
