13
Coordinates from ORCA-job run
  C   0.73100374592983     -0.54567959189030      0.63996119069099
  C   -0.24071826154693      0.05826162966572     -0.38673679185616
  Br  1.04555027022176     -2.45090823425056      0.31228485712614
  H   0.23336988230026     -0.02623735928763     -1.37553496005745
  H   0.27607317528314     -0.48169534778184      1.63111669670388
  C   2.01089426087636      0.14684511554407      0.61829474640127
  N   3.05522459755133      0.68302623895413      0.58952563635312
  N   -0.35591056666845      1.46084368234086     -0.05965587603377
  H   -0.52659203112350      2.02792911538187     -0.87810854589641
  H   -1.11189377845682      1.58704425814037      0.60270636957163
  N   -1.52459473389670     -0.61833283748369     -0.27240896693367
  H   -1.43248437907875     -1.60980156655878     -0.46154697475268
  H   -2.16092218139153     -0.23129510277422     -0.95989738131688
