13
Coordinates from ORCA-job run
  C   0.81172629616749     -0.66301002253228      0.33856188424764
  C   -0.51603894358320      0.12863519848930      0.27578480783765
  Br  1.22592846188448     -1.50882719476387     -1.37914538172715
  H   -0.63274892909020      0.54393491735697      1.28465112101493
  H   0.71406709407114     -1.48085476031622      1.05442682235949
  C   1.91293752468092      0.21450952370292      0.70378538407818
  N   2.75380445249609      0.97412866228109      1.01434738863531
  N   -1.58649190997356     -0.81997289566456      0.06981536503844
  H   -2.46091208461799     -0.30753540634625      0.08106475248182
  H   -1.49851182852395     -1.24146707058852     -0.84872926466582
  N   -0.53760770893234      1.24791325174595     -0.64301057646091
  H   -0.30824242073020      0.94379181029002     -1.58254504396321
  H   0.12008999615132      1.96875398634545     -0.36800725887634
