13
Coordinates from ORCA-job run
  C   0.84800670177525     -0.77899695782508      0.31113061474371
  C   -0.40564787522345     -0.22335591937599     -0.39007653024610
  Br  2.06547244221242     -1.58946992367586     -0.97122817521905
  H   -0.75936601512917     -1.00410566201755     -1.07718700950864
  H   0.57038970449231     -1.58040342189717      0.99976227937105
  C   1.53038192968360      0.27445557961687      1.04946881861926
  N   2.06619870235448      1.14377215619148      1.62943090352933
  N   -0.04904885216497      0.92275957897546     -1.17902024985218
  H   -0.74613388859096      1.12031169878276     -1.88345613559280
  H   0.06450683700162      1.73415925542595     -0.58163604876077
  N   -1.34752712206243      0.10473075348055      0.67870103469355
  H   -2.13574343630221      0.60802201898417      0.28903174691158
  H   -1.70448912804648     -0.73287915666558      1.12607875131108
