13
Coordinates from ORCA-job run
  C   0.73206713526081     -0.62362592634701      0.44006385456200
  C   -0.33290515108386      0.10924656021342     -0.41636262619479
  Br  1.13052934981556     -2.38417935475714     -0.30100391952318
  H   0.05771423575317      0.16652592849507     -1.44307907948024
  H   0.32259447029692     -0.78388422345637      1.43955033359466
  C   1.96333431701052      0.14718536931213      0.52508035215336
  N   2.92273896850215      0.82531049186209      0.55600526231498
  N   -0.54946995495223      1.38952270153378      0.23198150145688
  H   0.24526914937510      2.00526324708265      0.10724208620350
  H   -1.35966467583074      1.81939977146807     -0.19863463172788
  N   -1.61297635471520     -0.54755175787918     -0.47278285198405
  H   -1.97341129293191     -0.67762206084821      0.46586695934493
  H   -1.54682019650029     -1.44559074667930     -0.93292724072016
