13
Coordinates from ORCA-job run
  C   0.85028965167560     -0.66063172334065      0.39781275251431
  C   -0.41922309433774      0.18562828341746      0.24997873706614
  Br  1.26169140444558     -1.61628602884900     -1.26636020343445
  H   -0.54587930494520      0.67737855800489      1.22188746439805
  H   0.67149102817158     -1.44246780743173      1.13666341747950
  C   2.00007558714439      0.14547066489357      0.77780636396293
  N   2.92120010065273      0.78168194479409      1.13271501882700
  N   -1.54799502622932     -0.71896848097455      0.09035053422612
  H   -2.41464686113720     -0.19897474427691      0.15909381677959
  H   -1.51856208605957     -1.15330707227938     -0.82546055915004
  N   -0.18650001886331      1.23371815336017     -0.72318472293853
  H   -0.93056851703548      1.91892616946020     -0.69254085161191
  H   -0.14137286348206      0.84983208322184     -1.65976176811871
