13
Coordinates from ORCA-job run
  C   0.82331235070377     -0.67748236138009      0.39358786125376
  C   -0.40312869347212      0.20828207501858      0.11797714973082
  Br  1.40342692384915     -1.64541124995365     -1.19696261143357
  H   -0.56253022020016      0.76456189720762      1.05625466313333
  H   0.57642144050672     -1.44895656225676      1.12789470455172
  C   1.92772573037065      0.12461602622371      0.90078396938681
  N   2.79883870332209      0.76904498905689      1.35304194698907
  N   -1.52528397934610     -0.64573686156537     -0.24929783191896
  H   -2.33107296675972     -0.06541567198909     -0.45011523806847
  H   -1.77666469705093     -1.27146707928771      0.50880685982038
  N   -0.08165222542337      1.17930996529348     -0.89231731478675
  H   -0.71960432193416      1.96325967396011     -0.86342130425778
  H   -0.12778804456584      0.74639515967229     -1.80723285440035
