13
Coordinates from ORCA-job run
  C   0.76871947216354     -0.45828432939770      0.74220227382763
  C   -0.57553111729679      0.20424759458116      0.34611474487392
  Br  0.49943009834889     -2.29484425498409      1.34096568746298
  H   -1.21220609117578      0.14732580744925      1.23417522157480
  H   1.20162011559860      0.08268721783233      1.58420988668382
  C   1.68339504262860     -0.44333232076769     -0.38973208911141
  N   2.35276695633133     -0.37960262835767     -1.35367274376755
  N   -1.29177518111768     -0.42105180391770     -0.74458207808457
  H   -1.57960781394895     -1.36261951383632     -0.50619649637699
  H   -0.71280968529763     -0.46456270926475     -1.57689437811673
  N   -0.26297136690050      1.59851999500896      0.10627865096146
  H   -1.13439974694408      2.09927915372462     -0.02543470762381
  H   0.26336931761043      1.69123779192959     -0.75743397230355
