13
Coordinates from ORCA-job run
  C   0.72454873282202     -0.37330336358659      0.70875902446184
  C   -0.67630370299349      0.19279936251797      0.30079094040365
  Br  0.58072711239581     -2.17415290767208      1.45660445309676
  H   -1.29539661063665      0.14230311930516      1.20256406552583
  H   1.16289342042575      0.23396770790357      1.50435979709900
  C   1.60545791680131     -0.38718929632141     -0.44893284137458
  N   2.24196080813322     -0.35676501039814     -1.43651882741091
  N   -1.33580155213322     -0.55235873545500     -0.73811473270114
  H   -1.52129364045532     -1.50000669169293     -0.43769027330492
  H   -0.76731305451084     -0.58884212422299     -1.57743034970633
  N   -0.56414949019243      1.57583089882150     -0.10763665398773
  H   -0.09608709677089      1.65686102758098     -1.00284686797568
  H   -0.06024284288526      2.12885601321997      0.57409226587421
