13
Coordinates from ORCA-job run
  C   0.78819416568193     -0.63978654737643      0.39398230421841
  C   -0.51148573569800      0.16751684300212      0.12300299196646
  Br  1.41011035200984     -1.59352091917731     -1.18593021539801
  H   -0.70247831994147      0.69547846454495      1.07324221823710
  H   0.60894835729116     -1.40558755029933      1.15402487303347
  C   1.83533179964131      0.26175391665992      0.85283931341377
  N   2.62756713602188      1.04612452911740      1.22358467440503
  N   -1.55544223049419     -0.75310386917239     -0.26586915839931
  H   -1.80195085456952     -1.37727449974196      0.49246488904185
  H   -2.37092810304212     -0.20934518370670     -0.51973873606557
  N   -0.42197197764048      1.16965326845819     -0.90382440327045
  H   0.23766240498954      1.89704732714436     -0.65856424153070
  H   -0.14255699424989      0.74004422054719     -1.77821450965207
