13
Coordinates from ORCA-job run
  C   0.70909887905142     -0.61996674479052      0.41724787179901
  C   -0.57377326659407      0.25428247710273      0.20754602475193
  Br  1.11437578978059     -1.67612625020937     -1.17608626841009
  H   -0.70169312431999      0.77178639941412      1.16763964826138
  H   0.54926376394963     -1.34735756500978      1.21774278116246
  C   1.85049428770418      0.22116046643256      0.74184702189126
  N   2.71656414444021      0.96919857738111      1.00966181774402
  N   -1.75919127619846     -0.53031014670533     -0.04936574341101
  H   -1.77110577336686     -1.38281539071017      0.49700554610731
  H   -1.81131035156008     -0.77539422304292     -1.02979874635097
  N   -0.43487736446988      1.25809374997435     -0.81410496783242
  H   0.18359917548637      2.00077518255064     -0.51723200415571
  H   -0.07144488390307      0.85767346761258     -1.67110298155719
