13

C	0.0	0.0	0.0
C	-0.485944	0.112112	-1.428131
F	1.353795	0.0	0.0
H	-0.201147	-0.839222	-1.893154
H	-0.405961	-0.869017	0.503956
H	-1.578687	0.165777	-1.323423
N	-0.400693	1.159548	0.875702
O	-0.337047	0.95144	2.084682
O	-0.622529	2.254343	0.367609
N	0.186871	1.196419	-2.170651
H	-0.232856	2.057074	-1.84268
H	-0.092492	1.092388	-3.139245
F	-2.64045	0.0	0.0
