13

C	0.0	0.0	0.0
C	-0.453767	0.243683	-1.443319
F	1.367527	0.0	0.0
H	0.457508	0.44525	-2.02156
H	-0.388752	-0.910299	0.440148
H	-1.0908	1.120751	-1.457224
N	-0.368407	1.095352	0.958407
O	-0.496663	0.776352	2.137655
O	-0.372749	2.2496	0.538377
N	-1.21372	-0.849898	-2.033608
H	-2.024525	-0.841491	-1.388598
H	-0.701602	-1.716337	-1.893459
F	-2.525684	0.0	0.0
