13

C	0.0	0.0	0.0
C	-0.30712	-0.355322	-1.487881
F	1.365212	0.0	0.0
H	0.596144	-0.031447	-2.015669
H	-0.417028	-0.653203	0.75566
H	-0.294529	-1.454803	-1.493973
N	-0.377392	1.395695	0.39551
O	-0.544484	1.616217	1.590274
O	-0.346664	2.258781	-0.480894
N	-1.473307	0.103578	-2.202014
H	-2.226285	0.016098	-1.478792
H	-1.357873	1.100926	-2.343132
F	-2.613729	0.0	0.0
