16
Coordinates from ORCA-job run
  C   -0.45482463740435     -0.30865505398813     -0.30815149126054
  C   0.76514142732308      0.47732148137941      0.20428114024474
  Cl  0.02930765525736     -1.33239708531768     -1.65926134968045
  H   0.40552158795323      1.09571757601422      1.03014590076733
  C   -1.11579740282956     -1.12987878629804      0.77814807735334
  H   -1.43817619848027     -0.47064964711008      1.58609110338395
  H   -0.39767862647887     -1.85133618275091      1.16250282550383
  H   -1.98184713550469     -1.65308145644063      0.36915163065980
  N   -1.47977367061141      0.72649723236911     -0.78813012131702
  O   -1.71214092529105      1.60617513824305      0.03813085991378
  O   -2.00761654980932      0.59874529905643     -1.88065847771833
  C   1.25995876244085      1.38975836970148     -0.84572142815902
  N   1.68557887491665      2.12987436898536     -1.65283356241821
  N   1.75751338280530     -0.44564257000832      0.72078990126178
  H   2.42996520712408      0.05565299313753      1.28754862103334
  H   2.25586824858897     -0.89010167697281     -0.04103362956832
