16
Coordinates from ORCA-job run
  C   -0.43925551679088     -0.27860778320085     -0.34648721386249
  C   0.74648240206841      0.48080150537867      0.27341041088873
  Cl  0.09931247965295     -1.12716063981515     -1.79615227863897
  H   0.35854836965949      0.98684943990923      1.16002457096424
  C   -1.08847258696976     -1.23824666199282      0.62804960376988
  H   -1.92125083331723     -1.74892191656178      0.14186601074848
  H   -1.45765567694364     -0.68144727096600      1.49202981095764
  H   -0.34827198374366     -1.96586131144940      0.95471034983441
  N   -1.50225689140847      0.75768089491362     -0.72873642496813
  O   -1.69064135703306      1.61931684818406      0.12696083693534
  O   -2.11699980212328      0.62675482706870     -1.77478483427689
  C   1.22887845017859      1.52149902669152     -0.65539151024057
  N   1.67409094994576      2.32962576583512     -1.38278705491782
  N   1.76189335876252     -0.46632845934712      0.69399249187540
  H   2.41296515984563     -0.01273402592422      1.32251373510546
  H   2.28163347821662     -0.80422023872357     -0.10721850417470
