16
Coordinates from ORCA-job run
  C   -0.46947464670224     -0.53833766908471     -0.12168239879614
  C   0.99288510875260     -0.10995726809969      0.10182586031491
  Cl  -0.47436432453479     -2.18314548412445     -0.76932021892076
  H   1.40776410775660     -0.90394373148848      0.73254797836022
  C   -1.31831782493919     -0.46892084344950      1.13169851515525
  H   -0.86268816095646     -1.07500639336620      1.91688735378946
  H   -2.31351354854126     -0.85703610133720      0.91702401139409
  H   -1.39763976843770      0.56377991629923      1.47852058500415
  N   -1.13368584699080      0.37621647978526     -1.14924171531548
  O   -0.55328549855279      1.42799340328382     -1.41030112384585
  O   -2.22519043793478      0.03041932160060     -1.57490562187347
  C   1.05990366069750      1.13521264655199      0.89243309266776
  N   1.16915303383714      2.11784400568281      1.52709405019852
  N   1.75260168611893     -0.08669931118051     -1.12936700338367
  H   2.73540740069566     -0.22609912189033     -0.93820150454822
  H   1.62844505973158      0.79668015081738     -1.60501186020078
