16
Coordinates from ORCA-job run
  C   -0.48698733802849     -0.25852170701229     -0.28980652614119
  C   0.79575846013146      0.44903162204693      0.17752391034092
  Cl  -0.15029719367988     -1.17630585865404     -1.75894752330235
  H   0.53103859353289      1.00796065518424      1.07769607205621
  C   -1.08122713458212     -1.15321418806988      0.77724595033537
  H   -0.35664488970210     -1.92083043775933      1.04147573272773
  H   -1.99406024645138     -1.61770901751770      0.40017191373358
  H   -1.31539439592385     -0.55498539724780      1.66095854827278
  N   -1.53241486912611      0.81970358632032     -0.59534773472815
  O   -2.29898528954458      0.65574766910890     -1.53063361474207
  O   -1.55387167653441      1.74518449397558      0.21312889681088
  C   1.24287163468503      1.42507151202974     -0.83581789847541
  N   1.66912559791326      2.17298484841521     -1.63518436970769
  N   1.79291463966661     -0.54426436383235      0.53194961778549
  H   2.20567668674577     -0.94194698486751     -0.30385504691946
  H   2.53149742089788     -0.10890643212003      1.07044207195337
