16
Coordinates from ORCA-job run
  C   -0.42057979609452     -0.55527262319271     -0.11363576086281
  C   0.97378761390554      0.05299964416442      0.14257115007366
  Cl  -0.17679433872844     -2.18311950461457     -0.76905467741723
  H   1.50217868283253     -0.68812731588089      0.76268209184481
  C   -1.30279845709330     -0.61747769261615      1.11347046608951
  H   -2.25053269441580     -1.09682779646493      0.86297890241104
  H   -1.49360713006276      0.38760369760464      1.48786661050984
  H   -0.81008724925393     -1.20846351891884      1.88767741447202
  N   -1.09510810300861      0.32414561611935     -1.16952031652611
  O   -1.37000471241992      1.44563929318775     -0.75705359743285
  O   -1.29368500138539     -0.11319183730452     -2.28970508383168
  C   0.89128400775775      1.28135637173668      0.94023700820715
  N   0.90902288877821      2.24781041681045      1.60652366916176
  N   1.61458716636323      0.34412344817647     -1.12962741928830
  H   2.44856949210099      0.89966179736613     -0.98797010272309
  H   1.87576763072441     -0.51985999617327     -1.58944035468772
