16
Coordinates from ORCA-job run
  C   -0.46011564527607     -0.31085249988186     -0.29603831939472
  C   0.77214081358398      0.47289708804821      0.18938416023028
  Cl  0.01259728279366     -1.40944044212540     -1.59147908124598
  H   0.41918037147380      1.13575003560410      0.98291151696094
  C   -1.14800252407748     -1.06388289898026      0.82258498811188
  H   -1.46213134707571     -0.35916817909391      1.59471932980560
  H   -2.02208654426589     -1.58738154792744      0.43146405319454
  H   -0.44909315752990     -1.78112284228871      1.24809397891187
  N   -1.45984645788892      0.71984742810604     -0.83527601836901
  O   -1.99535714197479      0.53884730160183     -1.91641474513438
  O   -1.66888247775677      1.65197660142754     -0.06200733817962
  C   1.29635724163487      1.32265449799046     -0.89801010349880
  N   1.77045144620554      1.98273699114580     -1.74658054900744
  N   1.74128441199699     -0.44526856761819      0.75638863744949
  H   2.42325860602452      0.06906269064414      1.29976160127962
  H   2.23224512213219     -0.93765565665243      0.01949788888578
