16
Coordinates from ORCA-job run
  C   -0.47125448711570     -0.59530211939606     -0.05175337128557
  C   0.99407377741907     -0.14396444584183     -0.16078534308536
  Cl  -0.52446513210301     -2.33717063302027      0.28261393003312
  H   1.45690442830778     -0.77201319804964     -0.92495998340165
  C   -1.27393540211391      0.16967414352173      0.96702303814113
  H   -1.28177373433817      1.22918642857331      0.70934193826408
  H   -2.30200321946372     -0.18674330647649      0.98448697092693
  H   -0.83024366719210      0.02467502689113      1.95357277806011
  N   -1.05330946960376     -0.40014503111619     -1.45413107806403
  O   -0.37635182864429     -0.81651224210894     -2.38549954363507
  O   -2.14897866217281      0.13867692089587     -1.53903985652400
  C   1.68412425012954     -0.37070347003119      1.11746925288900
  N   2.24236201952316     -0.47149334646157      2.14629659743503
  N   1.01467751221018      1.24036865456297     -0.60373531655734
  H   1.80199557436646      1.40968570298596     -1.21471160051588
  H   1.06917804079118      1.88178091507128      0.17681158731946
