16
Coordinates from ORCA-job run
  C   -0.44847929043846     -0.29398652273046     -0.32883591137242
  C   0.75753338030503      0.47353094406072      0.24080693524305
  Cl  0.06736383674650     -1.26032900130590     -1.71059944305109
  H   0.37975026994837      1.05203777140257      1.08705637721460
  C   -1.12832812631324     -1.16072147254896      0.70960616964559
  H   -1.98040163304359     -1.67410879869148      0.26091614901640
  H   -1.47452491981075     -0.53407581930145      1.53378521050285
  H   -0.41319866156824     -1.89072998484202      1.08342604032143
  N   -1.47114818378241      0.75258768907562     -0.78800532740895
  O   -1.69458814726875      1.62342440622290      0.05004360132538
  O   -2.01318260755204      0.63403156405941     -1.87450501853852
  C   1.27057740910208      1.43236759628578     -0.75748444941647
  N   1.73950677404949      2.17749449793631     -1.53565711160267
  N   1.74506807847138     -0.46776677479040      0.73321230178684
  H   2.40448403941611      0.01050216774087      1.33432268268997
  H   2.25956778173854     -0.87425826257351     -0.03908820635596
