16
Coordinates from ORCA-job run
  C   -0.34715861046588     -0.61611354522727     -0.08105723036317
  C   1.09335159052851     -0.04128958145755     -0.07811342717415
  Cl  -0.26483243348574     -2.37637270966288      0.12856682213505
  H   1.67208307084367     -0.64653677547004     -0.78011426730119
  C   -1.27141697341263     -0.00811223718744      0.94222783836671
  H   -2.26474820115667     -0.44509491253012      0.86350122658555
  H   -1.36180723528310      1.06783913240649      0.78312236374545
  H   -0.87389753050046     -0.19924426553275      1.93956769473418
  N   -0.88386336148790     -0.37526504817190     -1.49312280827024
  O   -2.03532175764789      0.02920999519779     -1.60430557022647
  O   -0.10919601424731     -0.60686471329694     -2.41621309044855
  C   1.65770238742956     -0.22392429701222      1.26464731044358
  N   2.08362175511086     -0.34335065885531      2.35188526180530
  N   1.22027207421635      1.34104288846640     -0.47369917049313
  H   0.68448346855805      1.97228183269005      0.10533191873778
  H   1.00072777100062      1.47179489564369     -1.45122487227670
