16
Coordinates from ORCA-job run
  C   -0.29603394144684     -0.68383041315036     -0.10102244480305
  C   1.00126702000156      0.14564551284442     -0.12443411256641
  Cl  0.11919586252952     -2.40849153586122     -0.00820365953141
  H   1.65660018950965     -0.29610103736606     -0.88147675387489
  C   -1.25555640840845     -0.29765866218927      0.99235055458513
  H   -1.49547622826877      0.76143357300344      0.89431522136718
  H   -0.78841488172052     -0.48208583561851      1.96062524575980
  H   -2.16759411235450     -0.88567057330558      0.91838884631194
  N   -0.94632180584011     -0.47864845880780     -1.47134288978960
  O   -0.18739542212375     -0.30698492262443     -2.42126683590514
  O   -2.16666427883302     -0.53870209750863     -1.52908115781782
  C   1.66630455046059      0.03178547753029      1.17470016699019
  N   2.19847490181398     -0.01233621344910      2.22035457562558
  N   0.65271494498888      1.53263070195378     -0.41478745625628
  H   1.15717094244642      2.17922638432426      0.17565931270430
  H   0.85372866724538      1.73978810022481     -1.38377861279945
