16
Coordinates from ORCA-job run
  C   -0.42415971306823     -0.26638607598476     -0.29673885260623
  C   0.85642483251511      0.50834251165660      0.12286158667647
  Cl  -0.02571056530730     -1.44790237707182     -1.54011467689352
  H   0.52948738703470      1.24877032886471      0.85925792783573
  C   -1.11045597491857     -0.93985431009506      0.87411593304342
  H   -2.03955576097903     -1.40539481619385      0.54094554649921
  H   -0.46683176736538     -1.72097207473733      1.27846833680139
  H   -1.33504873347196     -0.20380750267522      1.64735452005692
  N   -1.39481533441275      0.77693820478620     -0.85829688536432
  O   -1.66792312993624      1.66445045217327     -0.05221047374658
  O   -1.81926716844183      0.67239993994905     -1.99737827715719
  C   1.37469940016798      1.24517439378537     -1.03840692846534
  N   1.78140493574024      1.82782746472748     -1.97279242747824
  N   1.91217260614830     -0.28027260057018      0.70922017302891
  H   2.18426353319159     -1.04517676703792      0.10496062959451
  H   1.64731545310342     -0.63513677157653      1.61775386817487
