16
Coordinates from ORCA-job run
  C   -0.47684340416934     -0.29780586171191     -0.28493238217919
  C   0.78266265737620      0.46054680140803      0.17039281047409
  Cl  -0.06936579751204     -1.36482923352146     -1.62801894841043
  H   0.46968583234260      1.10347165070607      0.99643108526846
  C   -1.12592908820970     -1.07473835621904      0.84038183617377
  H   -0.41605668472216     -1.80750847262141      1.21870552888276
  H   -1.40361172733225     -0.38819296512781      1.64227267476431
  H   -2.01893825216640     -1.58197035472495      0.47122273850888
  N   -1.48588634585101      0.75752327612137     -0.75429146771347
  O   -1.65378571585711      1.66907801149256      0.05275213295567
  O   -2.06562493189369      0.61308658898326     -1.81802528185653
  C   1.27138170387214      1.33540727172628     -0.91374350046446
  N   1.73178806202030      2.00112212975225     -1.76549723598320
  N   1.76560121830744     -0.48179612814695      0.66955147088852
  H   2.47126963485329      0.00963424197029      1.20371440640048
  H   2.22465283894175     -0.95302860008656     -0.10091586770973
