16
Coordinates from ORCA-job run
  C   -0.36966493730858     -0.65391378704464     -0.05616703246245
  C   1.01717159843625      0.01526357950378     -0.04850951946496
  Cl  -0.17856933577392     -2.39281284974679      0.25209139722822
  H   1.66798450842459     -0.57978403460607     -0.69610381794150
  C   -1.35609797906856     -0.03906101965084      0.89958866785833
  H   -1.45402566307259      1.02298903188423      0.67247021198444
  H   -0.99269026660198     -0.16694897806557      1.92026041411598
  H   -2.32602452806259     -0.52184932980876      0.80277661430810
  N   -0.87954321432556     -0.53248154663999     -1.49439384951372
  O   -2.08841501984267     -0.44072187853107     -1.65655001407770
  O   -0.03430949700765     -0.57642142235677     -2.38357134666027
  C   1.56410534665536     -0.02576321570827      1.30867662936831
  N   2.00668696235954     -0.01149942541100      2.39605106724575
  N   0.86306584846104      1.38944092998146     -0.51516268691492
  H   1.36645742285992      2.04474632743333      0.06668417792943
  H   1.19386875386739      1.46781761876699     -1.46714091300305
