16
Coordinates from ORCA-job run
  C   -0.44010899688824     -0.61654086156523     -0.07493908010171
  C   1.00736648285867     -0.09996728153476     -0.09975973911682
  Cl  -0.43475963833884     -2.35714662156886      0.26987746572807
  H   1.54337588751507     -0.71088523568190     -0.82915843095229
  C   -1.33636924929892      0.11666669001663      0.88759884323048
  H   -1.37648607590175      1.17333359819183      0.62154926127302
  H   -0.94666642384037     -0.00281542103682      1.90005724385275
  H   -2.34626065812429     -0.28671877858381      0.84663862021487
  N   -0.94433572417381     -0.45521358795334     -1.51133580700818
  O   -0.19511695640610     -0.84734274654987     -2.39675355297123
  O   -2.05506747947429      0.03492173143083     -1.66646326371358
  C   1.62856096135595     -0.28621101453597      1.21955239263654
  N   2.12744974751499     -0.35459560211330      2.28102043868926
  N   0.99210313231786      1.28150455590683     -0.55340450520301
  H   1.80684025573579      1.48198804114601     -1.11724860234515
  H   0.97147473514828      1.92902253443172      0.22376871578693
