16
Coordinates from ORCA-job run
  C   -0.40884440528749     -0.58186263633989     -0.01686967290547
  C   1.08422450801541     -0.16635469456244      0.03283075797117
  Cl  -0.54991109164864     -2.28165977047521      0.47357366386614
  H   1.64062084627031     -0.93500340435873     -0.50905718462954
  C   -1.33162273600399      0.28010543977032      0.80592521498809
  H   -1.28751713621412      1.31723870377756      0.46887592616641
  H   -2.35957992492716     -0.06252136440476      0.70665322374903
  H   -1.03445765210827      0.22157058003775      1.85353304497307
  N   -0.80481660884597     -0.52609489665497     -1.49327984229151
  O   -1.89302948281013     -0.03742413361052     -1.77380595781413
  O   0.00796152812708     -0.98146858189662     -2.29219659839970
  C   1.51908530838494     -0.18184857235219      1.43472199357725
  N   1.84252512531319     -0.15849697188081      2.56283049919535
  N   1.40170123255110      1.11179433850013     -0.55840361416396
  H   0.89998717790531      1.88084385609730     -0.13673017329650
  H   1.27367331127850      1.10218210835300     -1.56060128098567
