17

C	0.0	0.0	0.0
C	-0.490022	0.006368	-1.448724
Cl	1.812422	0.0	0.0
H	-0.079476	-0.874265	-1.95586
H	-1.582278	-0.103293	-1.365125
C	-0.494195	1.215583	0.754434
H	-1.593734	1.174571	0.704875
H	-0.126477	2.143037	0.308606
H	-0.166294	1.180994	1.797354
C	-0.484921	-1.268424	0.672911
H	-1.58445	-1.21885	0.663297
H	-0.143763	-2.15404	0.128059
H	-0.121867	-1.329028	1.703124
N	-0.197279	1.191994	-2.246729
H	0.759082	1.48458	-2.08102
H	-0.806636	1.940504	-1.941964
H	-3.387485	0.0	0.0
