17

C	0.0	0.0	0.0
C	-0.490023	-0.006372	-1.448725
Cl	1.812422	0.0	0.0
H	-0.079479	0.874262	-1.955863
H	-1.58228	0.103287	-1.365124
C	-0.484922	1.268425	0.672909
H	-0.121868	1.329031	1.703122
H	-0.143765	2.154041	0.128056
H	-1.58445	1.218849	0.663294
C	-0.494195	-1.215581	0.754436
H	-0.166296	-1.18099	1.797357
H	-1.593732	-1.174569	0.704878
H	-0.126477	-2.143036	0.308611
N	-0.19728	-1.191998	-2.246728
H	-0.806636	-1.940508	-1.941961
H	0.759081	-1.484585	-2.081021
H	-3.387478	0.0	0.0
