17

C	0.0	0.0	0.0
C	-0.335632	-9e-06	-1.516553
Cl	1.809149	0.0	0.0
H	0.158713	0.877696	-1.950494
H	0.159126	-0.877449	-1.950578
C	-0.512895	1.244889	0.691531
H	-0.169016	2.148009	0.178985
H	-1.608883	1.201501	0.680959
H	-0.170515	1.281188	1.7294
C	-0.512869	-1.244912	0.691508
H	-1.608855	-1.201528	0.680969
H	-0.170455	-1.28124	1.729363
H	-0.169002	-2.148016	0.178925
N	-1.723074	-0.000351	-1.917651
H	-2.227388	0.77488	-1.497439
H	-2.226868	-0.776043	-1.497758
H	-3.782617	0.0	0.0
