14

C	0.0	0.0	0.0
C	-0.518854	-0.060363	-1.450032
F	1.369008	0.0	0.0
H	-1.628479	-0.031079	-1.362993
C	-0.362159	1.320532	0.595824
N	-0.570482	2.370768	1.079907
N	-0.477198	-1.139142	0.699048
H	-1.502908	-1.120383	0.649984
H	-0.207888	-1.07014	1.674282
C	-0.096505	-1.309119	-2.085444
N	0.227769	-2.293904	-2.635985
C	-0.047527	1.082112	-2.23166
N	0.326978	1.99508	-2.867672
Br	-3.585055	0.0	0.0
