14

C	0.0	0.0	0.0
C	-0.52563	-0.265213	-1.42452
F	1.369188	0.0	0.0
H	-1.634507	-0.211052	-1.333049
C	-0.370116	1.385237	0.408621
N	-0.580025	2.483774	0.769251
N	-0.473071	-1.031492	0.854578
H	-1.498925	-1.026324	0.805755
H	-0.205427	-0.822081	1.810239
C	-0.12218	-1.598095	-1.873333
N	0.192423	-2.653641	-2.279184
C	-0.045119	0.747547	-2.363395
N	0.341109	1.556624	-3.121551
Br	-3.588947	0.0	0.0
