14

C	0.0	0.0	0.0
C	-0.425769	-0.320919	-1.480009
F	1.369634	0.0	0.0
H	0.542047	-0.395762	-1.994901
C	-0.352077	1.399292	0.371209
N	-0.456029	2.506457	0.75266
N	-0.445656	-1.004169	0.891987
H	-1.473197	-1.021694	0.838306
H	-0.185069	-0.742601	1.837879
C	-1.150005	0.748079	-2.174908
N	-1.522286	1.637933	-2.845222
C	-1.060976	-1.630019	-1.651898
N	-1.421023	-2.71612	-1.914571
Br	-3.404431	0.0	0.0
