14

C	0.0	0.0	0.0
C	-0.417543	0.341646	-1.475539
F	1.373432	0.0	0.0
H	0.555	0.444836	-1.976344
C	-0.355722	1.100438	0.938389
N	-0.412349	1.961256	1.737511
N	-0.436588	-1.298219	0.366442
H	-1.463737	-1.289946	0.31739
H	-0.171375	-1.467474	1.331591
C	-1.086896	1.632783	-1.658542
N	-1.44815	2.721825	-1.910442
C	-1.099688	-0.74302	-2.187255
N	-1.486447	-1.60128	-2.889173
Br	-3.388648	0.0	0.0
