16
Coordinates from ORCA-job run
  C   -0.37937376670125     -0.29748578712677     -0.34572446598974
  C   0.73084218236222      0.40760706577504      0.43391868009424
  F   0.19147060547326     -1.26183895567942     -1.12201453405917
  H   0.26935809743862      1.23975681897726      0.97135714707021
  N   -0.95717633052701      0.75488674685110     -1.28156275032160
  O   -0.92640422853189      0.53660835546350     -2.48125792410811
  O   -1.43257720700709      1.73428261482565     -0.71664967151603
  C   -1.49607008272914     -0.88685079176980      0.47342291944832
  H   -2.23575945092212     -1.32631190090739     -0.19833230369447
  H   -1.09755176630934     -1.67176179947071      1.11738564765653
  H   -1.97254516423375     -0.11731177145823      1.07992389956038
  N   1.68391760104920      0.94536607913356     -0.51657019076878
  H   2.34420274165550      1.55715417212462     -0.05491466995129
  H   2.19536564545781      0.19609399281092     -0.96633159544033
  C   1.29566813450047     -0.53451442809024      1.41986333720064
  N   1.78563298902449     -1.27568041145910      2.18848647481921
