16
Coordinates from ORCA-job run
  C   -0.46254120735253     -0.52305273725222     -0.23954509797813
  C   0.88587078318220     -0.25123347638130      0.44313725242419
  F   -0.46459986714405     -1.82957161566103     -0.62549995161816
  H   0.97976317512772     -1.06535088211946      1.17023642136901
  N   -0.56014583924068      0.30255482869618     -1.51575485432791
  O   -0.96177152062354     -0.25008068888162     -2.52718125665634
  O   -0.25745615473704      1.48819105584472     -1.39546327426623
  C   -1.66767794372167     -0.22297556563624      0.60901270303162
  H   -2.56410818467626     -0.51492173962692      0.05834464073740
  H   -1.60708930286373     -0.80586012057528      1.52942671967653
  H   -1.70258465972313      0.83351181599634      0.86413282970800
  N   0.89712892359817      1.00041944579883      1.17290665686432
  H   0.92605602674465      1.77605007607838      0.52327490301822
  H   1.71476010861174      1.04182644246760      1.76827426515903
  C   1.97684316421006     -0.42397651647553     -0.53949757470474
  N   2.86755249860807     -0.55653032227243     -1.29380438243679
