16
Coordinates from ORCA-job run
  C   -0.33834606956331     -0.23660561588769     -0.42606393814393
  C   0.67507858966590      0.35032381743979      0.55694656626810
  F   0.34496577884270     -0.94010752362485     -1.37300422364715
  H   0.12113973614038      0.99178711446917      1.24692169698268
  N   -0.97647217461141      0.95789793041810     -1.12111627234873
  O   -0.88342151773666      1.03398021108330     -2.33492331130888
  O   -1.55897365886071      1.73369644209793     -0.37065096370301
  C   -1.42467293535112     -1.09159136638382      0.16913102035870
  H   -0.97902247190215     -1.97128322082445      0.63524096462317
  H   -2.09529072633064     -1.41850565649200     -0.62773653324978
  H   -1.99207104606961     -0.52840927579353      0.90944186249695
  N   1.60795910351523      1.17257593891481     -0.18783054174587
  H   2.19147340762955      1.71087558072242      0.43908656256904
  H   2.20276033737816      0.59473661453489     -0.76873187131376
  C   1.28839743037222     -0.74999576859547      1.32620882547410
  N   1.81649621688146     -1.61037522207861      1.92708015668837
