16

C	-0.630739	0.055046	-1.398493
C	0.027639	-0.211285	-0.045708
Br	-0.451535	-1.535803	-2.558803
H	1.053716	-0.56224	-0.229942
H	-1.709742	0.156066	-1.249249
C	-0.057483	1.259483	-2.1171
H	-0.489809	1.363171	-3.115101
H	-0.280734	2.147297	-1.524158
H	1.029315	1.187415	-2.184316
N	-0.696503	-1.276852	0.644442
H	-1.530078	-0.849367	1.039967
H	-0.129292	-1.586084	1.426469
N	0.005927	1.052575	0.681166
H	0.917196	1.541074	0.446608
H	0.130132	0.818654	1.664113
H	2.491705	1.930443	0.189381
