16

C	-0.454485	-0.031282	-1.573587
C	0.175787	0.028741	-0.191945
Br	-2.428206	-0.029418	-1.484688
H	1.261587	0.093047	-0.385409
H	-0.223068	0.911173	-2.073138
C	-0.018192	-1.225682	-2.402236
H	-0.382196	-1.152639	-3.429412
H	-0.398626	-2.154286	-1.973216
H	1.076246	-1.268336	-2.418397
N	-0.140246	-1.125846	0.638521
H	0.230436	-1.965024	0.195778
H	0.477555	-0.960129	1.455859
N	-0.151425	1.262809	0.491267
H	0.509239	1.26097	1.280208
H	-1.071662	1.118957	0.900947
H	1.85394	0.034881	2.234856
