16

C	-0.487923	-0.028884	-1.569113
C	0.201804	0.021111	-0.214666
Br	-2.459275	-0.135828	-1.343785
H	1.27212	0.08984	-0.449312
H	-0.347338	0.934603	-2.061709
C	-0.042576	-1.192979	-2.428382
H	-0.218453	-2.126503	-1.896271
H	1.035324	-1.100787	-2.600423
H	-0.553468	-1.204434	-3.393976
N	0.048114	-1.226666	0.520012
H	-0.89139	-1.236236	0.910064
H	0.688969	-1.09344	1.320542
N	-0.109367	1.255599	0.493815
H	-1.052958	1.167433	0.863322
H	0.523483	1.212048	1.306888
H	1.801136	0.096214	2.362805
