16

C	-0.357496	0.042863	-1.500783
C	0.008673	0.15608	-0.022512
Br	-2.29776	-0.307547	-1.749131
H	1.091867	0.378545	-0.046326
H	-0.225968	1.018212	-1.979978
C	0.438076	-1.032673	-2.211814
H	0.355413	-0.934395	-3.297617
H	1.481601	-0.981145	-1.878662
H	0.082967	-2.022348	-1.922577
N	-0.087193	-1.057918	0.740998
H	0.847789	-1.505107	0.656284
H	-0.8118	-1.663572	0.373221
N	-0.768631	1.224189	0.624188
H	-0.700309	1.024523	1.615185
H	-0.313159	2.116818	0.459018
H	2.59986	-1.460913	0.185393
