16

C	0.0	0.0	0.0
C	-0.487527	-0.216821	-1.432781
F	1.401181	0.0	0.0
H	-0.190532	-1.213266	-1.775554
H	-1.585743	-0.169839	-1.416322
C	-0.454451	1.340775	0.536835
H	-0.074267	2.149954	-0.091878
H	-1.546343	1.369051	0.558068
H	-0.064686	1.476599	1.548967
C	-0.462203	-1.148359	0.87214
H	-0.102257	-1.000019	1.893567
H	-1.554375	-1.184239	0.873302
H	-0.057712	-2.092557	0.495862
C	0.054983	0.768418	-2.364392
N	0.507838	1.548226	-3.115614
Br	-3.963399	0.0	0.0
