16

C	0.0	0.0	0.0
C	-0.297653	-0.00349	-1.556423
F	1.401022	0.0	0.0
H	0.098173	-0.919889	-1.976373
H	-1.381091	-0.071899	-1.738962
C	-0.317138	1.325637	0.781214
H	0.091481	2.175224	0.249659
H	0.019802	1.210758	1.805806
H	-1.374296	1.536301	0.865316
C	-0.312455	-1.36005	0.722521
H	0.058702	-1.308237	1.739573
H	-1.370126	-1.562422	0.823617
H	0.069896	-2.184426	0.130651
C	0.120173	1.193799	-2.211748
N	0.393404	2.197368	-2.757285
Br	-2.435338	0.0	0.0
