17
Coordinates from ORCA-job run
  C   -0.64214571693917     -0.52284501473908     -0.13507614055635
  C   0.52624838435187      0.36801537337971      0.35421065200862
  Cl  -0.30007107607548     -0.90249884677165     -1.91246667531466
  H   0.43153695030544      0.40360410599517      1.44386100485387
  N   -0.76347903619980     -1.68091764226995      0.66987965821581
  H   -1.43954369784317     -2.32417143316175      0.27717740607069
  H   0.12323230917464     -2.14538826985528      0.81950847513560
  N   -1.86405501747395      0.24985255314503     -0.11498671347991
  H   -2.37370699749705      0.00584803421645      0.72528997587454
  H   -2.43556091315484      0.06615313821560     -0.92689957198411
  C   0.55264052067693      1.75388544372388     -0.24439133970955
  H   0.63049861734375      1.71028237052573     -1.32940963130738
  H   -0.36676282626236      2.26726718598926      0.02694826922156
  H   1.40945513143864      2.30820652659735      0.13971902079482
  N   1.84126103545868     -0.33597662557948      0.12212146714070
  O   2.62624493937911      0.14128228225789     -0.68863538479735
  O   2.04220739331677     -1.36359918166888      0.77414952783312
