17
Coordinates from ORCA-job run
  C   -0.75220535286335     -0.43838891321109      0.20242872947236
  C   0.60898965754442      0.23415317213326      0.45368750941178
  Cl  -1.74853416088955     -0.07553626156520      1.71427586309622
  H   1.00693535928310     -0.13258396490337      1.40078744575560
  N   -1.45682079023707      0.18042257440978     -0.87938458389855
  H   -2.40438394367464     -0.17185055590044     -0.93693126594248
  H   -0.96091696187377     -0.01781362228882     -1.74184752176095
  N   -0.54402846952144     -1.83653651501199      0.03352741715020
  H   -0.07683058164932     -2.25794937482336      0.82833818252446
  H   -1.41833145543940     -2.31920251752206     -0.13271959054071
  C   0.59079616355946      1.74631511904199      0.40010427897539
  H   -0.08320288558726      2.12986695135609      1.16529728284108
  H   0.24297317720352      2.08530968907368     -0.57276389038106
  H   1.59421902258540      2.13452546397308      0.58835927670101
  N   1.56355674004235     -0.28978802083878     -0.58192372139205
  O   1.36345328489592      0.04344076458837     -1.74819134676993
  O   2.47633119662161     -1.01238398851113     -0.19204406524236
