17
Coordinates from ORCA-job run
  C   -0.74207921435477     -0.40284648169723     -0.14753744629580
  C   0.62438852519776      0.17479190520021      0.24863750605187
  Cl  -1.64891419820589      0.79295198718613     -1.20100552476387
  H   0.97954133169660     -0.46110166477043      1.06301104227315
  N   -0.59046546709000     -1.67663420191132     -0.76461233751108
  H   -0.11519157028703     -1.59628492354205     -1.65542540566888
  H   -1.50035101465651     -2.09635325032957     -0.91363548703766
  N   -1.50210087732814     -0.48651246251796      1.08361986611988
  H   -1.29808351398371     -1.37891480117965      1.52063751433080
  H   -2.49417436432707     -0.42559493694861      0.89591134888463
  C   0.61347954825459      1.62750241080914      0.68656946478637
  H   0.45514131281944      2.28748966687517     -0.16622362755370
  H   -0.19480923828756      1.76829445558321      1.40268393620489
  H   1.56600565778724      1.87219788707758      1.15811465241203
  N   1.67647644145313      0.01956809378594     -0.81122646066419
  O   1.33513062333091     -0.02129422581632     -1.99282318499761
  O   2.83600601798101      0.00074054219578     -0.40869585657082
