17
Coordinates from ORCA-job run
  C   -0.75379076821929     -0.44334884270213      0.18574680679009
  C   0.60316627955063      0.22638155975550      0.46516450378334
  Cl  -1.76725566252378     -0.11070772961478      1.69323199753175
  H   0.99186891052030     -0.15832724496566      1.40898253887629
  N   -1.44760814040231      0.19474244567702     -0.89188235689749
  H   -2.39472224805303     -0.15583605133402     -0.96483857722095
  H   -0.94324817448837      0.01194676772225     -1.75282830127904
  N   -0.54140006762321     -1.83766459361274     -0.00763992761046
  H   -1.41294970386503     -2.31817866706836     -0.19341555794020
  H   -0.08276103643015     -2.27362502876334      0.78431626765799
  C   0.58351966895464      1.73920140223673      0.43942560060925
  H   1.58466219480885      2.12495791037043      0.64406393498680
  H   -0.09821419282714      2.10824443137635      1.20490121204726
  H   0.24444300265449      2.09501246926122     -0.53053377230140
  N   1.57031867967426     -0.27639929050373     -0.56974328918680
  O   2.48066113474820     -1.00386425532283     -0.18331133704051
  O   1.38231012352095      0.07846471748808     -1.73163974280592
