17
Coordinates from ORCA-job run
  C   -0.73521237193045     -0.49293864887874      0.20843257177928
  C   0.62608006380624      0.17029501095998      0.45414199826091
  Cl  -1.64730984767372     -0.19542255896130      1.80661658533812
  H   0.97206360798373     -0.15347810800867      1.43469679361057
  N   -1.42457169923541      0.06983686985354     -0.89193171003978
  H   -1.62549017625149      1.05379765409256     -0.76858012553137
  H   -2.28925160337288     -0.42703660910955     -1.06516122418091
  N   -0.58055489476909     -1.92055057167864      0.13373283077346
  H   -1.44025361123795     -2.38862366943185      0.38836597692681
  H   -0.31684301182636     -2.16368166053790     -0.81396369441446
  C   0.63948549799508      1.68441376499950      0.33380456958918
  H   0.45151965092519      1.98700430759453     -0.69851587274483
  H   1.61478976497202      2.06699750354306      0.63460533823354
  H   -0.11792004004597      2.11953957324290      0.98723239491324
  N   1.68225841054853     -0.35770451530168     -0.48484473819915
  O   1.35362256737892     -0.84134879720938     -1.56445708373306
  O   2.83758769273363     -0.21009954516837     -0.09517461058154
