17
Coordinates from ORCA-job run
  C   -0.59281033018842     -0.65698852191204     -0.09629079075553
  C   0.70854696676900      0.04403174709197      0.31371149119693
  Cl  -0.02135727263631     -2.34344808334080     -0.80034196120719
  H   1.17859374518571     -0.55503270591248      1.09389016478138
  N   -1.35810843977531     -0.88181415111053      1.08054164294650
  H   -1.00597219776194     -1.67327539590292      1.60218603479584
  H   -2.33437122641919     -1.03198922062643      0.86191478981906
  N   -1.33730856937424      0.06749203736421     -1.04205327306038
  H   -0.75237324538993      0.35294084531148     -1.81706776460436
  H   -2.11910727983877     -0.47447667399915     -1.38843875225096
  C   0.47792402627378      1.47522499670912      0.76654254604951
  H   1.41597754554695      1.90521786006226      1.12488868162583
  H   -0.25084342755798      1.47194676310568      1.57563845412616
  H   0.09249594996647      2.08006863268451     -0.05279191487197
  N   1.71074315669583      0.05457850436542     -0.79868236882358
  O   1.35931123844811      0.55211993656508     -1.86937892210446
  O   2.82865936005626     -0.38559657045539     -0.55426805766264
