17
Coordinates from ORCA-job run
  C   -0.66765659770491     -0.51406137364645     -0.12614153365311
  C   0.54896267039960      0.33253957307011      0.29010231731118
  Cl  -0.70607972690099     -0.72752605762821     -1.93821223824171
  H   0.46501749800229      0.43854075665280      1.37329921799158
  N   -0.52207245662547     -1.83480680201615      0.41572469142324
  H   -0.62562426667373     -1.79951692513951      1.42375462659518
  H   -1.20672360031913     -2.46757835723014      0.02189608931347
  N   -1.84246336422711      0.16573705403798      0.34473907919626
  H   -1.99414461573533      1.03325559404649     -0.15690916494373
  H   -2.65273759565004     -0.42403013620595      0.19169840876781
  C   0.68136294700727      1.68311281858807     -0.38173759319244
  H   1.57818498375990      2.18806750842986     -0.01769210395841
  H   -0.17382994624604      2.31533942598040     -0.13556080198818
  H   0.75908521675598      1.57289646150218     -1.46143311534317
  N   1.80569264614122     -0.45889103549710      0.09558202406685
  O   2.26587121099622     -1.01233256112074      1.09145221813839
  O   2.28815499702027     -0.49074594382362     -1.03256212148320
