17
Coordinates from ORCA-job run
  C   -0.61388885768415     -0.73523343881916     -0.14274655624999
  C   0.68430788872115     -0.01660143865568      0.27917532612092
  Cl  -0.04800891853825     -2.40554198898125     -0.72742544091359
  H   1.15307394523472     -0.61380820151668      1.06187794609833
  N   -1.50168990518783     -1.01374977014617      0.94912581677929
  H   -1.05893968338933     -1.55948456891283      1.67596387507815
  H   -1.88154555114519     -0.15070437463168      1.31604501693212
  N   -1.34112104235574     -0.00401345542957     -1.09875270244707
  H   -0.77931520272234      0.22999722450372     -1.90635317836683
  H   -2.17236215215265     -0.51672802345235     -1.36331860067572
  C   0.46150362661781      1.41908952196238      0.72290560265300
  H   0.03600331028557      2.00909745972727     -0.08697044554614
  H   1.41005642021757      1.85983385781992      1.03763582875922
  H   -0.22034030599582      1.44630541097376      1.57377628822213
  N   1.70021428634380     -0.00007445711592     -0.82369480710438
  O   2.81649374778304     -0.43856616398498     -0.56615423818598
  O   1.35755839396758      0.49018240665925     -1.90008973115335
