17
Coordinates from ORCA-job run
  C   -0.55309767051918     -0.78679572645389     -0.07177929391323
  C   0.68994170137955      0.05335824876886      0.30726380407811
  Cl  0.10699495960073     -2.43203418513792     -0.57843011091860
  H   1.18288094267348     -0.41934411805142      1.15862612678810
  N   -1.37850626255858     -0.86317768268319      1.08259640791483
  H   -0.90802647408170     -1.32982370301073      1.84777921004542
  H   -2.21918402349441     -1.37753728829184      0.84571948476728
  N   -1.37410257811059     -0.33270331348710     -1.14952210383164
  H   -0.82201863933410     -0.18256542348800     -1.98365013721638
  H   -1.82885009333880      0.53121815158468     -0.87901263235560
  C   0.35299420372839      1.50594724668447      0.58990137040532
  H   -0.39450735091942      1.55869789199371      1.38048230566400
  H   1.24921806973829      2.04202796131671      0.90946511008949
  H   -0.03347082428056      1.98931557036870     -0.30770262792434
  N   1.71697722218826      0.01270412371863     -0.77895853335768
  O   2.83809844586932     -0.38900926354332     -0.48308147663986
  O   1.37365837145932      0.41772150971165     -1.88969690359516
