17
Coordinates from ORCA-job run
  C   -0.76060067352969     -0.54576078813685      0.19517413014984
  C   0.56438437910215      0.21202197580547      0.45914721287655
  Cl  -1.78543470442511     -0.15717369710365      1.69484117613638
  H   0.97148512336818     -0.11064702427073      1.41829140965551
  N   -1.55070752193242     -0.14169454190657     -0.92723729655229
  H   -1.90278843164452      0.79907432240804     -0.81561320830347
  H   -0.98057998702056     -0.20061789754786     -1.76414622676601
  N   -0.48058296844822     -1.91761669546201      0.04639820052372
  H   0.02063725416472     -2.31308267811156      0.83085735566633
  H   -1.33294868909440     -2.43095748766268     -0.13608232675072
  C   0.47143040979846      1.72041217470949      0.37299760963085
  H   -0.22827274514824      2.09572954585312      1.11919122689555
  H   0.14667611429699      2.02729456567087     -0.62056210238035
  H   1.45039673314555      2.16428625523391      0.56447240155734
  N   1.55422585488927     -0.27668765902063     -0.55696950488777
  O   1.37125493584320      0.06438115462567     -1.72466575879167
  O   2.47042491663463     -0.98896152508404     -0.15609429865979
