17
Coordinates from ORCA-job run
  C   -0.48306387305725     -0.83435868939585      0.00873492704609
  C   0.67694855389166      0.14545114405125      0.30706081984630
  Cl  0.32185153111233     -2.46253958342088     -0.30427988815233
  H   1.18925707491017     -0.18720906071491      1.21158716715145
  N   -1.32326766492441     -0.85431982072531      1.15568523459589
  H   -0.83122750638294     -1.19796475671771      1.97094590786542
  H   -2.11281421713280     -1.46117740789757      0.96577633202957
  N   -1.31676159567917     -0.57123601942430     -1.12150936444538
  H   -1.85210095979741      0.27139223846353     -0.94906867736360
  H   -0.76147574356353     -0.45938270750737     -1.95955467192125
  C   0.21327123146759      1.58600318061785      0.42302582773706
  H   -0.55301062081650      1.66039726626389      1.19362399296944
  H   1.05433495241451      2.22828216514651      0.69272361550640
  H   -0.19280291010078      1.93313791166992     -0.52736442524200
  N   1.72673110547590      0.07444881094317     -0.75572338684399
  O   1.37393689535680      0.32300167826607     -1.90879862858794
  O   2.87119374682585     -0.19392634961827     -0.40386478219114
