17
Coordinates from ORCA-job run
  C   -0.49674281190522     -0.85941131372590     -0.07013803258150
  C   0.73846462092467     -0.00117385781386      0.29386615191986
  Cl  0.14150534581776     -2.47156244572915     -0.54542920501452
  H   1.27988933303279     -0.52839993186546      1.07748754383343
  N   -1.23523992953901     -1.03673312505954      1.16068503526261
  H   -1.92766583647911     -1.76137164067244      1.00208955513323
  H   -1.74096244030136     -0.18172331170234      1.37100663172449
  N   -1.33771891383057     -0.41465485139116     -1.15032202745394
  H   -0.79195374860930     -0.24053461328130     -1.98629240744695
  H   -1.80349227322174      0.44705998060027     -0.88938945335010
  C   0.39278587306416      1.41878474335838      0.70577505853970
  H   -0.15671840008208      1.93484971571103     -0.08234668008012
  H   1.30852383623326      1.98015541372563      0.90241439909339
  H   -0.19113034607981      1.41352040278505      1.62713724036458
  N   1.69673574838812      0.07076577234544     -0.85300820297808
  O   1.29487152073522      0.59312642867820     -1.89422150088892
  O   2.82984842185220     -0.36369736596289     -0.66931410607715
