17
Coordinates from ORCA-job run
  C   -0.59773964560813     -0.74956205644512     -0.10357948872511
  C   0.69683900099994     -0.00200311599924      0.29689181902632
  Cl  -0.04123434536192     -2.39881846843326     -0.70962332936933
  H   1.17512199670287     -0.54677549295960      1.11281936581378
  N   -1.40836596505189     -0.84216279081777      1.06039450124606
  H   -0.95341267761661     -1.37617344621732      1.79014353338044
  H   -2.28050672254426     -1.29496058459737      0.81168200948191
  N   -1.40798037441367     -0.19118494312679     -1.13977199596392
  H   -1.80937221717876      0.67993904011733     -0.81367388852631
  H   -0.86093625060290     -0.02524012366386     -1.97422619332737
  C   0.44719370905510      1.44974633917471      0.66214374862211
  H   0.07861616139926      2.00240527377608     -0.20236235121010
  H   1.37632478499743      1.91598116508717      0.99688699369312
  H   -0.28673075815376      1.50138286022917      1.46543357597272
  N   1.70310021762567     -0.04182820735181     -0.80872484469042
  O   2.80307724318263     -0.52348743632390     -0.55600004356562
  O   1.36700584256901      0.44274198755153     -1.88943341185825
