17
Coordinates from ORCA-job run
  C   -0.69842985863840     -0.55945475602946     -0.14744369749081
  C   0.51186580361430      0.29662540192469      0.31397704820520
  Cl  -0.42641669980737     -0.94934628077502     -1.92471230023799
  H   0.45667138966798      0.31009458020433      1.40578052357133
  N   -0.88152182552020     -1.82117811770387      0.50791507289215
  H   -0.06192400610134     -2.40484956775573      0.40431930851114
  H   -1.03201837428684     -1.64847214698321      1.49626492686709
  N   -1.87886423995457      0.19554039604931      0.08495118898740
  H   -1.93348514717309      1.01081250480796     -0.51053174165632
  H   -2.67585891569732     -0.40352798291068     -0.09823968086441
  C   0.56352827135643      1.70128271026927     -0.24569382039709
  H   -0.26446835835803      2.28184897226372      0.16294209109730
  H   0.51667237900021      1.69523912688104     -1.33408270139154
  H   1.49244641073183      2.19001989351968      0.04861130080261
  N   1.78769735292839     -0.43880679688480      0.01568179652404
  O   1.99782916470445     -1.45561420465010      0.67954040269940
  O   2.52627665353360     -0.00121373222713     -0.86027971811950
