17
Coordinates from ORCA-job run
  C   -0.44249604438632     -0.84959636888154     -0.07780081199171
  C   0.77390595359502      0.02151105082823      0.29022634213104
  Cl  0.15479334169080     -2.57092348948959     -0.22614165171112
  H   1.35932146830902     -0.53416665497953      1.01996412389997
  N   -1.31110088870394     -0.86625581575819      1.09116107615964
  H   -1.85286250314361     -1.72104721627816      1.11383439268773
  H   -1.94743204694047     -0.07891006175984      1.03318039081065
  N   -1.00906194791782     -0.44847470656999     -1.30938477570479
  H   -0.78615844668527      0.48076521048082     -1.62751894834610
  H   -1.97358070748894     -0.71026634735712     -1.43145468071165
  C   0.39479602874132      1.39282643128007      0.82131038128657
  H   1.29174025695040      2.00139300513884      0.94923961275284
  H   -0.27354825254627      1.92544663359744      0.14455903962314
  H   -0.08295775819789      1.27425705243778      1.79295530388776
  N   1.67545115502785      0.18187558941187     -0.89711923083476
  O   2.66046549658143     -0.54649261898135     -0.96493070800598
  O   1.36872489511472      1.04705830688027     -1.72007985593319
