17
Coordinates from ORCA-job run
  C   -0.72269947865200     -0.50700035122057     -0.24163440232521
  C   0.63782013979888      0.11693443129908      0.17571906368361
  Cl  -1.38452756891832      0.58459579350620     -1.58682248942275
  H   1.14759159662475     -0.65573869568343      0.75938230973065
  N   -0.55253973273193     -1.85235264312213     -0.62307566025109
  H   0.17744695002332     -1.96960531572049     -1.31255637956403
  H   -1.43291115526110     -2.23218886851510     -0.94647875293366
  N   -1.73253810412464     -0.48932562867390      0.77525156237811
  H   -1.97173020709760      0.44623433733927      1.07109754218928
  H   -1.44015991807524     -1.06056951578504      1.55868196357765
  C   0.52924878425256      1.41139987253080      0.94845962445440
  H   -0.03859897662425      2.15734124546699      0.39328822673123
  H   1.52165203816094      1.81732401144966      1.14243560577984
  H   0.04950105695984      1.22317260288685      1.90925062034938
  N   1.51780441449161      0.30015660030562     -1.03542423367268
  O   1.82921877613399      1.43782671973141     -1.36766722126523
  O   1.86542138503915     -0.72720459579524     -1.61990737943952
