17
Coordinates from ORCA-job run
  C   -0.67821993175005     -0.57045245793124     -0.19155051782812
  C   0.61020611425369      0.21451795168352      0.17600265447971
  Cl  -1.46928440518694      0.33014437652942     -1.58683901994219
  H   1.18139298317810     -0.45521077172325      0.82442631776508
  N   -0.50333913789350     -1.91944963997903     -0.64352955447282
  H   0.09432662679019     -1.95326417147075     -1.45888997905064
  H   -0.06473999752725     -2.45112622989142      0.10092916694167
  N   -1.49508580251380     -0.63236219350107      0.96909875969570
  H   -1.84772373113390      0.27695788824317      1.23577004832072
  H   -2.27691485859807     -1.24614420785245      0.76979369805902
  C   0.38499338852214      1.55504948212294      0.84002927897654
  H   1.33332258800951      2.07764126809333      0.96590659119751
  H   -0.27061524025329      2.18711893791363      0.24200878181667
  H   -0.04520235476482      1.39785982011849      1.82989049519866
  N   1.46839509258080      0.36727947586518     -1.04795914132489
  O   1.59915125432313      1.48426281983978     -1.53746957137975
  O   1.97933741196405     -0.66482234806025     -1.48661800845287
