17
Coordinates from ORCA-job run
  C   -0.69756686682223     -0.54495363439824     -0.19695108001120
  C   0.61762748895939      0.19186596332541      0.17557929475222
  Cl  -1.46547304098731      0.40259267877803     -1.57337254519497
  H   1.17021653626437     -0.50579113115862      0.81052966977994
  N   -0.56872767300482     -1.89185958852827     -0.67055214464273
  H   -0.14473679553910     -2.44898017428468      0.06368567470703
  H   0.02457016081376     -1.93211619518799     -1.48881102662837
  N   -1.51037219319127     -0.59859087160156      0.96702404787007
  H   -1.83198137407593      0.31723893170715      1.25004817064147
  H   -2.31256005099711     -1.18370609657243      0.76246130115856
  C   0.43972118566214      1.52839042952648      0.86186484698901
  H   -0.19575133473384      2.19200752747170      0.27650663776244
  H   0.00759545916774      1.36986617742870      1.85067032660393
  H   1.40581017364069      2.01609014233192      0.99284771287852
  N   1.47398857443041      0.33631237507290     -1.05044436678991
  O   1.94784454689107     -0.70473423084418     -1.50910804008431
  O   1.63979520352202      1.45636769693371     -1.52197847979166
