17
Coordinates from ORCA-job run
  C   -0.62035330510912     -0.63570780611156     -0.05217276254311
  C   0.71683399702632      0.02996083472041      0.29618662576457
  Cl  -0.13292852881764     -2.37552657312828     -0.68680453286414
  H   1.18014106582564     -0.55028244709835      1.09443329020549
  N   -1.36673832532414     -0.77368609645823      1.14986439713741
  H   -1.03399784021017     -1.55332232833397      1.70126743616433
  H   -2.35277095645463     -0.89578844147158      0.95912820556157
  N   -1.35687537601399      0.07320494434371     -1.01602434807942
  H   -0.77940393675906      0.29496192752787     -1.81703243776145
  H   -2.16854359738846     -0.45158868768970     -1.31723436856880
  C   0.55384237335613      1.48926588623021      0.68430200413006
  H   0.17318444022395      2.06949580499423     -0.15480457103231
  H   1.51630147426025      1.89711988041014      1.00139326493821
  H   -0.15507160156345      1.55408541465555      1.50833072761125
  N   1.69310541793853     -0.05294258771932     -0.83603263896851
  O   1.33737270617197      0.40691772722934     -1.92201177966065
  O   2.79790199283784     -0.52616745210048     -0.59378851203452
