17
Coordinates from ORCA-job run
  C   -0.50011338226102     -0.85762447122144     -0.06817390149120
  C   0.73975823954949     -0.00442452906731      0.29334327762124
  Cl  0.13195952598316     -2.47488970409697     -0.53908676510705
  H   1.27616682652133     -0.53001156573396      1.08154469887736
  N   -1.23960962937310     -1.03081638549433      1.16161961178416
  H   -1.72499409085995     -0.16774837417689      1.38539747259152
  H   -1.94583141799806     -1.74132243682191      1.00077902413622
  N   -1.33726960364217     -0.40994939975258     -1.14891444685322
  H   -0.78878192023737     -0.21326305027059     -1.97783900676563
  H   -1.82847759081385      0.43371112891092     -0.87775678830369
  C   0.40034912589808      1.41982357641973      0.69608070423467
  H   -0.15412996659663      1.93036195340364     -0.09199316351023
  H   -0.17709771075720      1.42295395489514      1.62163820444344
  H   1.31828467612170      1.98116172629747      0.88222320278927
  N   1.69935629181493      0.05544487547773     -0.85272282232411
  O   1.30078154346893      0.57374313221449     -1.89746807061457
  O   2.82864908318174     -0.38815043098311     -0.66767123150817
