13

C	-0.316507	-0.014259	-1.491955
C	0.0	0.0	0.0
Br	0.238617	1.675867	-2.291159
H	1.094932	0.0	0.0
H	0.309608	-0.778975	-1.948663
C	-1.721535	-0.241242	-1.811467
N	-2.855585	-0.424616	-2.060084
N	-0.376748	-1.300729	0.59613
O	-0.555941	-1.349035	1.810143
O	-0.402196	-2.274385	-0.161586
C	-0.59828	1.088941	0.732331
N	-1.075998	1.998327	1.304976
F	2.430183	0.0	0.0
