13

C	-0.298914	0.008947	-1.477632
C	0.0	0.0	0.0
Br	-2.225847	-0.117487	-1.911807
H	1.095105	0.0	0.0
H	0.00017	0.992796	-1.845996
C	0.418717	-0.996092	-2.25433
N	0.958706	-1.740265	-2.984742
N	-0.430762	-1.230162	0.684326
O	-0.471443	-2.260138	0.011693
O	-0.648712	-1.163667	1.893309
C	-0.513181	1.173732	0.665509
N	-0.881208	2.17461	1.160846
F	2.411692	0.0	0.0
