13

C	-0.508691	0.055678	-1.433606
C	0.0	0.0	0.0
Br	0.458865	-1.20388	-2.576705
H	1.091638	0.0	0.0
H	-1.553857	-0.250547	-1.503825
C	-0.345037	1.389853	-1.995748
N	-0.251369	2.455894	-2.481677
N	-0.465002	-1.243355	0.675293
O	-1.220506	-2.006989	0.068038
O	-0.051723	-1.423172	1.816949
C	-0.479995	1.123788	0.778703
N	-0.853536	2.05129	1.398744
F	2.430498	0.0	0.0
