13

C	-0.505976	-0.026802	-1.439017
C	0.0	0.0	0.0
Br	0.619493	-1.142367	-2.59325
H	1.091567	0.0	0.0
H	-1.4972	-0.479361	-1.503023
C	-0.537	1.308638	-2.020142
N	-0.59835	2.371422	-2.518756
N	-0.411584	-1.228321	0.724368
O	-0.218011	-1.243079	1.936915
O	-0.867795	-2.169753	0.070169
C	-0.489598	1.149189	0.730717
N	-0.865723	2.105882	1.30327
F	2.420616	0.0	0.0
