13

C	-0.495243	-0.001778	-1.441841
C	0.0	0.0	0.0
Br	0.545331	-1.224774	-2.565406
H	1.091599	0.0	0.0
H	-1.52293	-0.362593	-1.514431
C	-0.395632	1.32757	-2.031882
N	-0.350994	2.389125	-2.53447
N	-0.448707	-1.220321	0.717062
O	-1.032033	-2.100821	0.079426
O	-0.174602	-1.281699	1.912378
C	-0.484367	1.15169	0.732116
N	-0.867043	2.103671	1.308025
F	2.42326	0.0	0.0
