13

C	-0.340624	-0.315868	-1.451116
C	0.0	0.0	0.0
Br	0.252823	1.152674	-2.589418
H	1.10949	0.0	0.0
H	0.245785	-1.183233	-1.748747
C	-1.759981	-0.550492	-1.696011
N	-2.906988	-0.735307	-1.873655
N	-0.378421	-1.142085	0.857282
O	-0.502456	-0.938931	2.062549
O	-0.464522	-2.247257	0.31489
C	-0.582158	1.221687	0.497507
N	-1.036527	2.236195	0.879379
F	2.426529	0.0	0.0
