13

C	-0.333819	0.303699	-1.434561
C	0.0	0.0	0.0
Br	-2.261981	0.579668	-1.791798
H	1.109379	0.0	0.0
H	0.12755	1.269539	-1.65396
C	0.178333	-0.664615	-2.39779
N	0.577251	-1.36425	-3.251706
N	-0.481055	-1.305411	0.479047
O	-0.819241	-2.139583	-0.361131
O	-0.45707	-1.495689	1.692583
C	-0.425704	1.051191	0.895637
N	-0.730565	1.949446	1.590012
F	2.409038	0.0	0.0
