13

C	0.0	0.0	0.0
C	-0.234813	-0.072333	-1.536494
F	1.372954	0.0	0.0
H	0.309378	0.779612	-1.956074
H	-0.375878	-0.876222	0.511508
C	-0.494612	1.228102	0.613117
N	-0.561072	2.266137	1.164984
N	-1.613487	0.037006	-2.140297
O	-2.181327	-0.999861	-2.452626
O	-1.962382	1.174691	-2.426118
C	0.391066	-1.297487	-2.040331
N	0.939644	-2.253468	-2.445226
F	-2.263692	0.0	0.0
