13

C	0.0	0.0	0.0
C	-0.25131	-0.085687	-1.532606
F	1.373024	0.0	0.0
H	0.215372	0.804546	-1.96385
H	-0.379143	-0.86869	0.522723
C	-0.499633	1.238022	0.595035
N	-0.554351	2.288059	1.123999
N	-1.64776	-0.096155	-2.110721
O	-2.155463	-1.183224	-2.341289
O	-2.059182	0.995466	-2.483117
C	0.449979	-1.259995	-2.062599
N	1.028356	-2.175769	-2.515706
F	-2.273128	0.0	0.0
