13

C	0.0	0.0	0.0
C	-0.523234	-0.065945	-1.422446
Cl	1.829661	0.0	0.0
H	-0.120945	0.752858	-2.014339
H	-0.25483	1.008896	0.344561
H	-1.621888	-0.036209	-1.274296
N	-0.538286	-1.051991	0.793362
H	-0.350312	-0.835064	1.766613
H	-1.565133	-0.882181	0.627037
N	-0.136047	-1.309113	-2.12919
O	0.7922	-1.237602	-2.94191
O	-0.764804	-2.336282	-1.887092
F	-2.816417	0.0	0.0
