13

C	0.0	0.0	0.0
C	-0.208388	0.132079	-1.534055
Cl	1.802545	0.0	0.0
H	0.274272	1.042397	-1.888767
H	-0.338257	0.904565	0.497921
H	0.252527	-0.736891	-2.003937
N	-0.557246	-1.124534	0.643283
H	-1.598303	-0.848764	0.546907
H	-0.384649	-1.944873	0.0694
N	-1.583811	0.185469	-2.111926
O	-2.060549	-0.877418	-2.497756
O	-2.057922	1.297681	-2.318318
F	-2.687202	0.0	0.0
