13

C	0.0	0.0	0.0
C	-0.503657	-0.207485	-1.413088
Cl	1.840845	0.0	0.0
H	-0.197195	-1.17066	-1.819937
H	-0.285932	0.997185	0.323311
H	-1.60705	-0.123035	-1.256734
N	-0.539027	-0.953858	0.915059
H	-0.38759	-1.884125	0.534108
H	-1.56368	-0.731249	0.810921
N	-0.052281	0.822103	-2.370456
O	0.260136	0.458131	-3.50782
O	-0.047057	1.993929	-1.993288
F	-2.794296	0.0	0.0
