14

C	0.0	0.0	0.0
C	-0.308719	-0.09597	-1.518782
Br	1.914872	0.0	0.0
H	0.085952	0.818341	-1.967329
H	-0.397685	-0.808092	0.594462
N	-0.441562	1.293125	0.601674
O	-0.498436	2.269075	-0.135722
O	-0.573839	1.293668	1.81738
N	-1.739848	-0.169713	-2.057849
O	-2.216786	-1.281496	-2.23094
O	-2.177898	0.884566	-2.498486
C	0.368219	-1.256451	-2.11051
N	0.884721	-2.170639	-2.637359
F	-2.268349	0.0	0.0
