14

C	0.0	0.0	0.0
C	-0.544096	0.098888	-1.425945
Br	1.937777	0.0	0.0
H	-1.646707	0.310787	-1.162905
H	-0.398085	-0.871867	0.504217
N	-0.436105	1.19494	0.79482
O	-0.55955	1.027256	1.999639
O	-0.543442	2.254908	0.191601
N	-0.540123	-1.270941	-2.061329
O	0.531508	-1.874437	-2.131328
O	-1.612642	-1.68464	-2.490408
C	0.184293	0.980753	-2.316682
N	0.743698	1.647355	-3.108248
F	-2.514717	0.0	0.0
