14

C	0.0	0.0	0.0
C	-0.512984	-0.04194	-1.450131
Br	1.918624	0.0	0.0
H	0.25647	-0.531476	-2.052544
H	-0.331606	-0.891097	0.517276
N	-0.447054	1.143469	0.866519
O	-0.56208	2.24782	0.355908
O	-0.556825	0.881513	2.056925
N	-0.60082	1.329307	-2.089209
O	-1.70091	1.804339	-2.325744
O	0.481865	1.842981	-2.365026
C	-1.773491	-0.788737	-1.606149
N	-2.366304	-1.595406	-2.238707
F	-2.390466	0.0	0.0
