12
Coordinates from ORCA-job run
  C   -0.01320843754142     -0.21604036027727     -0.40215271534901
  C   -0.80961192355335      1.04489691713124     -0.12602303929209
  H   0.17765236795255     -0.33976737506385     -1.46910789228282
  H   -0.31436272165581      1.91638746688805     -0.55436187059712
  H   -1.80328109999033      0.93899700919670     -0.56085658987696
  H   -0.91140730262126      1.19087206760280      0.95276254922310
  N   -0.64068420270612     -1.37123344677876      0.12782214017949
  H   -0.75331759106162     -1.29083408695342      1.13004276754926
  H   -0.10846758090265     -2.20869109402795     -0.06793526106988
  N   1.39115716114254      0.03694138211631      0.17804123916212
  O   2.15878539837741      0.70217936571256     -0.51102091655743
  O   1.62674593256006     -0.40270784554642      1.30078958891133
