14

C	-0.444542	0.041982	-1.469424
C	0.0	0.0	0.0
Br	-2.409129	0.269134	-1.596363
H	1.097484	0.0	0.0
C	0.178026	1.107081	-2.256099
N	0.643944	1.905593	-2.982579
C	-0.131493	-1.245123	-2.09246
N	0.096498	-2.275544	-2.610924
C	-0.524218	-1.171714	0.676587
N	-0.955545	-2.132119	1.199156
N	-0.397325	1.244216	0.739059
O	-0.604609	1.13482	1.939968
O	-0.416742	2.283348	0.089959
Cl	3.043021	0.0	0.0
