14

C	-0.435849	-0.110303	-1.468547
C	0.0	0.0	0.0
Br	-2.408686	0.018593	-1.62744
H	1.115302	0.0	0.0
C	0.142225	0.904082	-2.351685
N	0.550797	1.638532	-3.174156
C	-0.062282	-1.433834	-1.969986
N	0.214684	-2.495725	-2.392778
C	-0.508708	-1.111605	0.780943
N	-0.919224	-2.04206	1.369824
N	-0.418011	1.298472	0.614975
O	-0.564155	1.310451	1.831641
O	-0.5191	2.261007	-0.138609
Cl	3.042263	0.0	0.0
