14

C	-0.456855	-0.007614	-1.474644
C	0.0	0.0	0.0
Br	0.023702	-1.76374	-2.222166
H	1.115196	0.0	0.0
C	-1.906863	0.142586	-1.599173
N	-3.073359	0.257643	-1.693187
C	0.22148	0.998103	-2.291463
N	0.700578	1.774128	-3.03275
C	-0.559796	-1.107408	0.751727
N	-1.04844	-2.000619	1.33718
N	-0.405839	1.286557	0.665317
O	-0.699195	2.228194	-0.068386
O	-0.359332	1.307082	1.88786
Cl	3.059325	0.0	0.0
