13

C	-0.554018	0.057799	-1.398668
C	0.0	0.0	0.0
F	0.090515	-0.763104	-2.249343
H	1.089099	0.0	0.0
H	-1.624839	-0.145972	-1.445665
H	-0.349767	0.843537	0.59258
N	-0.414021	1.484076	-1.908812
O	-1.024197	2.325765	-1.253729
O	0.230301	1.678223	-2.9268
N	-0.472327	-1.224642	0.699165
O	-1.084087	-2.076113	0.050236
O	-0.214696	-1.299386	1.895176
Br	3.429943	0.0	0.0
