13

C	-0.549526	0.094006	-1.395605
C	0.0	0.0	0.0
F	-1.910669	0.169477	-1.379595
H	1.089674	0.0	0.0
H	-0.143222	0.931802	-1.956389
H	-0.398366	-0.867284	0.524526
N	-0.155213	-1.152855	-2.151914
O	-0.975176	-2.064813	-2.206126
O	0.965888	-1.139471	-2.643187
N	-0.432747	1.201655	0.759892
O	-0.41331	2.280468	0.16981
O	-0.749888	1.040896	1.935025
Br	3.454625	0.0	0.0
