13

C	-0.481483	-0.054281	-1.426034
C	0.0	0.0	0.0
F	-0.090644	1.073648	-2.069669
H	1.089718	0.0	0.0
H	-0.148817	-0.937985	-1.964548
H	-0.402238	0.875328	0.505612
N	-1.995927	-0.072864	-1.45679
O	-2.568371	0.986183	-1.224892
O	-2.531388	-1.159053	-1.674097
N	-0.465106	-1.203311	0.729056
O	-0.24397	-2.293148	0.201908
O	-1.02553	-1.036707	1.81298
Br	3.429863	0.0	0.0
