13

C	-0.588026	0.125844	-1.375571
C	0.0	0.0	0.0
F	-1.927305	0.389781	-1.3117
H	1.089526	0.0	0.0
H	-0.087134	0.936327	-1.907536
H	-0.32206	0.869971	0.573364
N	-0.397014	-1.090248	-2.259171
O	-1.396398	-1.664798	-2.666543
O	0.767605	-1.348302	-2.52199
N	-0.499635	-1.180166	0.746874
O	-0.709555	-1.029147	1.94847
O	-0.63461	-2.235024	0.128198
Br	3.433761	0.0	0.0
