13

C	-0.504616	0.014185	-1.410214
C	0.0	0.0	0.0
F	-0.1429	1.190643	-2.003225
H	1.090911	0.0	0.0
H	-0.171329	-0.822277	-2.017453
H	-0.365292	0.85995	0.556021
N	-2.019632	-0.003931	-1.470038
O	-2.518163	-0.461501	-2.495095
O	-2.63499	0.498591	-0.532962
N	-0.467925	-1.211695	0.705811
O	-0.897984	-2.143409	0.018168
O	-0.374038	-1.220614	1.927283
Br	3.419029	0.0	0.0
