13

C	-0.560534	-0.036606	-1.400977
C	0.0	0.0	0.0
F	-0.422098	-1.283026	-1.922037
H	1.087644	0.0	0.0
H	-1.608254	0.260249	-1.445684
H	-0.358557	-0.891241	0.520611
N	0.167897	0.945944	-2.289359
O	0.269261	2.071432	-1.813502
O	0.520262	0.577004	-3.39925
N	-0.544256	1.15703	0.76688
O	0.186252	1.685279	1.593722
O	-1.723296	1.461077	0.564859
Br	3.483055	0.0	0.0
