13

C	-0.574753	-0.034784	-1.396071
C	0.0	0.0	0.0
F	-0.394391	-1.264199	-1.940231
H	1.088284	0.0	0.0
H	-1.634934	0.218754	-1.417782
H	-0.361423	-0.893069	0.515046
N	0.096974	0.992284	-2.27752
O	0.502299	0.647694	-3.376651
O	0.104132	2.123616	-1.803015
N	-0.561381	1.151736	0.762786
O	0.202976	1.845803	1.418937
O	-1.787777	1.291781	0.71436
Br	3.488721	0.0	0.0
