14

C	-0.570218	0.027526	-1.410742
C	0.0	0.0	0.0
Br	-2.498281	-0.118568	-1.425046
H	1.094923	0.0	0.0
H	-0.315004	0.986938	-1.857947
N	0.063555	-0.997972	-2.344412
O	-0.568138	-1.984002	-2.68782
O	1.195041	-0.682331	-2.689002
N	-0.394143	-1.248407	0.732011
O	-0.790614	-1.146174	1.887724
O	-0.230311	-2.290885	0.108264
C	-0.461932	1.176002	0.723463
N	-0.8089	2.160626	1.262104
Cl	3.109966	0.0	0.0
