14

C	-0.586164	-0.002331	-1.404999
C	0.0	0.0	0.0
Br	0.210287	-1.387755	-2.478001
H	1.089733	0.0	0.0
H	-1.660254	-0.171276	-1.39571
N	-0.378232	1.322933	-2.089825
O	-1.137247	1.552317	-3.027425
O	0.511237	2.052399	-1.672672
N	-0.483365	-1.274257	0.672684
O	-1.67299	-1.557049	0.524386
O	0.330385	-1.905988	1.329054
C	-0.550847	1.105302	0.775223
N	-0.99816	1.997534	1.395532
Cl	3.18877	0.0	0.0
