14

C	-0.443604	0.003087	-1.442303
C	0.0	0.0	0.0
Br	0.02651	1.660854	-2.295858
H	1.09596	0.0	0.0
H	0.03401	-0.803179	-1.99324
N	-1.936047	-0.211078	-1.592366
O	-2.33813	-0.445111	-2.7263
O	-2.623802	-0.147417	-0.577841
N	-0.376903	-1.305591	0.640112
O	-0.500758	-1.326312	1.856172
O	-0.461932	-2.272697	-0.113907
C	-0.488793	1.116015	0.791602
N	-0.825823	2.046902	1.423277
Cl	3.09269	0.0	0.0
