14

C	-0.455644	0.002555	-1.451344
C	0.0	0.0	0.0
Br	0.175114	1.556886	-2.366486
H	1.092817	0.0	0.0
H	-0.072115	-0.885457	-1.948325
N	-1.966954	-0.089487	-1.520657
O	-2.632179	0.933633	-1.42679
O	-2.405896	-1.238444	-1.606303
N	-0.402149	-1.324193	0.613587
O	0.026121	-2.315389	0.035867
O	-1.09105	-1.314132	1.62712
C	-0.530181	1.109024	0.775887
N	-0.919089	2.01267	1.418959
Cl	3.123368	0.0	0.0
