14

C	-0.528755	-0.048051	-1.439795
C	0.0	0.0	0.0
Br	0.126346	-1.612474	-2.408161
H	1.103028	0.0	0.0
H	-1.617828	-0.152353	-1.437055
C	-0.195392	1.15437	-2.195326
N	-0.004074	2.139307	-2.807151
C	-0.500095	-1.168464	0.719024
N	-0.953681	-2.071221	1.319474
C	-0.459211	1.283476	0.70251
H	-1.549319	1.388433	0.698828
H	-0.007546	2.14842	0.214282
H	-0.111082	1.265073	1.736542
Cl	3.276512	0.0	0.0
