14

C	-0.530242	-0.008225	-1.43959
C	0.0	0.0	0.0
Br	0.126008	-1.54344	-2.452464
H	1.103195	0.0	0.0
H	-1.619114	-0.114425	-1.43843
C	-0.201442	1.215562	-2.161811
N	-0.01752	2.217645	-2.747139
C	-0.501407	-1.186563	0.687994
N	-0.960992	-2.10182	1.263904
C	-0.457944	1.264106	0.738235
H	-0.103348	1.219244	1.76915
H	-1.548057	1.366479	0.74374
H	-0.010981	2.142546	0.270157
Cl	3.280531	0.0	0.0
