14

C	-0.532934	0.082746	-1.436003
C	0.0	0.0	0.0
Br	0.148823	-1.365886	-2.55457
H	1.106475	0.0	0.0
H	-1.619773	-0.043248	-1.441201
C	-0.231085	1.361276	-2.069726
N	-0.079738	2.410984	-2.575903
C	-0.486877	-1.235365	0.608168
N	-0.91666	-2.199543	1.123478
C	-0.464129	1.208129	0.82221
H	-0.020008	2.118685	0.416794
H	-1.554923	1.305785	0.83118
H	-0.112604	1.093686	1.84887
Cl	3.288496	0.0	0.0
