17
Coordinates from ORCA-job run
  C   -0.45767556035455     -0.19266748557008      0.41857573573928
  C   0.74984153446798      0.03212379840979     -0.52638955461042
  Br  -0.35581469740616      1.29124314931055      1.83339041902373
  H   0.78484621351982     -0.84827799123235     -1.17456803368951
  C   -1.76114120810086      0.05259439401436     -0.32091766043073
  H   -1.82519744848375     -0.64405979858695     -1.16251112492307
  H   -2.60350616235465     -0.13568939304796      0.34743304454459
  H   -1.83844332162927      1.07735105522053     -0.67776541313819
  N   -0.45190504719033     -1.48493579862241      0.96682427706946
  H   0.42253446271963     -1.73450360684229      1.40930895045443
  H   -1.23209754940931     -1.64142155066347      1.59055455502840
  N   2.03598498681119     -0.03686965571999      0.27977093879574
  O   2.67080011559243      0.99349500758063      0.44321253833069
  O   2.33076029906377     -1.14437627799387      0.73374570909902
  N   0.78154197014258      1.21391954570939     -1.31248307979742
  H   0.61203646959712      2.04447782885826     -0.76039198050759
  H   0.13943494301437      1.15759677917586     -2.08878932098839
