17
Coordinates from ORCA-job run
  C   -0.69473942518107      0.13851287042136      0.29492125700567
  C   0.56920977588628      0.64653976643577     -0.42947319237996
  Br  -1.90804373256835      1.78661646482671      0.34145601707842
  H   0.29203178476801      1.28544708761144     -1.26488917969788
  C   -1.47136824394150     -0.92159479484934     -0.46093077160018
  H   -1.67760822336901     -0.61022681997662     -1.48351673322155
  H   -2.42179301258572     -1.10598290612865      0.04266871688758
  H   -0.89562559249871     -1.85007352212430     -0.47596101637650
  N   -0.35015144102371     -0.30100863663606      1.58642605733245
  H   -1.13384618573789     -0.72815056211681      2.06237464883644
  H   0.02205795613340      0.45589150869608      2.14674397088947
  N   1.22657509354353     -0.56704283487477     -1.10213469269203
  O   2.03246210623516     -1.21431360676556     -0.43918114485635
  O   0.87949775656097     -0.81195303458891     -2.25540506375937
  N   1.45381487962370      1.29958895044702      0.46942158550901
  H   1.97251977973785      0.60295468341543      0.99244560495082
  H   2.10500672441704      1.89479538620721     -0.02396606390604
