17
Coordinates from ORCA-job run
  C   -0.60326853179407      0.20431605131832      0.33175818391631
  C   0.60004178515215      0.58896139784085     -0.55770657657814
  Br  -1.62245393436982      1.88137656127334      0.55380798938319
  H   0.24773201410803      1.06737687388934     -1.47063170682158
  C   -1.52500741418551     -0.80506758876093     -0.33737786481681
  H   -2.42200665387866     -0.94709478631970      0.26786432579899
  H   -1.82604955955237     -0.48033343765291     -1.33562449183393
  H   -1.01205070001172     -1.76766171255767     -0.41942470139545
  N   -0.11920863430222     -0.15930760557207      1.64295199098745
  H   -0.89327259475200     -0.32915606922677      2.27359039124609
  H   0.44774676421944     -0.99873899778952      1.56745455045664
  N   1.19664379128688     -0.72550874610340     -1.05130506055313
  O   1.06848271642670     -0.98959868208131     -2.24379255312199
  O   1.73771033074472     -1.44344690824519     -0.21282286331376
  N   1.61493889920747      1.33953264542235      0.08926164520237
  H   1.51845411469895      1.25917920777913      1.09461248728303
  H   1.59256760700203      2.30717179678614     -0.19261574583929
