17
Coordinates from ORCA-job run
  C   -0.56938125220277     -0.04212880050748      0.48205218638110
  C   0.66521065790040     -0.00369203520519     -0.45456757114823
  Br  -0.72673031890118      1.78290861661207      1.27118694312839
  H   0.84299873763547     -1.03283558247811     -0.78245991892967
  C   -1.82044981689424     -0.29907578299151     -0.34053039072149
  H   -1.97857355340386      0.47541710303751     -1.08507181809494
  H   -1.71431333390119     -1.25719699308856     -0.86233414722619
  H   -2.67582121418555     -0.35144053233652      0.33413457090811
  N   -0.51506761691143     -0.97735406996533      1.55788523413956
  H   -0.81360454161013     -1.89358456517061      1.24796266820284
  H   0.40432202451343     -1.03596643373201      1.97468551432425
  N   1.93126510347065      0.32186274014190      0.36365402590326
  O   2.30089073236396     -0.52713957641361      1.17539254602732
  O   2.49059658913046      1.38978405172055      0.14649254619223
  N   0.49337646913370      0.85299786846507     -1.56470061257318
  H   1.27285277369276      0.78201804982464     -2.20531619024164
  H   0.41242856016954      1.81542594208719     -1.25946558627173
