17
Coordinates from ORCA-job run
  C   -0.52474853620305     -0.11209820921509      0.46499703654744
  C   0.63050046762065     -0.03128017894141     -0.53734206974475
  Br  -0.45204420026982      1.62676287128051      1.55428764269621
  H   0.61861349936251     -0.96757404609597     -1.10586755396321
  C   -1.85256856387857     -0.07556145653972     -0.27183208684075
  H   -1.94764026364888      0.82084311879692     -0.87678899748127
  H   -1.91585049943051     -0.95533637009521     -0.91873312317977
  H   -2.67138782951252     -0.11073598248097      0.45016978706191
  N   -0.44779600430490     -1.26879792488663      1.26269690235379
  H   -1.28751732496545     -1.39428350547377      1.81191872173804
  H   0.37194230357438     -1.27855769138264      1.85297310270088
  N   2.03184740228714     -0.07272887387001      0.13430900223726
  O   2.15348727636715     -0.37607779822443      1.31740229825622
  O   2.96134130070078      0.17873883348353     -0.62663275122118
  N   0.51381764374585      1.06085580850274     -1.43237409698056
  H   1.23353088218058      1.01414290250735     -2.14069810732484
  H   0.58547244637468      1.94168850263479     -0.93748570685539
