17
Coordinates from ORCA-job run
  C   -0.77420156437623      0.24364711024183      0.17870897288013
  C   0.62858682725397      0.66136051032230     -0.30126814963208
  Br  -2.10554887267271      1.01085345969882     -1.05087242861854
  H   0.66928113897971      1.74977038218531     -0.30674258775808
  C   -1.00281739962585     -1.26167694549111      0.21845409280584
  H   -2.00966626505636     -1.45562167176983      0.59333224338308
  H   -0.29110516385718     -1.71611435302497      0.91393087182968
  H   -0.89948495737874     -1.72968291679090     -0.75947610510402
  N   -0.93234526150203      0.91610247789186      1.44794092912900
  H   -0.17663637289429      0.61507872407023      2.05527579762187
  H   -1.82211553969818      0.66878866919069      1.86516832722860
  N   0.87262314310384      0.24783421696900     -1.74292131774165
  O   1.12378568318181     -0.94242769528558     -1.93648840666043
  O   0.83388662687006      1.12309564928112     -2.60121481833228
  N   1.61633930689225      0.11444417168626      0.57923634833656
  H   1.77702325208186     -0.86092256259847      0.35553120365110
  H   2.49139541869805      0.61547077342345      0.49140502698124
