17
Coordinates from ORCA-job run
  C   -0.41389360785937     -0.01794413054256      0.53199998214382
  C   0.66803229181543      0.06023543346870     -0.56952708663239
  Br  -0.43323180690237      1.71781645846934      1.54570718208843
  H   0.56173903374333     -0.84804849456929     -1.16893628909667
  C   -1.78668346158408     -0.11507226005001     -0.12273281662640
  H   -2.00072868828952      0.74304651220278     -0.76040099774377
  H   -1.83315506439197     -1.03603118146046     -0.71399608622411
  H   -2.55862703976728     -0.15875104881998      0.64817519393788
  N   -0.11584153233620     -1.06853560160805      1.43654025374556
  H   -0.92580526266248     -1.42517974953303      1.92056805237484
  H   0.46391526204387     -1.80450656486919      1.05949261174845
  N   2.02867202438515     -0.09319313690751      0.07367590217567
  O   2.46112834546269     -1.24296160663121      0.17331055100940
  O   2.58629314943054      0.92444372252934      0.45863609622065
  N   0.70072721579800      1.19516547594696     -1.42417756467866
  H   0.56071571810101      2.05531479451121     -0.91072603958725
  H   0.03574342301325      1.11420137786295     -2.17860894485545
