17
Coordinates from ORCA-job run
  C   -0.47505411472960     -0.08983102623430      0.51171728964325
  C   0.71636199247417      0.08355523120931     -0.48120764627280
  Br  -0.59326379367469      1.58169920242865      1.57931685838804
  H   0.81941310831821     -0.87844161622370     -0.99241593992251
  C   -1.76612635808979     -0.21539294926321     -0.28045656405310
  H   -1.69966951740745     -1.07694124319379     -0.95592566640079
  H   -2.59006427916106     -0.37648316286624      0.41523023301371
  H   -1.97278250177019      0.67825100236174     -0.86595138895991
  N   -0.37972896247687     -1.18855163858721      1.42073939126975
  H   -0.65911613475630     -2.05021572089330      0.96747468081960
  H   0.55407412225281     -1.29630269839167      1.79594415418612
  N   1.99993343170876      0.22659269841042      0.30593016153736
  O   2.49066671501084      1.34249127654268      0.40407472327604
  O   2.43723320913888     -0.80259774598118      0.82650407015656
  N   0.66514960993355      1.13273746291263     -1.44149539613860
  H   0.02896528637262      0.91110102204725     -2.19306252689509
  H   0.42300818685613      2.01832990572191     -1.01641643364762
