17
Coordinates from ORCA-job run
  C   -0.42852618205481     -0.09879942277079      0.49951315207919
  C   0.62781189569511      0.08378655283755     -0.60483967132142
  Br  -0.27060885733481      1.42421110252030      1.84588892029347
  H   0.33948545318569     -0.60031421440696     -1.40587578679217
  C   -1.81048012542508      0.06097968129271     -0.11332932136701
  H   -1.90813842288987      1.02295524208295     -0.61471073401311
  H   -1.97494410743773     -0.74803295747057     -0.83089601926515
  H   -2.57582808085472      0.00603496942069      0.66273049299681
  N   -0.29717831952620     -1.37163250611968      1.09504623529766
  H   -1.09314891830368     -1.59376289017320      1.67880854083995
  H   0.55360923603773     -1.45033103004244      1.63789760326278
  N   1.98196987936463     -0.47255384461865     -0.17847172233519
  O   2.64077574363119     -1.00052446352555     -1.06656814612612
  O   2.34292934017051     -0.31133631758882      0.98582829424485
  N   0.84173512926829      1.38657157417606     -1.12559420278829
  H   0.64568336426927      2.11702990171000     -0.45672935967197
  H   0.38585297220447      1.54471862267639     -2.00869827533426
