17
Coordinates from ORCA-job run
  C   -0.59692704328258      0.20603418732261      0.34238724527749
  C   0.58876729549045      0.58502124075784     -0.57258999181622
  Br  -1.61262074328093      1.88435727462239      0.57252983687316
  H   0.21897754259380      1.05767235960442     -1.48164590339902
  C   -1.53083184056741     -0.80785694504471     -0.30266237265649
  H   -2.41663356222899     -0.94589110030611      0.31972213719811
  H   -1.01916113335885     -1.77091143960939     -0.38738733122983
  H   -1.85009642101050     -0.49003185701231     -1.29749208377121
  N   -0.08805892532916     -0.14831883254810      1.64658003789190
  H   0.47538050842467     -0.98964945333868      1.56669000770044
  H   -0.84956534875541     -0.31005601951849      2.29433704347989
  N   1.17583089456249     -0.73284518945384     -1.07061648359020
  O   1.03219737324682     -0.99927362209701     -2.26075225483735
  O   1.72740030108149     -1.44897008093188     -0.23746415966297
  N   1.61581603921379      1.33843289375424      0.05076267461933
  H   1.53540136979434      1.26840322361330      1.05825549441738
  H   1.59512369340597      2.30288336018571     -0.24165389649442
