17
Coordinates from ORCA-job run
  C   -0.42036965243123     -0.11562229955053      0.48130337754399
  C   0.72282524827299     -0.04105293802831     -0.56234440032012
  Br  -0.41469147030069      1.68911599625967      1.45972302502411
  H   0.82085401681138     -1.05330923413965     -0.96499937049357
  C   -1.76825878474141     -0.18568578756585     -0.21476424778991
  H   -2.56262291297817     -0.26460739537468      0.52984648492575
  H   -1.95993258584399      0.69956500556368     -0.81731254586541
  H   -1.79366670695716     -1.08085418965389     -0.84379926909215
  N   -0.26575852080104     -1.21462914744796      1.34055972148737
  H   0.64453262396793     -1.26461895662955      1.77813913035351
  H   -1.00385246121896     -1.27124572348106      2.02916319563119
  N   2.03852078035331      0.21310004779658      0.15446468819909
  O   2.57336454195505      1.30157684815484      0.01101296693203
  O   2.45862424310193     -0.70886748943847      0.85673241726076
  N   0.60782505161013      0.89405893233195     -1.62421825210115
  H   -0.05119032370553      0.58118540638604     -2.32128623062937
  H   0.37379691290547      1.82089092481721     -1.29322069106613
