17
Coordinates from ORCA-job run
  C   -0.61099394654682      0.08182094283957      0.30154511454742
  C   0.56948101112009      0.57018138695666     -0.57094627224442
  Br  -1.69872870195544      1.82708819326169      0.55566053281615
  H   0.16275425270609      1.02151262285948     -1.47522772825538
  C   -1.55241523184003     -0.87165882496192     -0.40559648536570
  H   -1.85332709871577     -0.47835815420688     -1.37581479676878
  H   -1.05485331889302     -1.83262752436211     -0.54908837474871
  H   -2.44937446218873     -1.02397051329401      0.19794927329640
  N   -0.15904920236816     -0.44569666317332      1.51434467929874
  H   -0.90529445774387     -0.81683236741571      2.08659462125096
  H   0.40217802591993      0.20037838584480      2.05173721155279
  N   1.30776764234614     -0.66129855914696     -1.04274967168877
  O   2.22716257999819     -1.07180243507539     -0.34270378024247
  O   0.90727528493411     -1.17531263760725     -2.08472129368743
  N   1.54106164985398      1.43608804782943      0.02274161354439
  H   2.06301177935799      0.96394950952155      0.74882490021587
  H   1.10434419401531      2.27953859013037      0.36845045647894
