17
Coordinates from ORCA-job run
  C   -0.68583953771191      0.16027984825656      0.31842842159284
  C   0.53816596979657      0.58089934327435     -0.55360377121567
  Br  -1.70509333345971      1.84229253666515      0.52172789989980
  H   0.18451023824257      1.05658662879786     -1.46760362155462
  C   -1.56229921248480     -0.85072035783132     -0.39686573726505
  H   -1.04283392484994     -1.81218043815452     -0.45837260534914
  H   -2.48093810507716     -0.99356289540383      0.17085657035954
  H   -1.80392227851896     -0.52499470984076     -1.40946047095936
  N   -0.39275973387463     -0.30471215190736      1.64499877248488
  H   0.14360496417201     -1.16468929445602      1.59802292766591
  H   0.12538561324873      0.38198483030616      2.17880030202240
  N   1.19330836690863     -0.69638562047704     -1.00255292194087
  O   1.83101564580168     -1.31050403974118     -0.14640259452975
  O   1.01145617946956     -1.06087406209454     -2.16011771281339
  N   1.55732540485638      1.38209387989264      0.04871028272530
  H   1.86253391784392      0.98634566379778      0.92819552791389
  H   1.22637982563706      2.32714083891609      0.18723873096329
