17
Coordinates from ORCA-job run
  C   -0.52970841138414     -0.27975433514678      0.35466389069627
  C   0.68024270886753      0.11760322180093     -0.50691659491725
  Br  -0.52752698707643      1.05859861210579      1.92931997577405
  H   0.81998191785776     -0.68236266960657     -1.24070109049072
  C   -1.83148292258131     -0.03036295300652     -0.38391533443767
  H   -2.67000881015020     -0.33237138494523      0.24746244686020
  H   -1.83437346416956     -0.64054647941645     -1.29129168710253
  H   -1.94631584903209      1.01395056263631     -0.65719198847505
  N   -0.45769887946227     -1.61452904654981      0.77675016043548
  H   -1.25799325843473     -1.87846996006388      1.33513391674139
  H   0.40801037646164     -1.84757833779491      1.24352748774786
  N   1.97809035283235      0.05200602453029      0.33600221821485
  O   2.64233429633360      1.07571107845640      0.42980257176992
  O   2.27269417487660     -1.03658475101786      0.82696442429010
  N   0.50986678006626      1.36374917222670     -1.14701675970588
  H   1.27063666751538      1.54944532398599     -1.78627145428158
  H   0.47325130747963      2.11149592180561     -0.46432218311945
