17
Coordinates from ORCA-job run
  C   -0.61223303466496      0.24922166944638      0.28150864670625
  C   0.65728759600392      0.52694762245310     -0.55350975969695
  Br  -1.56732119180446      1.97771264029930      0.33770166283194
  H   0.38125447047047      0.96144187699013     -1.51348861797172
  C   -1.53725120106350     -0.76136517884021     -0.38125260907497
  H   -1.76363149307179     -0.48813152660900     -1.41403894652401
  H   -1.06412476727563     -1.74754366891099     -0.37263643418492
  H   -2.47402206234753     -0.82753515365320      0.17476652264856
  N   -0.22375667549318     -0.04924501112414      1.63970086935777
  H   -1.03998959842765     -0.14691550499111      2.23116796399816
  H   0.31038712850580     -0.91314013643880      1.65125926554590
  N   1.22171256837377     -0.84010609921305     -0.93075912162936
  O   1.67330076772140     -1.52940520175522     -0.01847309038033
  O   1.15985362597938     -1.16832227113379     -2.11257443220426
  N   1.66432773431711      1.27283896888832      0.11006636941385
  H   1.49916515489414      1.26849341718938      1.10956637042509
  H   1.71504097788270      2.21705355740289     -0.23900465926100
