17
Coordinates from ORCA-job run
  C   -0.69285068740143      0.12975241923199      0.21189855891414
  C   0.66063529654509      0.55716696561584     -0.38201141501356
  Br  -2.10736290990183      0.90239487527223     -0.99532896029025
  H   0.68322009992690      1.65175472427732     -0.44933211082505
  C   -0.92802742363380     -1.36623813065044      0.28863635687080
  H   -1.88928050144798     -1.55178923454640      0.77407132767133
  H   -0.12868647526734     -1.82582029557110      0.87168829074929
  H   -0.94158934739609     -1.81673865209222     -0.69897213050421
  N   -0.74362569737963      0.70105471269490      1.51873578061933
  H   -1.55909853788285      0.37803683231308      2.02476322886183
  H   -0.76579797728007      1.71400844906542      1.48438407428587
  N   0.81306225619710      0.13741303601499     -1.82848269467996
  O   0.96825219641903      1.05029088844486     -2.63845285514318
  O   0.80883049125128     -1.06003592220760     -2.08721041583421
  N   1.71884665880313     -0.05159614913107      0.37155449099033
  H   2.60269083717092      0.40464188415614      0.18069749832485
  H   1.50178172127756      0.04470359711205      1.35636097500264
