17
Coordinates from ORCA-job run
  C   -0.60273631907915      0.20648593577068      0.33148144186201
  C   0.60470342199863      0.58649144932710     -0.55409421373770
  Br  -1.61338590397468      1.88921194582943      0.55515714869327
  H   0.25608036286957      1.06983190860010     -1.46585970126621
  C   -1.52882543991915     -0.79545809108623     -0.34290426890772
  H   -1.02146210917859     -1.76095238222614     -0.42577862043472
  H   -1.82512399016661     -0.46615828625115     -1.34108160903770
  H   -2.42848446362220     -0.93321156574598      0.25937541889718
  N   -0.12456222261466     -0.16296895009333      1.64310459926220
  H   0.43900652156935     -1.00463821154755      1.56631360271496
  H   -0.90162168704103     -0.33207141769414      2.27031864767313
  N   1.19463761743669     -0.72965448459970     -1.05123876946839
  O   1.07411709137625     -0.98502849801687     -2.24641781967142
  O   1.72494428125212     -1.45637549603583     -0.21346345478718
  N   1.62211757857836      1.32839297132402      0.09861461044795
  H   1.61297498280373      2.29539734385838     -0.18596009496139
  H   1.51862027771135      1.25070582858720      1.10343308272173
