17
Coordinates from ORCA-job run
  C   -0.48600863944216     -0.19837272083915      0.46970367824897
  C   0.72383165099456      0.15326347073479     -0.45151611418883
  Br  -0.39958661267607      1.01638000908554      2.03765344746641
  H   0.70796202190988     -0.58595541269342     -1.25816940012990
  C   -1.77764697974032      0.10550592253420     -0.27166411543384
  H   -1.81557716262705     -0.48063924404559     -1.19788586385757
  H   -1.86639711660914      1.16183674527733     -0.51761758077608
  H   -2.61985342890965     -0.17885120297379      0.35960747627041
  N   -0.53574987004713     -1.54252231752702      0.95519718966919
  H   0.37435978557767     -1.87885713045616      1.24367600402210
  H   -0.90803585690552     -2.16111114562016      0.24445567308469
  N   2.01042823161730     -0.13177604090535      0.29041999909141
  O   2.31151513960229     -1.32078238314430      0.42114467327948
  O   2.63657597756248      0.81868385877025      0.73796097042955
  N   0.81075415394542      1.46208711919724     -1.00425749858654
  H   0.68068637768673      2.17592843168929     -0.29918788809525
  H   0.15474232806072      1.58418204091629     -1.76152065049419
