17
Coordinates from ORCA-job run
  C   -0.76654345282317      0.16685262219998      0.32524906202725
  C   0.47533983149901      0.66801196078988     -0.46222616098923
  Br  -1.92883158903411      1.75236370887059      0.45548017359295
  H   0.17042649201130      1.21851314995740     -1.35097473280777
  C   -1.52457398463799     -0.91546638411927     -0.42160622664772
  H   -2.45603500906930     -1.11856491825088      0.10476190074418
  H   -1.74341923972375     -0.61582546753465     -1.44713894689178
  H   -0.93534325169978     -1.83741667836691     -0.44589927210622
  N   -0.49769153425444     -0.26463971968138      1.66841708402936
  H   0.08881068134126     -1.09255486381219      1.65647606473071
  H   -0.04577258153431      0.46994843459816      2.19973663830756
  N   1.16167016220718     -0.57972852527995     -1.01241964590019
  O   1.80384957315710     -1.25340886802099     -0.20365148540517
  O   0.99640942944217     -0.85172994797584     -2.19821806714712
  N   1.34455233173134      1.43773921256324      0.35561856763303
  H   1.99015986035226      1.98210413935174     -0.20022728271538
  H   1.86799228103522      0.83480214471105      0.97762232954554
