17
Coordinates from ORCA-job run
  C   -0.78304316321582      0.22445291481343      0.16437377407382
  C   0.60919487670563      0.67021793036385     -0.32096704541215
  Br  -2.12865097696298      0.90308100314018     -1.10135167627705
  H   0.61403221374323      1.75841621562879     -0.36668659259809
  C   -0.96301041726880     -1.28514892703715      0.25707358262113
  H   -0.24152923658722     -1.69088795280132      0.97232904276662
  H   -1.96555558172726     -1.49810790040472      0.63317347512218
  H   -0.83808648492006     -1.78428463799471     -0.70278003200546
  N   -0.97324445855003      0.93666224999232      1.40718165738665
  H   -1.85848473962360      0.67677136269987      1.82636757642698
  H   -0.21380239761378      0.68160925842896      2.03068423526725
  N   0.87833049084775      0.21155242908195     -1.74422357844876
  O   0.81900253456481      1.05288974220236     -2.63475467970657
  O   1.16888694416296     -0.97633818436802     -1.89197560480377
  N   1.60733661275626      0.18926112719515      0.58611991586173
  H   1.80336337831504     -0.78722417220133      0.39835616247467
  H   2.46526040537386      0.71707754126039      0.48707978725085
