17
Coordinates from ORCA-job run
  C   -0.81991757468492      0.16809936415382      0.21012658445221
  C   0.58864832556812      0.61702296560094     -0.25300837437727
  Br  -2.13442507167658      0.99229860469669     -0.98770592648017
  H   0.64683974884344      1.70431775559445     -0.18902164157201
  C   -1.01776643291415     -1.33622230888351      0.19753769664010
  H   -2.03219355691021     -1.54743340983065      0.53359110755936
  H   -0.85954760761797     -1.76392553277762     -0.79053174617233
  H   -0.32506927306697     -1.80103605021403      0.90553341562231
  N   -1.09233409355909      0.66647888304406      1.54078517513046
  H   -1.09707147776071      1.68103439020255      1.54512792031474
  H   -0.33812582697322      0.35193011887294      2.14490245427542
  N   0.83752033254126      0.31906387407338     -1.72441531781352
  O   1.06283151226041     -0.85585570884855     -2.01641562802636
  O   0.82299361728598      1.26433419947742     -2.50685218179443
  N   1.57804266104900      0.00676136339925      0.58132848599323
  H   1.71568371042987     -0.95847059494387      0.30491359703124
  H   2.46289100718573      0.49260208638273      0.50510437921702
