15
Coordinates from ORCA-job run
  C   -1.09343417360788      0.23573681705977     -0.08001906890606
  C   0.31530589534167      0.12277892999998      0.47431628098230
  Cl  -2.19834739611349      0.92951745499059      1.09629216252244
  H   0.28341315212074     -0.35519533257952      1.45339122440630
  H   -1.12584420575244      0.82462357446874     -0.99314366598545
  N   -1.53085704655917     -1.15637330417099     -0.44954013309404
  O   -1.64136720067677     -1.96612367920491      0.46304534943983
  O   -1.67547956045652     -1.37278874895189     -1.64967403012451
  N   0.81711475480646      1.51641121745496      0.71141764064200
  O   0.71394352412604      2.30475431319897     -0.22535244226771
  O   1.32620502057857      1.74745861524340      1.80336712440494
  C   1.26997555752170     -0.57553655493433     -0.47958388866498
  H   1.24678254977932     -0.10588385556411     -1.46412998376801
  H   1.00518828158558     -1.62908316129486     -0.57726563648431
  H   2.28540084730618     -0.51929628571579     -0.08312093310275
