15
Coordinates from ORCA-job run
  C   -0.85562613588301     -0.60073712941706     -0.14104395730324
  C   0.36363527322221      0.18539544636992      0.32110912844835
  Cl  -0.64437981468264     -1.29915846535831     -1.73071393658105
  H   0.05609541064593      0.76370406326431      1.19573539545959
  H   -1.04551888350310     -1.40486656038000      0.57089288897488
  N   -2.11607977232236      0.26029586938186     -0.05798244189488
  O   -2.31830360034538      0.69310903030747      1.07101397030591
  O   -2.81150742414037      0.41713300048267     -1.04412182802801
  N   0.68862033987550      1.21891612618047     -0.72850524916647
  O   -0.23315266792818      1.97437418004279     -1.02477773518061
  O   1.82041444581685      1.23989033753266     -1.19861524058165
  C   1.55212844513415     -0.69792059946980      0.62792693762753
  H   1.28542033190413     -1.39335095781314      1.42717562584918
  H   2.39423138251185     -0.09383591932600      0.96274588117323
  H   1.86402266969444     -1.26194842179781     -0.24983943910276
