15
Coordinates from ORCA-job run
  C   -0.79067988963100     -0.66446878108834     -0.21483120433232
  C   0.30315143801973      0.22897040426333      0.35411767757993
  Cl  -0.31558383097386     -1.44448900600525     -1.70654771491799
  H   -0.15864214878758      0.83836026333364      1.13475827680647
  H   -1.03304527140762     -1.43363747147281      0.51945322651363
  N   -2.09785040604567      0.11353581531566     -0.36766646852979
  O   -2.48258610944697      0.60208895032238      0.68881539241103
  O   -2.65450830202553      0.16079598873527     -1.44871077400659
  N   0.71371534283986      1.21479042984989     -0.71109768261611
  O   -0.19903358691377      1.88547797587091     -1.18586994503245
  O   1.89798139998099      1.28379378718982     -1.01956190537602
  C   1.48476031304731     -0.55195980662319      0.88397161307776
  H   1.95020035906959     -1.14748050701741      0.09999423712749
  H   1.14745344478118     -1.21245606178938      1.68615743637600
  H   2.23466724749337      0.12667801911550      1.28801783491896
