15
Coordinates from ORCA-job run
  C   -1.10936836798597      0.01503146283887      0.49452315026911
  C   0.40799722529445      0.16332939151714      0.57979738025980
  Cl  -1.68647903904679     -1.21305531318475      1.60261960178364
  H   0.65568252975143      0.24210930183105      1.64114051905476
  H   -1.60330181263808      0.95839550370150      0.71753862057666
  N   -1.46428772587626     -0.31479412400506     -0.94116527908523
  O   -1.84354155144427     -1.43595117987308     -1.23896910280833
  O   -1.26366133044025      0.62682995871495     -1.70399783707164
  N   0.77881833553750      1.52649404118893      0.02788315320693
  O   1.62321927220942      1.58393013043221     -0.85739378330220
  O   0.21281875136311      2.48073790734318      0.55188115146091
  C   1.17729196245206     -0.94857462507216     -0.09494085684940
  H   1.02719028012342     -0.93076392130139     -1.17402586787648
  H   2.24373515941684     -0.83942279983955      0.09725700404940
  H   0.84588631128339     -1.91129573429184      0.29785214633207
