15
Coordinates from ORCA-job run
  C   -0.84032027409206     -0.56563431412855     -0.29395140169925
  C   0.34699495762976      0.12155027782435      0.36680548234001
  Cl  -0.55086628461117     -0.93965643443797     -1.97802791783218
  H   -0.00658995900278      0.51736158106968      1.32196732576150
  H   -1.04968042404941     -1.49414785984526      0.23855726342567
  N   -2.11494207900824      0.25622004304467     -0.10188296287215
  O   -2.37136399620954      0.46005154850816      1.07950863759875
  O   -2.76948126073051      0.59827298199308     -1.06895416348739
  N   0.70370883920687      1.34038915345040     -0.44693751727477
  O   -0.21426595009509      2.13454175350776     -0.63361381436008
  O   1.85457084778011      1.45717119821364     -0.85222258324583
  C   1.53238981558605     -0.79913185102276      0.55090201248342
  H   2.35247102976671     -0.26665373037940      1.03056151827952
  H   1.88758296613898     -1.18433007484654     -0.40378190020586
  H   1.24079177169033     -1.63500427295128      1.19107002108864
