15
Coordinates from ORCA-job run
  C   -1.09739203423621      0.19773410453698      0.11883974421618
  C   0.38332276119895      0.07736758812727      0.43183450035817
  Cl  -2.01856803201971      0.69680763110284      1.52874370757449
  H   0.51632834174478     -0.51647706178397      1.33615934065918
  H   -1.28590241696593      0.89141418947214     -0.69658121248417
  N   -1.55618536724669     -1.15655368835786     -0.35237094769258
  O   -1.50798145477252     -2.07420082377996      0.45758751204547
  O   -1.87775933304622     -1.23197806517154     -1.53511387020666
  N   0.88465462190219      1.45201965109965      0.76328572992047
  O   0.61771012330807      2.34283389190464     -0.03961762301659
  O   1.55337156706595      1.56996546330752      1.78488954310563
  C   1.19181063872399     -0.45975693592881     -0.73709087260921
  H   2.25520851888910     -0.41256594379990     -0.49546621911595
  H   1.00590036965438      0.12626725169604     -1.63846247705619
  H   0.93648169579986     -1.50287725242504     -0.92763685569823
