15
Coordinates from ORCA-job run
  C   -1.12210574668521     -0.13464223539005      0.38360675827488
  C   0.35495495043625      0.17251100375457      0.59612941373471
  Cl  -1.55378183241941     -1.58334973234437      1.29943716140493
  H   0.49459838852719      0.25358740623679      1.67718295420762
  H   -1.74534069121029      0.68572116660872      0.73257882436124
  N   -1.53549383801230     -0.34964474588016     -1.05082269270925
  O   -2.52419381073792      0.27196976483765     -1.41891555808791
  O   -0.88134164569495     -1.14750811983925     -1.71121745120371
  N   0.64653548996252      1.55091062399661      0.07306401421053
  O   -0.07497425430860      1.97839753667998     -0.82687741662149
  O   1.61157962599534      2.12521113706847      0.56385299866593
  C   1.38959356734889     -0.78114473481291      0.01970923540789
  H   1.16753838999237     -1.80482886607165      0.31938454117627
  H   1.40413279529301     -0.73513864700341     -1.06693711964455
  H   2.36829861151312     -0.50105155784098      0.41082433682292
