11
Coordinates from ORCA-job run
  C   -0.05672265859193     -0.01688537997484      0.37833176400673
  C   1.15118400791676      0.29093798689861     -0.47978199076247
  Br  0.47644765380650     -0.87088824203064      2.04415028580154
  H   1.71173903217402     -0.62130673061749     -0.67254805726281
  H   1.78462005233287      1.01039859425271      0.03965219586984
  H   0.81960607904180      0.72038552167803     -1.42821672929792
  N   -0.97767860258127     -1.02631391700214     -0.33478800352358
  O   -0.42251491011025     -1.82575246059101     -1.07434183151222
  O   -2.16968826943701     -0.96373902907699     -0.07188716772392
  C   -0.84010083804382      1.17046796976383      0.68606659324985
  N   -1.47589154650765      2.13269568669993      0.91336294115498
