11
Coordinates from ORCA-job run
  C   -0.07572024339866     -0.03634899075919      0.37662540485091
  C   1.16191527022257      0.28762752499588     -0.43194921699005
  Br  0.39246916384405     -0.96644939126336      2.02080452487728
  H   0.86404429965501      0.76124011180105     -1.37059467700172
  H   1.71338281796646     -0.62543698154958     -0.64614618054834
  H   1.79009680899971      0.97514614243473      0.13478972392461
  N   -0.98638377633667     -1.00011020042458     -0.40670409643445
  O   -2.18966242017939     -0.89706498164426     -0.21524145019780
  O   -0.41728905342003     -1.80681198101880     -1.12733008769241
  C   -0.84854588314802      1.15140770697225      0.70901495830695
  N   -1.40630698420502      2.15580104045586      0.95773109690502
