11
Coordinates from ORCA-job run
  C   0.02121987844198     -0.08191998987622      0.40069265803813
  C   1.06190442742828      0.40700983458938     -0.58879000795791
  Br  0.86440401077604     -0.98798832573225      1.88816060637597
  H   0.57388149037985      0.93529344669248     -1.40635305183808
  H   1.74983762656853      1.07919148727553     -0.07612257449299
  H   1.61828802298157     -0.44319082531439     -0.98467043415559
  N   -0.96072790445478     -1.06096910501704     -0.30702752043481
  O   -1.16548382414191     -0.80532551043214     -1.48665208588104
  O   -1.47947834002247     -1.93834446233074      0.35984022198715
  C   -0.81151829052231      1.00075613451019      0.91011162789926
  N   -1.47132709743480      1.89648731563518      1.29081056045988
