11
Coordinates from ORCA-job run
  C   -0.06916205752431     -0.03409929254027      0.37835620033471
  C   1.15083113391005      0.29795559588168     -0.45316204009590
  Br  0.43745350432802     -0.94338931371686      2.02266116685510
  H   0.83235836555543      0.75917147697932     -1.39118296026449
  H   1.71045784755281     -0.61006251327913     -0.66773289593216
  H   1.77947148855469      0.99825719218412      0.09721663893090
  N   -0.98054622080891     -1.01583902932716     -0.38192273420416
  O   -0.41335935765252     -1.82068423813766     -1.10615345547952
  O   -2.18175672607461     -0.92616746998119     -0.17168365290628
  C   -0.85183834067491      1.14671606965675      0.71279639540373
  N   -1.41690963716573      2.14714152228040      0.96080733735808
