12
Coordinates from ORCA-job run
  C   -0.46299903749738      0.16136599531064      0.14847460270833
  C   0.86762346350577     -0.57267312299016      0.13515411180205
  F   -0.94191830520849      0.24028790224974      1.41832738974938
  H   0.71427518513826     -1.55678875544141      0.58235748393657
  H   1.19534435576868     -0.71580338487174     -0.89848811834396
  N   -1.50785847651312     -0.65938046220303     -0.62939567201518
  O   -1.36548257730064     -1.87521053084119     -0.59903057944508
  O   -2.41939852561766     -0.02757413487319     -1.14566895377646
  C   -0.38240262675609      1.49466137663189     -0.44936331380381
  N   -0.25060999319685      2.55787725231196     -0.93150597819191
  C   1.87142393307896      0.17792877408874      0.88295165369827
  N   2.68200260459858      0.77530909062776      1.48518737368180
