12
Coordinates from ORCA-job run
  C   -0.48235203111028      0.28283099446075      0.27572110934364
  C   1.03667631467824      0.26856598228287      0.14759470695996
  F   -0.85806398277116     -0.00699470121500      1.53655958695439
  H   1.43982609980127      1.04467376140935      0.80407812463653
  H   1.31182129931569      0.50325518602224     -0.88272500937344
  N   -1.04791607915227     -0.80416822641413     -0.65649115152274
  O   -1.64428835717030     -1.72895943947465     -0.13536243591889
  O   -0.80544884013643     -0.61809457169075     -1.84089239021909
  C   -1.05068638040711      1.56472983976232     -0.14801934629756
  N   -1.47729128633566      2.61157656450995     -0.46765994077339
  C   1.57328467159293     -1.03421924008393      0.53243855369794
  N   2.00243857169509     -2.08319614956902      0.83575819251266
