12
Coordinates from ORCA-job run
  C   -0.46177168494347      0.16092109662664      0.13442447523265
  C   0.87290462374886     -0.56547791739226      0.16019927096554
  F   -0.95152406086976      0.28260194870543      1.39725267974046
  H   1.21394301339003     -0.74322279194515     -0.86348754777460
  H   0.72021184997712     -1.53398885356734      0.64024073819717
  N   -1.49959942621848     -0.68762101605089     -0.61998198906321
  O   -1.32901317179982     -1.90029319805531     -0.59354281986099
  O   -2.44066031651578     -0.07725856327072     -1.10889730672082
  C   -0.38368665304745      1.47421975243008     -0.50702052980103
  N   -0.25618997550566      2.52263623278833     -1.02128155076043
  C   1.86090944896515      0.21956229126409      0.89407341662432
  N   2.65447635281925      0.84792101846709      1.48702116322093
