12
Coordinates from ORCA-job run
  C   -0.59816352115415      0.27969163492881      0.27237173683426
  C   0.74721135814659     -0.16302726382721      0.83623029962264
  F   -1.47993098962360      0.37078521973940      1.29708494338204
  H   0.57817035182046     -1.10043602112302      1.37441367564119
  H   1.07756934485100      0.59388176251666      1.55291116673755
  N   -1.10086397763467     -0.82838538412056     -0.66475374228761
  O   -1.53988184615046     -1.81660069093943     -0.09679199755373
  O   -0.96459779122627     -0.63988948364835     -1.86575676515170
  C   -0.54102326684361      1.54335416544155     -0.46109719715409
  N   -0.47507114973794      2.59377443413889     -0.98315158791319
  C   1.74580228477088     -0.34265956513200     -0.21133767384208
  N   2.55277920278177     -0.49148880797475     -1.05012285831525
