16

C	-0.426898	-0.065349	-1.454316
C	0.0	0.0	0.0
F	-1.799776	-0.390406	-1.52649
H	1.094795	0.0	0.0
H	-0.317422	-0.952755	0.440214
C	-0.304301	1.248927	-2.118271
N	-0.239628	2.295024	-2.647406
C	0.354796	-1.116871	-2.216493
H	0.18625	-2.085465	-1.741097
H	1.42118	-0.886023	-2.160429
H	0.024515	-1.163513	-3.256486
C	-0.576437	1.173307	0.776989
H	-1.66782	1.201291	0.709864
H	-0.296478	1.093625	1.829608
H	-0.180015	2.120012	0.403745
Br	3.648352	0.0	0.0
