16

C	-0.411855	0.036529	-1.464011
C	0.0	0.0	0.0
F	-0.141	-1.207416	-2.047141
H	1.095075	0.0	0.0
H	-0.320136	0.943924	0.4565
C	-1.873467	0.235987	-1.603971
N	-3.029796	0.416791	-1.702669
C	0.361677	1.086568	-2.238739
H	0.119205	2.085247	-1.868984
H	1.426893	0.900273	-2.081163
H	0.117985	1.027044	-3.301714
C	-0.560556	-1.190144	0.763061
H	-0.221181	-2.121943	0.310103
H	-1.655317	-1.188909	0.783834
H	-0.197133	-1.169749	1.792543
Br	3.680977	0.0	0.0
