16

C	-0.523639	0.000843	-1.42565
C	0.0	0.0	0.0
F	0.023734	1.091087	-2.100395
H	1.093966	0.0	0.0
H	-0.322596	0.950174	0.44209
C	-0.117095	-1.222776	-2.150161
N	0.191474	-2.215941	-2.694529
C	-2.036618	0.148343	-1.523851
H	-2.339834	1.040275	-0.970537
H	-2.547354	-0.722294	-1.111327
H	-2.325129	0.264367	-2.570446
C	-0.497146	-1.179838	0.829381
H	-1.581297	-1.174293	0.978703
H	-0.020029	-1.149663	1.810914
H	-0.213263	-2.12789	0.365307
Br	3.678486	0.0	0.0
