16

C	-0.427907	-0.058956	-1.45427
C	0.0	0.0	0.0
F	-1.802741	-0.378391	-1.526212
H	1.094819	0.0	0.0
H	-0.317693	-0.954372	0.436453
C	-0.302298	1.257524	-2.114192
N	-0.245093	2.304983	-2.641759
C	0.348577	-1.111404	-2.220449
H	0.174434	-2.081564	-1.749203
H	1.41643	-0.886274	-2.163164
H	0.0183	-1.151873	-3.260592
C	-0.575777	1.17022	0.781948
H	-1.66722	1.198414	0.715569
H	-0.295298	1.086416	1.834166
H	-0.17958	2.118412	0.412351
Br	3.647019	0.0	0.0
