16

C	0.0	0.0	0.0
C	-0.485495	0.132122	-1.437344
F	1.39644	0.0	0.0
H	-1.563527	0.316602	-1.398046
H	-0.323518	0.88634	0.550139
C	-0.488669	-1.257596	0.669533
H	-0.146765	-1.271444	1.706607
H	-1.580291	-1.272684	0.651361
H	-0.086487	-2.137658	0.161604
N	-0.182624	-0.945103	-2.326601
H	-0.874407	-1.671947	-2.2133
H	0.740457	-1.312314	-2.142235
N	0.154066	1.399598	-1.962549
O	-0.275722	2.454939	-1.501713
O	1.08845	1.30102	-2.75168
Br	-3.840643	0.0	0.0
