16

C	0.0	0.0	0.0
C	-0.502963	0.05635	-1.425849
F	1.392759	0.0	0.0
H	-1.599092	0.121188	-1.378658
H	-0.323521	0.907131	0.510824
C	-0.487258	-1.232231	0.719006
H	-0.107831	-1.224558	1.743982
H	-1.578966	-1.225455	0.734888
H	-0.132624	-2.126423	0.205219
N	-0.064742	-1.046621	-2.203401
H	-0.478325	-1.020267	-3.124107
H	0.941771	-1.019383	-2.302895
N	-0.049831	1.40771	-2.020503
O	0.515475	1.392815	-3.115404
O	-0.299358	2.421199	-1.376809
Br	-3.893006	0.0	0.0
