14
Coordinates from ORCA-job run
  C   1.20964554303850     -0.18369432307305     -0.19231769576030
  C   -0.29617178564727     -0.19998732143697     -0.47015083641652
  Br  2.01844900256391     -1.92101634275897     -0.60499828651321
  H   -0.40347108619257     -0.47063150472796     -1.53292946645543
  H   1.70616773899358      0.51925291772940     -0.86508025906203
  C   1.51067675177092      0.17185647942651      1.18786383650758
  N   1.75738466718863      0.51016739883724      2.28516697418889
  C   -0.86526949975526      1.19608236644836     -0.25088272198838
  H   -0.34548598911932      1.94044804360739     -0.85874225656405
  H   -1.92114179655690      1.21501945031951     -0.53426121818259
  H   -0.78767881943902      1.47347766763534      0.80225294279435
  N   -0.93780494073489     -1.12945003908550      0.44294677062779
  H   -0.70058979984392     -2.08542114898779      0.20708439209104
  H   -1.94370998626639     -1.03410364393351      0.38304782473286
