14
Coordinates from ORCA-job run
  C   1.26185706985668     -0.18425817706427     -0.12578765249806
  C   -0.22249401194223     -0.25768536944909     -0.52008513893126
  Br  2.20830747105043     -1.82963040536690     -0.56205602784655
  H   -0.24399121785384     -0.59147544903971     -1.56247320759506
  H   1.76715468554363      0.60131385849453     -0.69211228406558
  C   1.39595390854374      0.09211116136785      1.29907265647464
  N   1.43576475149777      0.33921987808412      2.44710281872205
  C   -0.84360095657204      1.13751334549953     -0.42061278349461
  H   -0.82070084655191      1.49754963039819      0.61214196619664
  H   -1.88766677409999      1.09551392876211     -0.73963581683237
  H   -0.32509336929522      1.86534624206866     -1.05158336066192
  N   -0.87762312161584     -1.27572106847075      0.28219686322208
  H   -1.73230768154550     -1.58261432044178     -0.16304594370401
  H   -1.11555990701568     -0.90818325484249      1.19687791101402
