14
Coordinates from ORCA-job run
  C   1.10341454560730     -0.48587130101288      0.28520858071212
  C   -0.24055515840302     -0.15610071851050     -0.39065125880112
  Br  0.94334433019620     -0.79530539264829      2.20412001921466
  H   0.03540113882951      0.08409246829207     -1.43198465886195
  H   1.49383539846116     -1.42281453646962     -0.12041147281889
  C   2.07715324205570      0.57335124318518      0.05148559271860
  N   2.83050805116543      1.44570230624268     -0.17660542099643
  C   -0.91984713736798      1.06025139731114      0.21424872828652
  H   -1.77971320117772      1.34375428311914     -0.39841963663222
  H   -1.27086154140827      0.83223484471260      1.22145733473011
  H   -0.24295678763192      1.91540244744215      0.25863026625366
  N   -1.10646313927345     -1.31913508950419     -0.28775094570190
  H   -2.06845280002655     -1.05465959534576     -0.45728801403236
  H   -0.85380694102639     -2.02190235681372     -0.97203911407079
