14
Coordinates from ORCA-job run
  C   0.97458968580999      0.06254389380392      0.56444824739894
  C   -0.21495627263906      0.16405093137086     -0.42286498697852
  Br  1.83704820011201      1.79064117737259      0.88091184130259
  H   0.16696247870602      0.63230744304623     -1.33624238319189
  H   0.61685663310297     -0.27580634194678      1.54132523041998
  C   1.97915980462673     -0.86966675901563      0.06930861825506
  N   2.74725262951034     -1.63989396728665     -0.37530670693969
  C   -1.34020466072741      1.00760562599234      0.15454857281138
  H   -1.72455109798024      0.55141730873875      1.07319957387910
  H   -1.01602365781341      2.02182069424564      0.38512247672969
  H   -2.15506233368860      1.04950861434653     -0.56856932484075
  N   -0.73629364491255     -1.14274867762676     -0.78077610516744
  H   -0.03200554061236     -1.72581602743801     -1.21639044387041
  H   -1.10277222349441     -1.62596391560304      0.03128539019196
