14
Coordinates from ORCA-job run
  C   1.04136463214485      0.11015181965087      0.56220097766604
  C   -0.19852957637372      0.11097926478790     -0.34876224097775
  Br  1.84450796118503      1.88470368269280      0.71617274686110
  H   0.10414053563092      0.54374624162901     -1.31409058868837
  H   0.74539169221035     -0.19292118226120      1.56860564923136
  C   2.05150077698069     -0.80935464577181      0.05394838791827
  N   2.82764074714416     -1.56410497959713     -0.40243442186141
  C   -1.32557352454910      0.93625357053605      0.24853770885332
  H   -1.63941900936264      0.49717196778342      1.19924570549730
  H   -2.18397709612559      0.93660223030482     -0.42845324263089
  H   -1.02786039790467      1.97129791578623      0.41180516959856
  N   -0.61996036089808     -1.28380621896058     -0.43126107935030
  H   -1.57813018069175     -1.34058117777108     -0.75327154503748
  H   -0.04109619939045     -1.80013848880932     -1.08324322707975
