14
Coordinates from ORCA-job run
  C   1.04388034851532     -0.49670075236515      0.20699449204302
  C   -0.28577928420316     -0.10027927275919     -0.48548555097624
  Br  0.77683784888178     -1.01767323383237      2.07514090228071
  H   0.01067253076278      0.13427674336157     -1.51681978646472
  H   1.45248077109331     -1.38810414536131     -0.27576596837669
  C   2.03400141017867      0.56914188171152      0.14577886997367
  N   2.83394628143871      1.42487170377092      0.05169640436393
  C   -0.91592049119532      1.13767180502500      0.13083385746610
  H   -1.24607681407582      0.93677119788477      1.15250608894263
  H   -1.78797767282730      1.41771599682247     -0.46066872515905
  H   -0.21821306791195      1.97698158345655      0.15360545102056
  N   -1.26040130740179     -1.16948726744552     -0.55138980686539
  H   -0.88039623658575     -1.99088648899663     -1.00674661282524
  H   -1.55605431666946     -1.43329975127265      0.38132038457671
