14
Coordinates from ORCA-job run
  C   0.99547814437559     -0.03683488498599      0.52853136315183
  C   -0.21410345472944      0.18945419876358     -0.41228850632358
  Br  2.02148277590558      1.60102360340905      0.83992306288158
  H   0.17595192116960      0.63564224631093     -1.33323766170691
  H   0.64358595755127     -0.35970742191560      1.51273146920227
  C   1.89416020671515     -1.04544488980445     -0.01756429433241
  N   2.57353443529768     -1.87306348323168     -0.50168585916367
  C   -1.23559630631680      1.12289643981988      0.21740805881265
  H   -0.81187996297170      2.09995936959143      0.44680196943731
  H   -2.06942391724545      1.24911655353565     -0.47353623288241
  H   -1.62559437142782      0.69040172745162      1.14511099852964
  N   -0.86586618995098     -1.05833059600318     -0.76707091907864
  H   -1.24752699401084     -1.51804999305383      0.05152383997454
  H   -0.23420224436184     -1.69706286988742     -1.23464728850220
