14
Coordinates from ORCA-job run
  C   1.07404988774146      0.04082595825471      0.50686627816500
  C   -0.20448550936542      0.10868024503436     -0.34634843825047
  Br  2.04870368974696      1.73473494100369      0.50958342684836
  H   0.08861354419128      0.45219565962081     -1.34973493758040
  H   0.80176358177252     -0.17013532631432      1.54299059362164
  C   1.96599001062822     -1.00131781955729      0.01487507122184
  N   2.64407381279708     -1.85417524903775     -0.42464354252500
  C   -1.21647553243504      1.07413037611696      0.24706812965328
  H   -2.10468759423611      1.11801656513126     -0.38886757996610
  H   -1.52125054186645      0.72538570586675      1.23735171118782
  H   -0.81400370899943      2.08299332132194      0.32979929649671
  N   -0.75986342503442     -1.24064981988393     -0.32092635267157
  H   -0.26695828959394     -1.84851984665449     -0.96458546839775
  H   -1.73446992534670     -1.22216471090270     -0.59442818780335
