14
Coordinates from ORCA-job run
  C   1.12624029081194     -0.48463097744685      0.26814542381694
  C   -0.18245608525192     -0.17473826706579     -0.47124484651259
  Br  0.81610777108441     -0.98210688252319      2.13881429395337
  H   0.13762664744674      0.05292848222936     -1.49676235494637
  H   1.57970923164952     -1.36700605807514     -0.18589148446248
  C   2.05368668238992      0.63669498280646      0.22901249556837
  N   2.77975252242968      1.55755156083204      0.15563459204706
  C   -0.91862248245987      1.03773613112042      0.09014987301125
  H   -1.26363437672519      0.84245879762795      1.10773233110732
  H   -0.28788207622759      1.93033735761303      0.10301472953983
  H   -1.79273401319068      1.24961723224061     -0.53030240804485
  N   -0.95589159042827     -1.40848499969294     -0.53933093541625
  H   -1.39855908004929     -1.58378466583818      0.35634091249092
  H   -1.69334344147940     -1.30657269382778     -1.22631262215253
