14
Coordinates from ORCA-job run
  C   1.04590546869693     -0.49576228253171      0.22001924270831
  C   -0.27315099042523     -0.09880898451848     -0.49295209354080
  Br  0.74662739263187     -1.04693166926948      2.07443356767234
  H   0.04140461364660      0.14950909099675     -1.51569362574996
  H   1.47111551472708     -1.37680045292932     -0.26725390868752
  C   2.02636877039032      0.58008250989401      0.19438140141088
  N   2.78741284509675      1.47291768224840      0.12683358632459
  C   -0.92214411122126      1.12819887964749      0.12573218391530
  H   -1.78988664421663      1.40419332179790     -0.47409310720702
  H   -0.23275428743490      1.97383885013879      0.16255409089072
  H   -1.26210500675145      0.91649365485376      1.14212277762746
  N   -1.23967432480191     -1.17293305084449     -0.58911670752576
  H   -1.55566866051353     -1.44469855491736      0.33461181132839
  H   -0.84445057982463     -1.98929899456628     -1.04057921916693
