16

C	-0.495873	0.027513	-1.434404
C	0.0	0.0	0.0
Br	0.553313	1.198631	-2.620625
H	1.08874	0.0	0.0
N	-0.22707	-1.384504	-2.052113
O	0.684419	-2.057454	-1.593569
O	-0.955913	-1.69376	-2.988803
N	-1.851933	0.391644	-1.531266
H	-2.195975	0.255761	-2.474246
H	-2.403533	-0.149348	-0.872071
C	-0.53884	-1.152279	0.689163
N	-0.970486	-2.106348	1.229177
N	-0.404022	1.22554	0.700812
O	-1.146322	1.138411	1.704971
O	0.094876	2.274878	0.266512
H	2.370085	0.0	0.0
