16

C	-0.509243	0.042821	-1.426821
C	0.0	0.0	0.0
Br	0.638501	1.05358	-2.670723
H	1.088786	0.0	0.0
N	-0.37798	-1.410395	-1.995016
O	-1.269669	-1.769479	-2.76141
O	0.60705	-2.059342	-1.674614
N	-1.822608	0.53382	-1.537454
H	-2.154924	0.443472	-2.490082
H	-2.431545	0.018612	-0.910058
C	-0.529104	-1.142108	0.705975
N	-0.938261	-2.106951	1.244865
N	-0.298227	1.226529	0.728462
O	-0.052863	2.286159	0.142971
O	-0.592789	1.130822	1.931618
H	2.320579	0.0	0.0
