16

C	-0.493461	-0.005408	-1.408414
C	0.0	0.0	0.0
Br	-2.570379	0.444979	-1.510816
H	1.094278	0.0	0.0
N	0.148667	1.066871	-2.284756
O	1.01786	1.763192	-1.783748
O	-0.193357	1.058149	-3.464221
N	-0.215471	-1.205922	-2.051001
H	-0.541867	-2.016227	-1.542666
H	-0.540937	-1.196112	-3.008328
C	-0.384349	-1.225945	0.658319
N	-0.670198	-2.286057	1.082354
N	-0.381302	1.142107	0.817763
O	-0.68105	2.201398	0.262442
O	-0.254717	0.988708	2.039763
H	2.303628	0.0	0.0
