16

C	-0.435561	-0.045822	-1.459685
C	0.0	0.0	0.0
Br	-2.386453	0.097481	-1.629388
H	1.095263	0.0	0.0
N	0.213707	1.095671	-2.270068
O	1.401381	0.900517	-2.495655
O	-0.449359	2.051969	-2.633903
N	-0.004943	-1.247712	-2.112309
H	0.991847	-1.347288	-1.915923
H	-0.503046	-2.032902	-1.710014
C	-0.453938	-1.193266	0.673846
N	-0.794152	-2.220232	1.136924
N	-0.365536	1.19796	0.729405
O	-0.123864	2.265997	0.154159
O	-0.746048	1.090762	1.902148
H	2.380505	0.0	0.0
