16

C	-0.375422	-0.105727	-1.464101
C	0.0	0.0	0.0
Br	-2.335992	-0.32019	-1.767911
H	1.095469	0.0	0.0
N	0.040527	1.196204	-2.262618
O	-0.783396	2.063563	-2.509309
O	1.218174	1.193862	-2.597844
N	0.309967	-1.235969	-1.9416
H	0.217927	-1.345759	-2.946853
H	1.298079	-1.152919	-1.659547
C	-0.451405	-1.165432	0.72475
N	-0.749633	-2.122093	1.340649
N	-0.366114	1.231432	0.690555
O	-0.073822	2.281939	0.109625
O	-0.789771	1.157603	1.849486
H	2.39725	0.0	0.0
