16

C	-0.22458	-0.019173	-1.50117
C	0.0	0.0	0.0
Br	-0.230971	-2.016728	-2.084951
H	1.092989	0.0	0.0
N	-1.628657	0.384301	-1.954152
O	-2.546402	0.158128	-1.178739
O	-1.71894	0.879326	-3.070992
N	0.741836	0.730145	-2.103274
H	1.655869	0.575901	-1.643176
H	0.747493	0.701783	-3.110104
C	-0.54205	-1.070826	0.797106
N	-0.948903	-1.90849	1.515334
N	-0.374963	1.302537	0.608376
O	-0.203027	1.385402	1.82393
O	-0.752201	2.217821	-0.124868
H	2.487785	0.0	0.0
