16

C	-0.410831	-0.091848	-1.465315
C	0.0	0.0	0.0
Br	-2.362248	-0.199596	-1.648988
H	1.095085	0.0	0.0
N	0.094425	1.12517	-2.267376
O	1.306187	1.098018	-2.447088
O	-0.685229	1.967744	-2.676255
N	0.190113	-1.226857	-2.109887
H	-0.228134	-2.068999	-1.73459
H	1.182207	-1.210362	-1.855395
C	-0.416532	-1.200499	0.689452
N	-0.696333	-2.234539	1.175837
N	-0.385068	1.191489	0.721062
O	-0.265726	2.260754	0.10517
O	-0.652132	1.088061	1.930468
H	2.370122	0.0	0.0
