16

C	-0.46577	-0.001848	-1.44006
C	0.0	0.0	0.0
Br	0.128406	-1.7325	-2.265123
H	1.093107	0.0	0.0
N	-1.991022	-0.090598	-1.650606
O	-2.610481	-0.822851	-0.898276
O	-2.467511	0.641864	-2.513713
N	0.008905	1.149667	-2.06236
H	1.027433	1.189077	-2.051183
H	-0.377936	1.271529	-2.993065
C	-0.476457	-1.071976	0.847137
N	-0.766495	-1.913505	1.616284
N	-0.425104	1.329346	0.596812
O	-1.631955	1.553952	0.63754
O	0.466633	2.064167	0.998489
H	2.653378	0.0	0.0
