16

C	0.0	0.0	0.0
C	-0.310043	0.362305	-1.485119
F	1.401061	0.0	0.0
H	0.472349	-0.141407	-2.067472
N	-0.502992	0.987059	0.882986
H	-0.491575	0.633628	1.829483
H	0.035316	1.840143	0.819108
N	-0.497228	-1.267789	0.409523
H	-1.487619	-1.148167	0.613646
H	-0.447163	-1.915895	-0.36649
C	-0.082023	1.80946	-1.688229
N	0.129613	2.944703	-1.911539
N	-1.592843	-0.145554	-1.903559
H	-2.347498	0.086058	-1.244732
H	-1.847806	0.239857	-2.804126
Cl	-4.153596	0.0	0.0
