16

C	0.0	0.0	0.0
C	-0.425006	0.131468	-1.475875
F	1.410899	0.0	0.0
H	-1.518088	0.056612	-1.499201
N	-0.411848	1.187026	0.70489
H	-0.091258	1.107371	1.665217
H	-1.435598	1.155281	0.718209
N	-0.409724	-1.280166	0.496713
H	-1.430901	-1.286367	0.465237
H	-0.134106	-1.35967	1.470721
C	0.14094	-0.98398	-2.247662
N	0.609882	-1.832254	-2.909232
N	-0.017904	1.386722	-2.099908
H	0.959341	1.530367	-1.866313
H	-0.527139	2.120905	-1.621244
Cl	-3.516416	0.0	0.0
