16

C	0.0	0.0	0.0
C	-0.16091	-0.333519	-1.521073
F	1.417235	0.0	0.0
H	0.426533	0.458928	-2.004639
N	-0.457978	1.31859	0.268767
H	-0.391351	1.460981	1.270977
H	-1.455289	1.328314	0.045524
N	-0.438582	-0.973565	0.930851
H	-1.456311	-0.880953	0.967276
H	-0.222006	-1.89142	0.554465
C	-1.452023	-0.306785	-2.218661
N	-2.223992	-0.311848	-3.106014
N	0.418955	-1.670884	-1.72687
H	1.418871	-1.592607	-1.592463
H	0.245771	-1.967684	-2.678939
Cl	-3.504788	0.0	0.0
