16

C	-0.484291	0.005881	-1.461238
C	0.0	0.0	0.0
Br	0.327068	1.565958	-2.358293
H	1.092022	0.0	0.0
C	-0.045008	-1.171233	-2.209194
N	0.282018	-2.120124	-2.81987
C	-1.935085	0.166571	-1.572826
N	-3.093234	0.352315	-1.651877
N	-0.452911	-1.269612	0.655
O	-1.241961	-1.996742	0.042488
O	-0.028166	-1.480351	1.785486
C	-0.519822	1.152643	0.839837
H	-0.081037	1.063673	1.833265
H	-0.197418	2.100174	0.410915
H	-1.610954	1.136271	0.917835
Br	3.377815	0.0	0.0
