16

C	-0.483375	-0.003865	-1.454635
C	0.0	0.0	0.0
Br	0.383902	1.525031	-2.374737
H	1.091973	0.0	0.0
C	-0.047767	-1.210507	-2.157896
N	0.342386	-2.170964	-2.713082
C	-1.923104	0.197738	-1.589072
N	-3.074597	0.416448	-1.691974
N	-0.415144	-1.276497	0.655059
O	-1.366031	-1.907272	0.174949
O	0.261487	-1.630232	1.617536
C	-0.568512	1.122912	0.841657
H	-0.144977	1.053013	1.845927
H	-1.659977	1.058973	0.909389
H	-0.293866	2.091835	0.422005
Br	2.751144	0.0	0.0
