15

C	0.0	0.0	0.0
C	-0.508014	-0.108888	-1.42404
Cl	1.77839	0.0	0.0
H	0.06384	-0.903896	-1.906995
H	-1.557556	-0.405869	-1.346379
C	-0.433352	1.198392	0.712773
N	-0.659724	2.225259	1.236951
N	-0.385177	-1.240596	0.81994
O	-0.444185	-2.291309	0.199356
O	-0.505957	-1.088772	2.026128
C	-0.400896	1.216652	-2.167167
H	-1.162107	1.904728	-1.794312
H	-0.586197	1.055398	-3.232437
H	0.583293	1.680853	-2.060012
Br	-3.599971	0.0	0.0
