10
Coordinates from ORCA-job run
  C   -1.07222538550934     -0.19382738600559     -0.29775890920844
  C   0.24187377025861     -0.32116213791444      0.42775697592037
  F   -1.42864594590190      1.15514586053712     -0.35259237346988
  H   0.11189875599361      0.07199161578506      1.44729269106925
  H   -0.97697049355128     -0.55093653548151     -1.32468989973752
  H   -1.87291077337195     -0.72663125869403      0.22076325639278
  H   0.48502310701079     -1.38521285114981      0.50995049111036
  N   1.28584827618976      0.34379126086070     -0.34533025978844
  H   2.17316169249127      0.27969255962384      0.13673387266894
  H   1.05394699639044      1.32614887243866     -0.42212584495743
