10
Coordinates from ORCA-job run
  C   -1.02353456391874     -0.10513472442432     -0.25317276454333
  C   0.23694362705975     -0.27612554040374      0.56838879246383
  F   -0.79326035495954     -0.58966631034825     -1.54079823048142
  H   0.47059806678496     -1.34295097571593      0.62647036536694
  H   -1.29566714509191      0.95042651593068     -0.34689960537952
  H   -1.86390988874429     -0.66511817158231      0.16743380228068
  H   0.04330746968571      0.06602548582518      1.59024392705906
  N   1.41046999179610      0.41617981768237      0.05191537825640
  H   1.56412900756292      0.12923361641887     -0.90670494723508
  H   1.24892378982503      1.41613028661743      0.04312328221244
