15

C	-0.465769	-0.002638	-1.434468
C	0.0	0.0	0.0
Br	0.337639	1.428954	-2.451406
H	1.09856	0.0	0.0
H	-0.215798	-0.942025	-1.921088
N	-1.975094	0.100555	-1.475776
O	-2.533354	-0.954577	-1.185137
O	-2.513007	1.187988	-1.635078
N	-0.360006	-1.368246	0.546692
O	-0.927891	-1.429244	1.639231
O	0.167262	-2.320494	-0.033401
N	-0.68281	0.999533	0.754688
H	-0.294248	1.089265	1.683272
H	-0.654434	1.892714	0.282224
Br	2.747222	0.0	0.0
