17
Coordinates from ORCA-job run
  C   0.90516045784982      0.26302622110193     -0.48654339311876
  C   -0.33063406703756      0.28367023569845      0.41443038024045
  Cl  0.43813527554265      0.18165731287266     -2.22659581310746
  H   0.07808492008887      0.38393448977283      1.43069923998499
  H   1.41607774095674      1.22472718676429     -0.38534682912712
  C   1.87803632005610     -0.86410735194480     -0.19155142007789
  H   2.78677467064758     -0.75044650030693     -0.78472061412333
  H   2.15110592176127     -0.84859022410711      0.86793384952571
  H   1.44165090308171     -1.83503048674824     -0.42761470458067
  C   -1.14879183879343     -1.00321043600010      0.35716831313128
  H   -1.52132577707506     -1.18121158750708     -0.65406027036210
  H   -0.57102155125739     -1.87563203201447      0.66856549720475
  H   -2.01147916112671     -0.92564862559070      1.02362949725743
  C   -1.20821884784876      1.50401791404230      0.14733058852158
  H   -1.69216922671897      1.43114401346600     -0.82861291963478
  H   -0.62303998130201      2.42793676572744      0.16664534332457
  H   -1.98934575882485      1.58376310477355      0.90764325494135
