15
Coordinates from ORCA-job run
  C   0.84088036176616     -0.10475877174118      0.36639119417636
  C   -0.60934965550700     -0.49024159285271      0.01323310552526
  F   1.54641404317559     -1.31859005018448      0.15529204206863
  H   -0.96874659581765     -1.23238703755593      0.73452438202858
  N   1.25255095357198      0.94232846122132     -0.46218736077856
  H   2.21101091203285      1.22105767841711     -0.30556944085653
  H   1.07401915771795      0.70397742229309     -1.43093438176631
  C   1.05599877133690      0.22409845340348      1.78393132833207
  N   1.29900448965052      0.44704862591962      2.91042633720074
  N   -0.63088769178435     -0.88259149617732     -1.36903512425964
  H   -1.52867315472274     -0.66869140367582     -1.78253368310204
  H   -0.43122191747053     -1.86979573917973     -1.45136511212560
  N   -1.48831291932810      0.71736680886294      0.21891500133964
  O   -1.55465555429463      1.12535590095063      1.37206814502274
  O   -2.07003120032697      1.18582274029898     -0.75315643280533
