15
Coordinates from ORCA-job run
  C   0.78915244344906      0.13414014541842      0.34937592182962
  C   -0.55428516753853     -0.49039304186272     -0.02190012419992
  F   1.10940029862408     -0.33295856323991      1.62458353116729
  H   -0.43370590184795     -1.58264271277471      0.02282141970481
  N   1.73889877991375     -0.27094910544376     -0.62849052735824
  H   2.61651291758871      0.22176412572622     -0.51947095043780
  H   1.90257987882579     -1.26961325269815     -0.56739633717229
  C   0.75928422220798      1.60603070196677      0.38881319983989
  N   0.85050668613280      2.77595361567329      0.39083554153794
  N   -1.03529916881051      0.05343022267397     -1.25491834141986
  H   -1.80706246637543     -0.49481864677759     -1.61207300469084
  H   -0.28373981858635      0.07427969060378     -1.93245548862899
  N   -1.60926296614326     -0.20652272753527      1.01813885477146
  O   -1.47492396990847      0.75834405833617      1.75888450860935
  O   -2.56605576753170     -0.97704451006652      0.98425179644759
