15
Coordinates from ORCA-job run
  C   0.71867177209231      0.38018804577656      0.11597284853142
  C   -0.59715293508467     -0.26788995123502     -0.37044454683298
  F   0.39205625656254      1.45631531847543      0.95897761036086
  H   -0.37895576937386     -0.87686776713575     -1.24723470440525
  N   1.58656391226376     -0.55536373115654      0.71051595619425
  H   2.50773381340654     -0.16764634127591      0.86691780541593
  H   1.20087434579455     -0.89368279400496      1.58381704422345
  C   1.35846535069885      0.98058248148484     -1.07216050213048
  N   1.83332714783760      1.45539823084901     -2.03483807757613
  N   -1.65669318239565      0.64238956857037     -0.62462675016898
  H   -1.60411346195016      1.46479004711794     -0.04159901193494
  H   -1.74214791602451      0.88343915524188     -1.59926395819121
  N   -1.07380282187060     -1.26556546982426      0.66553751804225
  O   -1.07870857197477     -0.88787412496525      1.83668144711671
  O   -1.46711793998192     -2.34921266791833      0.25174732135511
