15
Coordinates from ORCA-job run
  C   0.75850678107925      0.31197921829281      0.01568388741699
  C   -0.65898733270149     -0.22284731997865     -0.28964585365135
  F   0.63175389590035      1.44466481594764      0.83813652777604
  H   -0.60090447808850     -0.88218034593244     -1.15516355803003
  N   1.59912645173286     -0.68086875734725      0.55371979946136
  H   1.28694784034655     -0.94812601796570      1.47953741829040
  H   2.56397043908141     -0.37847249999754      0.58876139982762
  C   1.31049408065247      0.80560224118973     -1.26235553974168
  N   1.71762251576724      1.20371920015644     -2.28868132375136
  N   -1.65201010971166      0.77611145926605     -0.46640132279499
  H   -1.82847992902089      0.98826343184939     -1.43545268311693
  H   -1.45638354950053      1.61008161199755      0.06760524978877
  N   -1.10067870964578     -1.13053587570166      0.84025652976957
  O   -0.94364078990663     -0.70581942587553      1.98438160664524
  O   -1.62633710598465     -2.19157173590083      0.52661786211035
