15
Coordinates from ORCA-job run
  C   0.79500750880212     -0.00636588234767      0.36116962547470
  C   -0.60272683145992     -0.41873253047029     -0.09579626159579
  F   1.04898740221397     -0.69913242066981      1.54580699993874
  H   -0.59825572412036     -1.51079927638430     -0.22547968709098
  N   1.70764552475711     -0.35150013509389     -0.67295571105707
  H   2.63208608312115      0.01892755453577     -0.49103165095029
  H   1.76085471763502     -1.35880125205779     -0.77421547511180
  C   0.92061050459585      1.43582314664375      0.63166600702342
  N   1.13134517990213      2.57612744116929      0.81135956500260
  N   -1.01198862291232      0.36058547255762     -1.22379106059653
  H   -0.25397630973897      0.41523418418912     -1.89210744234131
  H   -1.82978485995390     -0.04356766402709     -1.66159758335282
  N   -1.63189350859342     -0.19410284715336      0.98389519555303
  O   -1.40716319564158      0.62709693979742      1.86301342578115
  O   -2.66074786860686     -0.85079273068879      0.84006405332296
