15
Coordinates from ORCA-job run
  C   0.74844268824763      0.30331126444156      0.15366872986595
  C   -0.65005638410161     -0.19793571557618     -0.29175538458354
  F   0.50643071286580      1.28612018714738      1.13218452026965
  H   -0.52502140561214     -0.90950516456426     -1.10829001039158
  N   1.58023672775165     -0.70630243323850      0.62722290672984
  H   2.56587734684814     -0.63309407501615      0.45128215525888
  H   1.20609231093741     -1.63699659627674      0.70041272638493
  C   1.33628606184658      1.02545985647372     -0.99486832073491
  N   1.78950604975509      1.55678141904933     -1.93913928731012
  N   -1.58759348021751      0.80979454008278     -0.63268845678906
  H   -1.55934223857493      1.57990090798139      0.02134994937657
  H   -1.45542812522542      1.13683175740941     -1.57896349594905
  N   -1.19720971301272     -1.00456089546888      0.86786385951130
  O   -1.89637230084200     -0.42004071784084      1.68127426552709
  O   -0.85984825066597     -2.18976433460402      0.91044584283406
