15
Coordinates from ORCA-job run
  C   0.70432535499796      0.39593419056452      0.14211571689359
  C   -0.58115653908103     -0.27490240178547     -0.39371793989008
  F   0.32673018421471      1.44778184333380      0.99467126426043
  H   -0.32392899234544     -0.85972309919711     -1.27636464351323
  N   1.57729386348597     -0.52895279409695      0.74558272651838
  H   1.17491898445912     -0.89252714318028      1.60107044968179
  H   2.48365478845678     -0.12212129568678      0.93619835048382
  C   1.36361535794414      1.03421472134720     -1.01500311967796
  N   1.85748166781396      1.53970661752426     -1.95217106629436
  N   -1.65679319889051      0.61290230890260     -0.65784203406545
  H   -1.64280608494888      1.42238981577870     -0.05499656024430
  H   -1.72198116151594      0.87402515433906     -1.62882100264305
  N   -1.05649025623616     -1.30542336701028      0.60982516900549
  O   -1.38886932690246     -2.39869343484561      0.16883902561586
  O   -1.11699464145222     -0.94461111598766      1.78461366386906
