15
Coordinates from ORCA-job run
  C   0.88604455437105      0.04291590768445      0.32336991446767
  C   -0.52151759434028     -0.58556968576863      0.21440237738915
  F   1.70498422804226     -1.01020960873015      0.76951454216938
  H   -0.67009564420432     -1.22687097212304      1.08201053382650
  N   1.28350865203485      0.55338236612992     -0.92624841823998
  H   1.33946106313715     -0.20638079565198     -1.59438617468470
  H   2.16757902540320      1.04186403533430     -0.87162085545981
  C   0.98572536832242      1.09486483504153      1.35014172240527
  N   1.13741561431854      1.92782944650549      2.16323815461137
  N   -0.63552346350413     -1.29930453452464     -1.00734760313093
  H   -1.31906510721644     -2.04007923276599     -0.93640913328228
  H   -0.91678402285808     -0.66117260599182     -1.74373603351841
  N   -1.56422158589187      0.52233085015640      0.35489316263996
  O   -2.02156968132229      0.99802355348807     -0.67962017156494
  O   -1.85494140629207      0.84937644121610      1.50179798237174
