15
Coordinates from ORCA-job run
  C   0.73344538180372      0.45102290926945      0.16944200165301
  C   -0.49137064530818     -0.22271228515158     -0.46580912665412
  F   0.27327179530599      1.41968703782078      1.07579323800305
  H   -0.17041658201040     -0.77606742419106     -1.34853379998251
  N   1.60903350518936     -0.48980631768441      0.74879581404374
  H   2.50124589448907     -0.07446464093428      0.98132164678680
  H   1.19081709745811     -0.90145344737407      1.57383679974763
  C   1.43537570947481      1.18651354255893     -0.90062502929609
  N   2.01630117935875      1.76018122972092     -1.74336725852902
  N   -1.46698610165019      0.74451874246633     -0.80285217637099
  H   -2.23674399295402      0.35247060288194     -1.32708292110241
  H   -1.79372048843198      1.24990412284128      0.00941473052283
  N   -1.03676637244180     -1.31196252375630      0.45826945628837
  O   -1.03490804334709     -1.09957937639957      1.67121408813964
  O   -1.53057833693614     -2.28725217206836     -0.10081746324992
