15
Coordinates from ORCA-job run
  C   0.88023375795036     -0.02141658530421      0.09424742983071
  C   -0.50345907822671     -0.69751904533379     -0.00976366585119
  F   1.79217045416728     -0.97913048124471     -0.31453903964831
  H   -0.47135006469224     -1.62344191240951      0.56442943392520
  N   0.98346460481660      1.07584563173167     -0.80945711848122
  H   1.89987830333426      1.50297400251287     -0.75115591986795
  H   0.26290213131549      1.76240755775253     -0.61731354372745
  C   1.20439531206648      0.29387460515215      1.50624704366742
  N   1.44959584952930      0.58710209561036      2.61756897477168
  N   -0.93386156895504     -0.90264989385206     -1.34470108665201
  H   -0.83808992110241     -1.86629410111071     -1.62440570891101
  H   -0.44456372048699     -0.29121920634244     -1.98533026108021
  N   -1.51085843744264      0.17300064143221      0.72039830072568
  O   -1.66860056618023      1.31293645003360      0.28571455455808
  O   -2.10285705609353     -0.32546975862796      1.67106060674060
