15
Coordinates from ORCA-job run
  C   0.79921882531248      0.13334384776315      0.32539919384882
  C   -0.55629201870207     -0.48859412161341     -0.00416946568032
  F   1.15578397168727     -0.33055035646587      1.59212081614193
  H   -0.43750504238729     -1.58105316336146      0.03925425428664
  N   1.71879731854855     -0.27704321345595     -0.67883673124103
  H   2.60073514733778      0.21308059616764     -0.59593552070326
  H   1.88105676797512     -1.27608016350993     -0.62010144467594
  C   0.77375081264249      1.60552410280537      0.36070312854594
  N   0.86544994312259      2.77540386696434      0.35021001818390
  N   -1.07288204656229      0.05352483310642     -1.22360272720619
  H   -0.34115387213712      0.07222874486340     -1.92263003378635
  H   -1.85420592260871     -0.49606994727810     -1.55714908369459
  N   -1.57816832675391     -0.19986981611725      1.06710532857225
  O   -1.42080917776021      0.76857166317815      1.79854577325046
  O   -2.53477637971469     -0.97141687304650      1.06808649415773
