15
Coordinates from ORCA-job run
  C   0.79752773486313     -0.00981304254747      0.35559128193248
  C   -0.60477631213415     -0.41635939066447     -0.09293878379342
  F   1.05593107722205     -0.70387212238563      1.53868119404792
  H   -0.60581081690699     -1.50844418710711     -0.22259521992869
  N   1.70217201434210     -0.35918377026048     -0.68426447549425
  H   2.62846689275111      0.00970640397415     -0.50938941801946
  H   1.75315797584998     -1.36693954128035     -0.78191253931367
  C   0.93031575219660      1.43155932625600      0.62683742910774
  N   1.14568081773622      2.57023976781977      0.81179801420104
  N   -1.01660136113225      0.36574062273337     -1.21805229345956
  H   -0.26422156071142      0.40915241532601     -1.89402356838910
  H   -1.84290553472021     -0.03021344422901     -1.64702354579016
  N   -1.62637020927108     -0.18716463552405      0.99299570490998
  O   -2.65776242531442     -0.84163307771982      0.85706218627801
  O   -1.39480404477066      0.63722467560910      1.86723403371115
